BDB5015
 OpenBabel12261618013D

 25 25  0  0  1  0  0  0  0  0999 V2000
  -30.5790   13.2700  -19.2900 C   0  0  1  0  0  0  0  0  0  0  0  0
  -31.5860   13.5090  -20.4810 C   0  0  1  0  0  0  0  0  0  0  0  0
  -32.7790   12.5050  -20.5120 C   0  0  2  0  0  0  0  0  0  0  0  0
  -33.5360   12.6220  -19.1930 C   0  0  0  0  0  0  0  0  0  0  0  0
  -32.6060   12.6170  -17.9460 C   0  0  0  0  0  0  0  0  0  0  0  0
  -31.2850   12.9340  -17.9980 C   0  0  0  0  0  0  0  0  0  0  0  0
  -30.5600   12.9500  -16.8720 F   0  0  0  0  0  0  0  0  0  0  0  0
  -32.1680   14.9190  -20.5830 N   0  0  0  0  0  0  0  0  0  0  0  0
  -33.0760   14.9470  -20.9630 H   0  0  0  0  0  0  0  0  0  0  0  0
  -31.6390   16.2410  -20.2250 C   0  0  0  0  0  0  0  0  0  0  0  0
  -32.4450   17.1780  -20.2500 O   0  0  0  0  0  0  0  0  0  0  0  0
  -30.2150   16.5960  -19.9130 C   0  0  0  0  0  0  0  0  0  0  0  0
  -32.4450   11.1220  -20.6880 N   0  0  0  0  0  0  0  0  0  0  0  0
  -33.1650   10.6660  -21.2480 H   0  0  0  0  0  0  0  0  0  0  0  0
  -31.5460   11.0470  -21.1660 H   0  0  0  0  0  0  0  0  0  0  0  0
  -32.3840   10.6670  -19.7780 H   0  0  0  0  0  0  0  0  0  0  0  0
  -33.2250   12.3290  -16.6390 C   0  0  0  0  0  0  0  0  0  0  0  0
  -33.6650   13.3260  -15.8260 O   0  0  0  0  0  0  0  0  0  0  0  0
  -33.3970   11.1510  -16.2980 O   0  0  0  0  0  0  0  0  0  0  0  0
  -29.4780   12.2740  -19.5270 O   0  0  0  0  0  0  0  0  0  0  0  0
  -28.1760   12.7190  -19.9460 C   0  0  0  0  0  0  0  0  0  0  0  0
  -28.1500   12.9090  -21.4890 C   0  0  0  0  0  0  0  0  0  0  0  0
  -27.5760   14.2860  -21.8600 C   0  0  0  0  0  0  0  0  0  0  0  0
  -27.8320   14.0590  -19.2610 C   0  0  0  0  0  0  0  0  0  0  0  0
  -27.4870   13.8120  -17.7740 C   0  0  0  0  0  0  0  0  0  0  0  0
  1 20  1  6  0  0  0
  1  6  1  0  0  0  0
  2  8  1  1  0  0  0
  2  1  1  0  0  0  0
  3 13  1  1  0  0  0
  3  2  1  0  0  0  0
  3  4  1  0  0  0  0
  4  5  1  0  0  0  0
  5 17  1  0  0  0  0
  6  5  2  0  0  0  0
  6  7  1  0  0  0  0
  8 10  1  0  0  0  0
  9  8  1  0  0  0  0
 10 12  1  0  0  0  0
 11 10  2  0  0  0  0
 13 16  1  0  0  0  0
 14 13  1  0  0  0  0
 15 13  1  0  0  0  0
 17 19  2  0  0  0  0
 17 18  1  0  0  0  0
 21 20  1  0  0  0  0
 21 24  1  0  0  0  0
 22 21  1  0  0  0  0
 23 22  1  0  0  0  0
 24 25  1  0  0  0  0
M  END
>  <MODEL>
1

>  <REMARK>
 VINA RESULT:      -6.5      0.000      0.000
  Name = BDB5015
                            x       y       z     vdW  Elec       q    Type
                         _______ _______ _______ _____ _____    ______ ____

>  <TORSDO>
F 7

>  <vina_score>
-6.5

$$$$
BDB4934
 OpenBabel12261618003D

 32 32  0  0  1  0  0  0  0  0999 V2000
  -30.0710   12.6360  -18.6790 C   0  0  2  0  0  0  0  0  0  0  0  0
  -29.7200   12.9460  -20.1220 C   0  0  2  0  0  0  0  0  0  0  0  0
  -30.6740   12.2290  -21.0060 C   0  0  0  0  0  0  0  0  0  0  0  0
  -31.9100   11.9230  -20.5960 C   0  0  0  0  0  0  0  0  0  0  0  0
  -32.4050   12.2640  -19.3070 O   0  0  0  0  0  0  0  0  0  0  0  0
  -31.5150   13.0650  -18.4970 C   0  0  1  0  0  0  0  0  0  0  0  0
  -29.2010   13.4310  -17.8030 N   0  0  0  0  0  0  0  0  0  0  0  0
  -28.7920   12.9630  -17.0390 H   0  0  0  0  0  0  0  0  0  0  0  0
  -28.8880   14.8280  -17.9500 C   0  0  0  0  0  0  0  0  0  0  0  0
  -28.1340   15.3490  -17.1210 O   0  0  0  0  0  0  0  0  0  0  0  0
  -29.4320   15.6930  -19.0690 C   0  0  0  0  0  0  0  0  0  0  0  0
  -32.7840   11.1780  -21.5030 C   0  0  0  0  0  0  0  0  0  0  0  0
  -34.0620   10.8980  -21.1350 O   0  0  0  0  0  0  0  0  0  0  0  0
  -32.3600   10.8040  -22.6020 O   0  0  0  0  0  0  0  0  0  0  0  0
  -28.3580   12.5380  -20.4110 N   0  0  0  0  0  0  0  0  0  0  0  0
  -28.0370   11.6810  -20.0490 H   0  0  0  0  0  0  0  0  0  0  0  0
  -27.4750   13.3210  -21.1880 C   0  0  0  0  0  0  0  0  0  0  0  0
  -27.9420   14.0260  -22.1370 N   0  0  0  0  0  0  0  0  0  0  0  0
  -27.3370   14.5760  -22.6860 H   0  0  0  0  0  0  0  0  0  0  0  0
  -28.9090   14.0240  -22.3220 H   0  0  0  0  0  0  0  0  0  0  0  0
  -26.0970   13.3360  -20.9390 N   0  0  0  0  0  0  0  0  0  0  0  0
  -25.7620   13.5530  -20.0380 H   0  0  0  0  0  0  0  0  0  0  0  0
  -25.4630   13.1280  -21.6630 H   0  0  0  0  0  0  0  0  0  0  0  0
  -31.9290   12.9280  -17.0150 C   0  0  2  0  0  0  0  0  0  0  0  0
  -31.1470   11.9010  -16.4030 O   0  0  0  0  0  0  0  0  0  0  0  0
  -30.2740   11.8630  -16.8250 H   0  0  0  0  0  0  0  0  0  0  0  0
  -33.4250   12.5570  -16.9060 C   0  0  2  0  0  0  0  0  0  0  0  0
  -34.2120   13.4490  -17.7000 O   0  0  0  0  0  0  0  0  0  0  0  0
  -33.9820   14.3660  -17.4800 H   0  0  0  0  0  0  0  0  0  0  0  0
  -33.8680   12.6660  -15.4370 C   0  0  0  0  0  0  0  0  0  0  0  0
  -35.0740   13.4300  -15.3590 O   0  0  0  0  0  0  0  0  0  0  0  0
  -35.2940   13.7770  -16.2380 H   0  0  0  0  0  0  0  0  0  0  0  0
  1  6  1  0  0  0  0
  1  7  1  1  0  0  0
  2 15  1  6  0  0  0
  2  1  1  0  0  0  0
  3  4  2  0  0  0  0
  3  2  1  0  0  0  0
  4  5  1  0  0  0  0
  6  5  1  6  0  0  0
  6 24  1  0  0  0  0
  7  8  1  0  0  0  0
  9  7  1  0  0  0  0
  9 10  2  0  0  0  0
 11  9  1  0  0  0  0
 12 13  1  0  0  0  0
 12  4  1  0  0  0  0
 14 12  2  0  0  0  0
 15 16  1  0  0  0  0
 17 21  1  0  0  0  0
 17 15  1  0  0  0  0
 18 17  2  0  0  0  0
 19 18  1  0  0  0  0
 20 18  1  0  0  0  0
 21 22  1  0  0  0  0
 23 21  1  0  0  0  0
 24 27  1  0  0  0  0
 24 25  1  6  0  0  0
 26 25  1  0  0  0  0
 27 28  1  6  0  0  0
 27 30  1  0  0  0  0
 28 29  1  0  0  0  0
 30 31  1  0  0  0  0
 32 31  1  0  0  0  0
M  END
>  <MODEL>
1

>  <REMARK>
 VINA RESULT:      -6.4      0.000      0.000
  Name = BDB4934
                            x       y       z     vdW  Elec       q    Type
                         _______ _______ _______ _____ _____    ______ ____

>  <TORSDO>
F 11

>  <vina_score>
-6.4

$$$$
BDB4995
 OpenBabel12261618013D

 25 25  0  0  1  0  0  0  0  0999 V2000
  -31.3550   12.9850  -18.1370 C   0  0  0  0  0  0  0  0  0  0  0  0
  -32.6600   12.6610  -18.0180 C   0  0  0  0  0  0  0  0  0  0  0  0
  -33.6580   12.6590  -19.2080 C   0  0  0  0  0  0  0  0  0  0  0  0
  -32.9700   12.5370  -20.5720 C   0  0  1  0  0  0  0  0  0  0  0  0
  -31.7570   13.5250  -20.6070 C   0  0  2  0  0  0  0  0  0  0  0  0
  -30.6840   13.2960  -19.4430 C   0  0  2  0  0  0  0  0  0  0  0  0
  -32.3510   14.9370  -20.7020 N   0  0  0  0  0  0  0  0  0  0  0  0
  -33.2450   14.9620  -21.1160 H   0  0  0  0  0  0  0  0  0  0  0  0
  -31.8500   16.2580  -20.2970 C   0  0  0  0  0  0  0  0  0  0  0  0
  -32.6780   17.1770  -20.2850 O   0  0  0  0  0  0  0  0  0  0  0  0
  -30.4320   16.6360  -19.9830 C   0  0  0  0  0  0  0  0  0  0  0  0
  -32.6610   11.1640  -20.7760 N   0  0  0  0  0  0  0  0  0  0  0  0
  -32.5220   10.9920  -21.7730 H   0  0  0  0  0  0  0  0  0  0  0  0
  -31.8100   10.9270  -20.2690 H   0  0  0  0  0  0  0  0  0  0  0  0
  -33.4310   10.5880  -20.4370 H   0  0  0  0  0  0  0  0  0  0  0  0
  -33.1540   12.4110  -16.6720 C   0  0  0  0  0  0  0  0  0  0  0  0
  -33.4590   11.1480  -16.2870 O   0  0  0  0  0  0  0  0  0  0  0  0
  -33.3210   13.3540  -15.8940 O   0  0  0  0  0  0  0  0  0  0  0  0
  -29.5650   12.2770  -19.6300 O   0  0  0  0  0  0  0  0  0  0  0  0
  -28.1700   12.6820  -19.7570 C   0  0  1  0  0  0  0  0  0  0  0  0
  -28.0320   13.9210  -20.6850 C   0  0  0  0  0  0  0  0  0  0  0  0
  -27.8470   13.4800  -22.1480 C   0  0  0  0  0  0  0  0  0  0  0  0
  -27.6030   13.0970  -18.3920 C   0  0  0  0  0  0  0  0  0  0  0  0
  -27.6020   14.6070  -18.3440 C   0  0  0  0  0  0  0  0  0  0  0  0
  -28.2170   15.2580  -17.3600 C   0  0  0  0  0  0  0  0  0  0  0  0
  1  2  2  0  0  0  0
  2 16  1  0  0  0  0
  3  2  1  0  0  0  0
  4 12  1  1  0  0  0
  4  3  1  0  0  0  0
  5  7  1  1  0  0  0
  5  4  1  0  0  0  0
  5  6  1  0  0  0  0
  6 19  1  6  0  0  0
  6  1  1  0  0  0  0
  7  9  1  0  0  0  0
  8  7  1  0  0  0  0
  9 10  2  0  0  0  0
  9 11  1  0  0  0  0
 12 15  1  0  0  0  0
 12 14  1  0  0  0  0
 13 12  1  0  0  0  0
 16 17  2  0  0  0  0
 16 18  1  0  0  0  0
 20 21  1  6  0  0  0
 20 19  1  0  0  0  0
 20 23  1  0  0  0  0
 22 21  1  0  0  0  0
 23 24  1  0  0  0  0
 24 25  2  0  0  0  0
M  END
>  <MODEL>
1

>  <REMARK>
 VINA RESULT:      -6.4      0.000      0.000
  Name = BDB4995
                            x       y       z     vdW  Elec       q    Type
                         _______ _______ _______ _____ _____    ______ ____

>  <TORSDO>
F 8

>  <vina_score>
-6.4

$$$$
BDB5234
 OpenBabel12261618023D

 26 26  0  0  1  0  0  0  0  0999 V2000
  -31.2890   13.0430  -17.9980 C   0  0  0  0  0  0  0  0  0  0  0  0
  -32.5990   12.7230  -17.9100 C   0  0  0  0  0  0  0  0  0  0  0  0
  -33.5470   12.7060  -19.1200 C   0  0  0  0  0  0  0  0  0  0  0  0
  -32.8050   12.5270  -20.4430 C   0  0  1  0  0  0  0  0  0  0  0  0
  -31.6060   13.5230  -20.4900 C   0  0  2  0  0  0  0  0  0  0  0  0
  -30.5710   13.3540  -19.2850 C   0  0  2  0  0  0  0  0  0  0  0  0
  -32.2400   14.9180  -20.6330 N   0  0  0  0  0  0  0  0  0  0  0  0
  -33.1460   14.9030  -21.0180 H   0  0  0  0  0  0  0  0  0  0  0  0
  -31.7530   16.2730  -20.3080 C   0  0  0  0  0  0  0  0  0  0  0  0
  -32.5950   17.1770  -20.3340 O   0  0  0  0  0  0  0  0  0  0  0  0
  -30.3380   16.6890  -20.0240 C   0  0  0  0  0  0  0  0  0  0  0  0
  -32.4500   11.1720  -20.5410 N   0  0  0  0  0  0  0  0  0  0  0  0
  -33.2530   10.5930  -20.2990 H   0  0  0  0  0  0  0  0  0  0  0  0
  -32.1580   10.9670  -21.4970 H   0  0  0  0  0  0  0  0  0  0  0  0
  -31.6810   10.9750  -19.9010 H   0  0  0  0  0  0  0  0  0  0  0  0
  -33.1280   12.4890  -16.5730 C   0  0  0  0  0  0  0  0  0  0  0  0
  -33.4420   11.2250  -16.1860 O   0  0  0  0  0  0  0  0  0  0  0  0
  -33.3200   13.4350  -15.8120 O   0  0  0  0  0  0  0  0  0  0  0  0
  -29.3440   12.3670  -19.3210 N   0  0  0  0  0  0  0  0  0  0  0  0
  -29.3300   12.0260  -18.3590 H   0  0  0  0  0  0  0  0  0  0  0  0
  -29.5260   11.7220  -20.0890 H   0  0  0  0  0  0  0  0  0  0  0  0
  -27.9100   12.8320  -19.4960 C   0  0  0  0  0  0  0  0  0  0  0  0
  -27.7250   14.0210  -20.4950 C   0  0  0  0  0  0  0  0  0  0  0  0
  -27.8580   13.5790  -21.9670 C   0  0  0  0  0  0  0  0  0  0  0  0
  -27.3860   13.3340  -18.1340 C   0  0  0  0  0  0  0  0  0  0  0  0
  -27.7380   14.8310  -17.9580 C   0  0  0  0  0  0  0  0  0  0  0  0
  1  2  2  0  0  0  0
  2 16  1  0  0  0  0
  3  2  1  0  0  0  0
  4 12  1  1  0  0  0
  4  3  1  0  0  0  0
  5  7  1  1  0  0  0
  5  4  1  0  0  0  0
  5  6  1  0  0  0  0
  6 19  1  6  0  0  0
  6  1  1  0  0  0  0
  7  9  1  0  0  0  0
  8  7  1  0  0  0  0
  9 11  1  0  0  0  0
 10  9  2  0  0  0  0
 12 13  1  0  0  0  0
 12 15  1  0  0  0  0
 14 12  1  0  0  0  0
 16 17  2  0  0  0  0
 16 18  1  0  0  0  0
 19 20  1  0  0  0  0
 21 19  1  0  0  0  0
 22 19  1  0  0  0  0
 22 25  1  0  0  0  0
 23 22  1  0  0  0  0
 24 23  1  0  0  0  0
 25 26  1  0  0  0  0
M  END
>  <MODEL>
1

>  <REMARK>
 VINA RESULT:      -6.4      0.000      0.000
  Name = BDB5234
                            x       y       z     vdW  Elec       q    Type
                         _______ _______ _______ _____ _____    ______ ____

>  <TORSDO>
F 7

>  <vina_score>
-6.4

$$$$
BDB5232
 OpenBabel12261618023D

 26 26  0  0  1  0  0  0  0  0999 V2000
  -31.3720   13.0460  -17.8050 C   0  0  0  0  0  0  0  0  0  0  0  0
  -32.6680   12.6610  -17.8790 C   0  0  0  0  0  0  0  0  0  0  0  0
  -33.4820   12.6330  -19.1970 C   0  0  0  0  0  0  0  0  0  0  0  0
  -32.5820   12.4850  -20.4190 C   0  0  1  0  0  0  0  0  0  0  0  0
  -31.4380   13.5650  -20.2920 C   0  0  2  0  0  0  0  0  0  0  0  0
  -30.5280   13.4410  -19.0010 C   0  0  2  0  0  0  0  0  0  0  0  0
  -32.1270   14.9160  -20.5000 N   0  0  0  0  0  0  0  0  0  0  0  0
  -33.0470   14.8440  -20.8410 H   0  0  0  0  0  0  0  0  0  0  0  0
  -31.6780   16.3000  -20.2850 C   0  0  0  0  0  0  0  0  0  0  0  0
  -32.5410   17.1770  -20.4040 O   0  0  0  0  0  0  0  0  0  0  0  0
  -30.2840   16.7720  -19.9960 C   0  0  0  0  0  0  0  0  0  0  0  0
  -32.2140   11.0770  -20.4990 N   0  0  0  0  0  0  0  0  0  0  0  0
  -32.5900   10.6760  -21.3570 H   0  0  0  0  0  0  0  0  0  0  0  0
  -31.1970   10.9910  -20.4990 H   0  0  0  0  0  0  0  0  0  0  0  0
  -32.5970   10.5800  -19.6940 H   0  0  0  0  0  0  0  0  0  0  0  0
  -33.3400   12.3650  -16.6210 C   0  0  0  0  0  0  0  0  0  0  0  0
  -33.7480   13.3800  -15.8180 O   0  0  0  0  0  0  0  0  0  0  0  0
  -33.5010   11.1950  -16.2700 O   0  0  0  0  0  0  0  0  0  0  0  0
  -29.2830   12.5130  -19.1760 N   0  0  0  0  0  0  0  0  0  0  0  0
  -29.6280   11.6170  -18.8310 H   0  0  0  0  0  0  0  0  0  0  0  0
  -28.8420   12.4100  -20.6080 C   0  0  0  0  0  0  0  0  0  0  0  0
  -27.4370   12.9950  -20.8960 C   0  0  0  0  0  0  0  0  0  0  0  0
  -27.5790   14.2430  -21.7860 C   0  0  0  0  0  0  0  0  0  0  0  0
  -28.1230   12.8740  -18.3890 C   0  0  0  0  0  0  0  0  0  0  0  0
  -28.3630   14.0800  -17.4780 C   0  0  0  0  0  0  0  0  0  0  0  0
  -27.5110   15.2530  -18.0060 C   0  0  0  0  0  0  0  0  0  0  0  0
  2  1  2  0  0  0  0
  2 16  1  0  0  0  0
  3  2  1  0  0  0  0
  4 12  1  1  0  0  0
  4  5  1  0  0  0  0
  4  3  1  0  0  0  0
  5  7  1  1  0  0  0
  5  6  1  0  0  0  0
  6 19  1  6  0  0  0
  6  1  1  0  0  0  0
  7  9  1  0  0  0  0
  8  7  1  0  0  0  0
  9 11  1  0  0  0  0
 10  9  2  0  0  0  0
 12 15  1  0  0  0  0
 13 12  1  0  0  0  0
 14 12  1  0  0  0  0
 16 18  2  0  0  0  0
 16 17  1  0  0  0  0
 19 20  1  0  0  0  0
 19 24  1  0  0  0  0
 21 19  1  0  0  0  0
 22 21  1  0  0  0  0
 23 22  1  0  0  0  0
 24 25  1  0  0  0  0
 26 25  1  0  0  0  0
M  END
>  <MODEL>
1

>  <REMARK>
 VINA RESULT:      -6.4      0.000      0.000
  Name = BDB5232
                            x       y       z     vdW  Elec       q    Type
                         _______ _______ _______ _____ _____    ______ ____

>  <TORSDO>
F 8

>  <vina_score>
-6.4

$$$$
BDB5021
 OpenBabel12261618023D

 27 28  0  0  1  0  0  0  0  0999 V2000
  -28.2190   14.9580  -19.2840 C   0  0  0  0  0  0  0  0  0  0  0  0
  -27.2460   13.7620  -18.9870 C   0  0  1  0  0  0  0  0  0  0  0  0
  -28.1950   12.5320  -18.9170 C   0  0  0  0  0  0  0  0  0  0  0  0
  -29.2370   12.9100  -19.9600 C   0  0  2  0  0  0  0  0  0  0  0  0
  -29.5920   14.2780  -19.4320 C   0  0  2  0  0  0  0  0  0  0  0  0
  -26.3960   13.5860  -20.2150 C   0  0  0  0  0  0  0  0  0  0  0  0
  -25.6420   12.6110  -20.3100 O   0  0  0  0  0  0  0  0  0  0  0  0
  -26.4580   14.4980  -21.2200 O   0  0  0  0  0  0  0  0  0  0  0  0
  -30.4970   15.0190  -20.2870 N   0  0  0  0  0  0  0  0  0  0  0  0
  -30.9880   14.5330  -20.9880 H   0  0  0  0  0  0  0  0  0  0  0  0
  -30.7040   16.4120  -20.1560 C   0  0  0  0  0  0  0  0  0  0  0  0
  -29.7000   17.1770  -20.0100 N   0  0  0  0  0  0  0  0  0  0  0  0
  -29.8320   18.1480  -19.9170 H   0  0  0  0  0  0  0  0  0  0  0  0
  -28.7920   16.7980  -19.9880 H   0  0  0  0  0  0  0  0  0  0  0  0
  -31.9900   16.9660  -20.1840 N   0  0  0  0  0  0  0  0  0  0  0  0
  -32.3530   17.3260  -21.0260 H   0  0  0  0  0  0  0  0  0  0  0  0
  -32.5320   16.9950  -19.3620 H   0  0  0  0  0  0  0  0  0  0  0  0
  -30.8230   12.9510  -19.6540 C   0  0  1  0  0  0  0  0  0  0  0  0
  -31.2790   11.4140  -19.9230 N   0  0  0  0  0  0  0  0  0  0  0  0
  -30.9860   10.5380  -19.5810 H   0  0  0  0  0  0  0  0  0  0  0  0
  -32.2910   11.8450  -20.8680 C   0  0  0  0  0  0  0  0  0  0  0  0
  -32.7690   10.9940  -21.6270 O   0  0  0  0  0  0  0  0  0  0  0  0
  -32.7810   13.2720  -21.0110 C   0  0  0  0  0  0  0  0  0  0  0  0
  -30.8970   13.0550  -17.9860 C   0  0  0  0  0  0  0  0  0  0  0  0
  -31.8160   12.2590  -17.0410 C   0  0  0  0  0  0  0  0  0  0  0  0
  -33.2340   12.8550  -17.0780 C   0  0  0  0  0  0  0  0  0  0  0  0
  -33.8300   12.8440  -15.6580 C   0  0  0  0  0  0  0  0  0  0  0  0
  1  2  1  0  0  0  0
  2  6  1  6  0  0  0
  2  3  1  0  0  0  0
  4 18  1  0  0  0  0
  4  5  1  0  0  0  0
  4  3  1  1  0  0  0
  5  9  1  6  0  0  0
  5  1  1  0  0  0  0
  7  6  1  0  0  0  0
  8  6  2  0  0  0  0
  9 11  1  0  0  0  0
 10  9  1  0  0  0  0
 11 12  1  0  0  0  0
 12 14  1  0  0  0  0
 12 13  1  0  0  0  0
 15 11  2  0  0  0  0
 15 17  1  0  0  0  0
 16 15  1  0  0  0  0
 18 19  1  6  0  0  0
 18  5  1  0  0  0  0
 18 24  1  0  0  0  0
 19 20  1  0  0  0  0
 21 19  1  0  0  0  0
 22 21  2  0  0  0  0
 23 21  1  0  0  0  0
 24 25  1  0  0  0  0
 26 25  1  0  0  0  0
 26 27  1  0  0  0  0
M  END
>  <MODEL>
1

>  <REMARK>
 VINA RESULT:      -6.4      0.000      0.000
  Name = BDB5021
                            x       y       z     vdW  Elec       q    Type
                         _______ _______ _______ _____ _____    ______ ____

>  <TORSDO>
F 9

>  <vina_score>
-6.4

$$$$
BDB5008
 OpenBabel12261618023D

 25 25  0  0  1  0  0  0  0  0999 V2000
  -31.3840   13.7190  -20.8600 C   0  0  0  0  0  0  0  0  0  0  0  0
  -30.7050   14.5360  -20.0280 C   0  0  0  0  0  0  0  0  0  0  0  0
  -29.7000   14.0370  -19.0090 C   0  0  0  0  0  0  0  0  0  0  0  0
  -29.2020   12.6350  -19.2960 C   0  0  1  0  0  0  0  0  0  0  0  0
  -30.4500   11.7080  -19.6600 C   0  0  2  0  0  0  0  0  0  0  0  0
  -31.1730   12.2160  -20.9140 C   0  0  2  0  0  0  0  0  0  0  0  0
  -31.3970   11.4640  -18.4720 N   0  0  0  0  0  0  0  0  0  0  0  0
  -30.9490   11.5110  -17.5970 H   0  0  0  0  0  0  0  0  0  0  0  0
  -32.8450   11.1740  -18.3790 C   0  0  0  0  0  0  0  0  0  0  0  0
  -33.2540   10.8030  -17.2740 O   0  0  0  0  0  0  0  0  0  0  0  0
  -33.8880   11.3080  -19.4430 C   0  0  0  0  0  0  0  0  0  0  0  0
  -30.9810   15.9650  -20.0550 C   0  0  0  0  0  0  0  0  0  0  0  0
  -32.2670   16.4000  -20.1210 O   0  0  0  0  0  0  0  0  0  0  0  0
  -30.0510   16.7780  -20.0270 O   0  0  0  0  0  0  0  0  0  0  0  0
  -27.9540   12.6500  -20.2420 N   0  0  0  0  0  0  0  0  0  0  0  0
  -27.4300   11.8170  -20.2240 H   0  0  0  0  0  0  0  0  0  0  0  0
  -27.4020   13.7000  -21.1790 C   0  0  0  0  0  0  0  0  0  0  0  0
  -27.8830   13.7420  -22.3570 N   0  0  0  0  0  0  0  0  0  0  0  0
  -27.5550   14.4130  -22.9980 H   0  0  0  0  0  0  0  0  0  0  0  0
  -28.5830   13.1040  -22.6250 H   0  0  0  0  0  0  0  0  0  0  0  0
  -26.3870   14.6740  -20.8920 N   0  0  0  0  0  0  0  0  0  0  0  0
  -26.2320   14.9650  -19.9650 H   0  0  0  0  0  0  0  0  0  0  0  0
  -25.8460   15.0510  -21.6240 H   0  0  0  0  0  0  0  0  0  0  0  0
  -30.4120   11.9010  -22.0750 O   0  0  0  0  0  0  0  0  0  0  0  0
  -29.5630   11.5130  -21.8100 H   0  0  0  0  0  0  0  0  0  0  0  0
  1  2  2  0  0  0  0
  2  3  1  0  0  0  0
  4 15  1  6  0  0  0
  4  3  1  0  0  0  0
  5  4  1  0  0  0  0
  5  7  1  1  0  0  0
  6 24  1  6  0  0  0
  6  1  1  0  0  0  0
  6  5  1  0  0  0  0
  7  9  1  0  0  0  0
  7  8  1  0  0  0  0
  9 10  2  0  0  0  0
 11  9  1  0  0  0  0
 12  2  1  0  0  0  0
 12 14  1  0  0  0  0
 13 12  2  0  0  0  0
 15 16  1  0  0  0  0
 17 21  1  0  0  0  0
 17 15  1  0  0  0  0
 18 17  2  0  0  0  0
 19 18  1  0  0  0  0
 20 18  1  0  0  0  0
 21 22  1  0  0  0  0
 23 21  1  0  0  0  0
 24 25  1  0  0  0  0
M  END
>  <MODEL>
1

>  <REMARK>
 VINA RESULT:      -6.3      0.000      0.000
  Name = BDB5008
                            x       y       z     vdW  Elec       q    Type
                         _______ _______ _______ _____ _____    ______ ____

>  <TORSDO>
F 6

>  <vina_score>
-6.3

$$$$
BDB5219
 OpenBabel12261618033D

 24 24  0  0  1  0  0  0  0  0999 V2000
  -30.5440   14.0880  -18.7450 C   0  0  0  0  0  0  0  0  0  0  0  0
  -31.1160   14.4530  -19.9170 C   0  0  0  0  0  0  0  0  0  0  0  0
  -31.2970   13.4920  -21.1090 C   0  0  0  0  0  0  0  0  0  0  0  0
  -31.2380   12.0090  -20.7040 C   0  0  1  0  0  0  0  0  0  0  0  0
  -29.9830   11.8440  -19.8050 C   0  0  2  0  0  0  0  0  0  0  0  0
  -30.0480   12.6890  -18.4800 C   0  0  2  0  0  0  0  0  0  0  0  0
  -32.5170   11.6290  -20.1190 N   0  0  0  0  0  0  0  0  0  0  0  0
  -32.5180   11.8580  -19.1250 H   0  0  0  0  0  0  0  0  0  0  0  0
  -33.2690   12.1360  -20.5860 H   0  0  0  0  0  0  0  0  0  0  0  0
  -32.6590   10.6250  -20.2360 H   0  0  0  0  0  0  0  0  0  0  0  0
  -31.4820   15.8520  -20.0750 C   0  0  0  0  0  0  0  0  0  0  0  0
  -30.5110   16.8040  -20.0340 O   0  0  0  0  0  0  0  0  0  0  0  0
  -32.6610   16.1770  -20.1890 O   0  0  0  0  0  0  0  0  0  0  0  0
  -28.8320   12.1820  -20.6910 N   0  0  0  0  0  0  0  0  0  0  0  0
  -27.6690   12.9720  -20.4270 C   0  0  0  0  0  0  0  0  0  0  0  0
  -26.8920   12.7380  -19.5020 O   0  0  0  0  0  0  0  0  0  0  0  0
  -27.4080   14.1640  -21.2940 C   0  0  0  0  0  0  0  0  0  0  0  0
  -26.0890   14.5510  -21.1630 F   0  0  0  0  0  0  0  0  0  0  0  0
  -28.2300   15.1970  -20.9020 F   0  0  0  0  0  0  0  0  0  0  0  0
  -27.6700   13.8440  -22.6120 F   0  0  0  0  0  0  0  0  0  0  0  0
  -30.8540   12.0480  -17.4260 O   0  0  0  0  0  0  0  0  0  0  0  0
  -31.8250   12.8770  -16.7860 C   0  0  0  0  0  0  0  0  0  0  0  0
  -33.1230   12.0480  -16.6420 C   0  0  0  0  0  0  0  0  0  0  0  0
  -34.0380   12.6860  -15.5830 C   0  0  0  0  0  0  0  0  0  0  0  0
  1  6  1  0  0  0  0
  2  1  2  0  0  0  0
  3  4  1  0  0  0  0
  3  2  1  0  0  0  0
  4  7  1  1  0  0  0
  4  5  1  0  0  0  0
  5 14  1  6  0  0  0
  5  6  1  0  0  0  0
  6 21  1  1  0  0  0
  7  8  1  0  0  0  0
  9  7  1  0  0  0  0
 10  7  1  0  0  0  0
 11 12  1  0  0  0  0
 11  2  1  0  0  0  0
 13 11  2  0  0  0  0
 14 15  1  0  0  0  0
 15 16  2  0  0  0  0
 17 18  1  0  0  0  0
 17 19  1  0  0  0  0
 17 15  1  0  0  0  0
 20 17  1  0  0  0  0
 21 22  1  0  0  0  0
 22 23  1  0  0  0  0
 23 24  1  0  0  0  0
M  END
>  <MODEL>
1

>  <REMARK>
 VINA RESULT:      -6.3      0.000      0.000
  Name = BDB5219
                            x       y       z     vdW  Elec       q    Type
                         _______ _______ _______ _____ _____    ______ ____

>  <TORSDO>
F 8

>  <vina_score>
-6.3

$$$$
BDB5023
 OpenBabel12261618013D

 28 28  0  0  1  0  0  0  0  0999 V2000
  -27.7400   14.7250  -18.3170 C   0  0  0  0  0  0  0  0  0  0  0  0
  -27.0290   13.3530  -18.5950 C   0  0  1  0  0  0  0  0  0  0  0  0
  -28.1900   12.3210  -18.5210 C   0  0  0  0  0  0  0  0  0  0  0  0
  -29.3390   13.1360  -19.0980 C   0  0  2  0  0  0  0  0  0  0  0  0
  -29.2270   14.3420  -18.1980 C   0  0  2  0  0  0  0  0  0  0  0  0
  -26.5710   13.3900  -20.0270 C   0  0  0  0  0  0  0  0  0  0  0  0
  -25.8510   12.4880  -20.4690 O   0  0  0  0  0  0  0  0  0  0  0  0
  -26.9490   14.4150  -20.8340 O   0  0  0  0  0  0  0  0  0  0  0  0
  -30.1170   15.4270  -18.5600 N   0  0  0  0  0  0  0  0  0  0  0  0
  -30.5760   15.9190  -17.8420 H   0  0  0  0  0  0  0  0  0  0  0  0
  -30.3520   15.8080  -19.9010 C   0  0  0  0  0  0  0  0  0  0  0  0
  -31.5470   15.8610  -20.3300 N   0  0  0  0  0  0  0  0  0  0  0  0
  -31.7230   16.1250  -21.2630 H   0  0  0  0  0  0  0  0  0  0  0  0
  -32.2950   15.6390  -19.7310 H   0  0  0  0  0  0  0  0  0  0  0  0
  -29.2980   16.1260  -20.7670 N   0  0  0  0  0  0  0  0  0  0  0  0
  -28.3710   15.9080  -20.5140 H   0  0  0  0  0  0  0  0  0  0  0  0
  -29.4830   16.5660  -21.6280 H   0  0  0  0  0  0  0  0  0  0  0  0
  -30.7220   12.4130  -18.9260 C   0  0  1  0  0  0  0  0  0  0  0  0
  -31.5550   13.1540  -18.0150 N   0  0  0  0  0  0  0  0  0  0  0  0
  -31.6110   14.1330  -18.1010 H   0  0  0  0  0  0  0  0  0  0  0  0
  -32.2910   12.5070  -17.0060 C   0  0  0  0  0  0  0  0  0  0  0  0
  -33.0210   13.1700  -16.2640 O   0  0  0  0  0  0  0  0  0  0  0  0
  -32.1860   11.0180  -16.8130 C   0  0  0  0  0  0  0  0  0  0  0  0
  -31.4690   12.0390  -20.2810 C   0  0  0  0  0  0  0  0  0  0  0  0
  -32.8480   12.7340  -20.5150 C   0  0  0  0  0  0  0  0  0  0  0  0
  -34.0230   11.7490  -20.3400 C   0  0  0  0  0  0  0  0  0  0  0  0
  -30.5350   12.3500  -21.4690 C   0  0  0  0  0  0  0  0  0  0  0  0
  -30.0170   11.0340  -22.0840 C   0  0  0  0  0  0  0  0  0  0  0  0
  1  5  1  0  0  0  0
  2  6  1  6  0  0  0
  2  3  1  0  0  0  0
  2  1  1  0  0  0  0
  4 18  1  0  0  0  0
  4  3  1  1  0  0  0
  4  5  1  0  0  0  0
  5  9  1  6  0  0  0
  7  6  1  0  0  0  0
  8  6  2  0  0  0  0
  9 10  1  0  0  0  0
 11  9  1  0  0  0  0
 12 11  1  0  0  0  0
 12 14  1  0  0  0  0
 13 12  1  0  0  0  0
 15 16  1  0  0  0  0
 15 11  2  0  0  0  0
 17 15  1  0  0  0  0
 18 24  1  6  0  0  0
 18 19  1  0  0  0  0
 19 21  1  0  0  0  0
 20 19  1  0  0  0  0
 21 23  1  0  0  0  0
 21 22  2  0  0  0  0
 25 26  1  0  0  0  0
 25 24  1  0  0  0  0
 27 24  1  0  0  0  0
 28 27  1  0  0  0  0
M  END
>  <MODEL>
1

>  <REMARK>
 VINA RESULT:      -6.1      0.000      0.000
  Name = BDB5023
                            x       y       z     vdW  Elec       q    Type
                         _______ _______ _______ _____ _____    ______ ____

>  <TORSDO>
F 9

>  <vina_score>
-6.1

$$$$
BDB5024
 OpenBabel12261618013D

 30 30  0  0  1  0  0  0  0  0999 V2000
  -33.7080   12.9190  -19.1400 C   0  0  0  0  0  0  0  0  0  0  0  0
  -33.5100   12.9570  -20.6930 C   0  0  1  0  0  0  0  0  0  0  0  0
  -32.1410   13.6480  -20.8610 C   0  0  2  0  0  0  0  0  0  0  0  0
  -31.3100   12.9800  -19.7290 C   0  0  2  0  0  0  0  0  0  0  0  0
  -32.2970   13.3100  -18.5690 C   0  0  2  0  0  0  0  0  0  0  0  0
  -33.4760   11.5180  -21.2030 C   0  0  0  0  0  0  0  0  0  0  0  0
  -32.4580   11.0160  -21.6890 O   0  0  0  0  0  0  0  0  0  0  0  0
  -34.6290   10.8030  -21.2170 O   0  0  0  0  0  0  0  0  0  0  0  0
  -32.3030   15.0480  -20.6000 O   0  0  0  0  0  0  0  0  0  0  0  0
  -31.7580   15.3000  -19.8390 H   0  0  0  0  0  0  0  0  0  0  0  0
  -32.0240   12.7130  -17.2480 N   0  0  0  0  0  0  0  0  0  0  0  0
  -31.0870   12.6460  -16.9500 H   0  0  0  0  0  0  0  0  0  0  0  0
  -33.0650   12.2180  -16.3630 C   0  0  0  0  0  0  0  0  0  0  0  0
  -33.6330   13.0400  -15.5790 N   0  0  0  0  0  0  0  0  0  0  0  0
  -34.3380   12.7290  -14.9640 H   0  0  0  0  0  0  0  0  0  0  0  0
  -33.3710   13.9890  -15.5850 H   0  0  0  0  0  0  0  0  0  0  0  0
  -33.4760   10.8420  -16.3240 N   0  0  0  0  0  0  0  0  0  0  0  0
  -33.0870   10.2300  -15.6580 H   0  0  0  0  0  0  0  0  0  0  0  0
  -34.1480   10.5110  -16.9630 H   0  0  0  0  0  0  0  0  0  0  0  0
  -29.8120   13.5290  -19.6570 C   0  0  1  0  0  0  0  0  0  0  0  0
  -29.3400   13.8810  -20.9830 N   0  0  0  0  0  0  0  0  0  0  0  0
  -29.9260   14.4130  -21.5690 H   0  0  0  0  0  0  0  0  0  0  0  0
  -28.0670   13.4870  -21.4640 C   0  0  0  0  0  0  0  0  0  0  0  0
  -27.1040   12.6920  -20.6190 C   0  0  0  0  0  0  0  0  0  0  0  0
  -27.7350   13.8110  -22.6100 O   0  0  0  0  0  0  0  0  0  0  0  0
  -29.5680   14.7480  -18.6370 C   0  0  0  0  0  0  0  0  0  0  0  0
  -28.7120   14.4430  -17.3790 C   0  0  0  0  0  0  0  0  0  0  0  0
  -27.1980   14.5490  -17.6470 C   0  0  0  0  0  0  0  0  0  0  0  0
  -28.9280   15.9580  -19.3730 C   0  0  0  0  0  0  0  0  0  0  0  0
  -29.9940   16.9850  -19.8120 C   0  0  0  0  0  0  0  0  0  0  0  0
  1  5  1  0  0  0  0
  2  6  1  1  0  0  0
  2  1  1  0  0  0  0
  3  2  1  0  0  0  0
  3  9  1  1  0  0  0
  3  4  1  0  0  0  0
  4 20  1  1  0  0  0
  4  5  1  0  0  0  0
  5 11  1  1  0  0  0
  7  6  2  0  0  0  0
  8  6  1  0  0  0  0
  9 10  1  0  0  0  0
 11 12  1  0  0  0  0
 11 13  1  0  0  0  0
 13 17  2  0  0  0  0
 13 14  1  0  0  0  0
 14 15  1  0  0  0  0
 16 14  1  0  0  0  0
 17 18  1  0  0  0  0
 19 17  1  0  0  0  0
 20 21  1  6  0  0  0
 20 26  1  0  0  0  0
 22 21  1  0  0  0  0
 23 21  1  0  0  0  0
 23 24  1  0  0  0  0
 25 23  2  0  0  0  0
 26 27  1  0  0  0  0
 28 27  1  0  0  0  0
 29 26  1  0  0  0  0
 30 29  1  0  0  0  0
M  END
>  <MODEL>
1

>  <REMARK>
 VINA RESULT:      -6.1      0.000      0.000
  Name = BDB5024
                            x       y       z     vdW  Elec       q    Type
                         _______ _______ _______ _____ _____    ______ ____

>  <TORSDO>
F 10

>  <vina_score>
-6.1

$$$$
BDB4986
 OpenBabel12261618053D

 25 25  0  0  1  0  0  0  0  0999 V2000
  -31.0310   12.6750  -18.9930 C   0  0  0  0  0  0  0  0  0  0  0  0
  -32.2510   12.4910  -18.4160 C   0  0  0  0  0  0  0  0  0  0  0  0
  -33.5550   12.6740  -19.1860 C   0  0  0  0  0  0  0  0  0  0  0  0
  -33.3490   12.6180  -20.7030 C   0  0  1  0  0  0  0  0  0  0  0  0
  -32.1720   13.5750  -21.0910 C   0  0  2  0  0  0  0  0  0  0  0  0
  -30.8760   13.0050  -20.4460 C   0  0  2  0  0  0  0  0  0  0  0  0
  -32.6080   15.0210  -20.8540 N   0  0  0  0  0  0  0  0  0  0  0  0
  -33.5240   15.2150  -21.1590 H   0  0  0  0  0  0  0  0  0  0  0  0
  -31.9250   16.1690  -20.2640 C   0  0  0  0  0  0  0  0  0  0  0  0
  -32.6160   17.1770  -20.0690 O   0  0  0  0  0  0  0  0  0  0  0  0
  -30.4730   16.2750  -19.9250 C   0  0  0  0  0  0  0  0  0  0  0  0
  -33.1180   11.2000  -21.0740 N   0  0  0  0  0  0  0  0  0  0  0  0
  -32.1360   10.9650  -20.9240 H   0  0  0  0  0  0  0  0  0  0  0  0
  -33.7040   10.5980  -20.4980 H   0  0  0  0  0  0  0  0  0  0  0  0
  -33.3530   11.0620  -22.0570 H   0  0  0  0  0  0  0  0  0  0  0  0
  -32.2600   12.2020  -16.9870 C   0  0  0  0  0  0  0  0  0  0  0  0
  -33.0380   12.9670  -16.1670 O   0  0  0  0  0  0  0  0  0  0  0  0
  -31.5660   11.3130  -16.5220 O   0  0  0  0  0  0  0  0  0  0  0  0
  -30.6450   11.7570  -21.1480 O   0  0  0  0  0  0  0  0  0  0  0  0
  -29.3210   11.5930  -21.6530 C   0  0  0  0  0  0  0  0  0  0  0  0
  -28.5930   12.9840  -21.6460 C   0  0  0  0  0  0  0  0  0  0  0  0
  -27.2630   12.9870  -20.8190 C   0  0  0  0  0  0  0  0  0  0  0  0
  -27.3730   14.0770  -19.7080 C   0  0  0  0  0  0  0  0  0  0  0  0
  -27.4350   13.4510  -18.2910 C   0  0  0  0  0  0  0  0  0  0  0  0
  -28.2150   14.3960  -17.3440 C   0  0  0  0  0  0  0  0  0  0  0  0
  1  2  2  0  0  0  0
  2 16  1  0  0  0  0
  3  2  1  0  0  0  0
  4 12  1  1  0  0  0
  4  3  1  0  0  0  0
  5  7  1  1  0  0  0
  5  4  1  0  0  0  0
  5  6  1  0  0  0  0
  6 19  1  6  0  0  0
  6  1  1  0  0  0  0
  7  9  1  0  0  0  0
  8  7  1  0  0  0  0
  9 10  2  0  0  0  0
  9 11  1  0  0  0  0
 12 13  1  0  0  0  0
 12 14  1  0  0  0  0
 15 12  1  0  0  0  0
 16 18  2  0  0  0  0
 16 17  1  0  0  0  0
 20 21  1  0  0  0  0
 20 19  1  0  0  0  0
 21 22  1  0  0  0  0
 22 23  1  0  0  0  0
 23 24  1  0  0  0  0
 24 25  1  0  0  0  0
M  END
>  <MODEL>
1

>  <REMARK>
 VINA RESULT:      -6.1      0.000      0.000
  Name = BDB4986
                            x       y       z     vdW  Elec       q    Type
                         _______ _______ _______ _____ _____    ______ ____

>  <TORSDO>
F 9

>  <vina_score>
-6.1

$$$$
BDB4977
 OpenBabel12261618043D

 27 28  0  0  1  0  0  0  0  0999 V2000
  -30.6460   12.0340  -18.9580 C   0  0  1  0  0  0  0  0  0  0  0  0
  -31.0790   13.4740  -18.4600 C   0  0  1  0  0  0  0  0  0  0  0  0
  -31.7610   14.2270  -19.6070 C   0  0  2  0  0  0  0  0  0  0  0  0
  -32.8090   13.3340  -20.2240 C   0  0  0  0  0  0  0  0  0  0  0  0
  -32.7590   11.9870  -20.1240 C   0  0  0  0  0  0  0  0  0  0  0  0
  -31.7460   11.2760  -19.4250 O   0  0  0  0  0  0  0  0  0  0  0  0
  -29.5010   12.0990  -20.0210 C   0  0  0  0  0  0  0  0  0  0  0  0
  -28.2420   12.8910  -19.9800 N   0  0  0  0  0  0  0  0  0  0  0  0
  -27.4390   12.9890  -21.1670 C   0  0  1  0  0  0  0  0  0  0  0  0
  -28.1430   13.9520  -22.1430 C   0  0  0  0  0  0  0  0  0  0  0  0
  -26.1560   13.6610  -20.6510 C   0  0  0  0  0  0  0  0  0  0  0  0
  -26.7920   14.7030  -19.7310 C   0  0  0  0  0  0  0  0  0  0  0  0
  -27.6920   13.7600  -18.9140 C   0  0  2  0  0  0  0  0  0  0  0  0
  -26.7090   12.9960  -17.9850 C   0  0  0  0  0  0  0  0  0  0  0  0
  -29.7040   11.4630  -21.0600 O   0  0  0  0  0  0  0  0  0  0  0  0
  -31.9250   13.5790  -17.1940 N   0  0  0  0  0  0  0  0  0  0  0  0
  -31.8480   14.4500  -16.7410 H   0  0  0  0  0  0  0  0  0  0  0  0
  -32.8240   12.6500  -16.5200 C   0  0  0  0  0  0  0  0  0  0  0  0
  -33.5090   13.1200  -15.6040 O   0  0  0  0  0  0  0  0  0  0  0  0
  -32.9580   11.1880  -16.7610 C   0  0  0  0  0  0  0  0  0  0  0  0
  -30.7920   14.6780  -20.6320 N   0  0  0  0  0  0  0  0  0  0  0  0
  -31.0730   15.5920  -20.9880 H   0  0  0  0  0  0  0  0  0  0  0  0
  -29.8640   14.7460  -20.2170 H   0  0  0  0  0  0  0  0  0  0  0  0
  -30.7730   14.0060  -21.4000 H   0  0  0  0  0  0  0  0  0  0  0  0
  -33.8240   11.1770  -20.7070 C   0  0  0  0  0  0  0  0  0  0  0  0
  -34.9090   10.8350  -19.9830 O   0  0  0  0  0  0  0  0  0  0  0  0
  -33.7210   10.8030  -21.8860 O   0  0  0  0  0  0  0  0  0  0  0  0
  1  7  1  6  0  0  0
  1  2  1  0  0  0  0
  2 16  1  1  0  0  0
  3 21  1  6  0  0  0
  3  2  1  0  0  0  0
  4  5  2  0  0  0  0
  4  3  1  0  0  0  0
  5  6  1  0  0  0  0
  6  1  1  0  0  0  0
  7  8  1  0  0  0  0
  8 13  1  0  0  0  0
  9 10  1  6  0  0  0
  9 11  1  0  0  0  0
  9  8  1  0  0  0  0
 11 12  1  0  0  0  0
 12 13  1  0  0  0  0
 13 14  1  1  0  0  0
 15  7  2  0  0  0  0
 16 17  1  0  0  0  0
 16 18  1  0  0  0  0
 18 19  2  0  0  0  0
 20 18  1  0  0  0  0
 21 23  1  0  0  0  0
 22 21  1  0  0  0  0
 24 21  1  0  0  0  0
 25  5  1  0  0  0  0
 25 26  1  0  0  0  0
 27 25  2  0  0  0  0
M  END
>  <MODEL>
1

>  <REMARK>
 VINA RESULT:      -6.0      0.000      0.000
  Name = BDB4977
                            x       y       z     vdW  Elec       q    Type
                         _______ _______ _______ _____ _____    ______ ____

>  <TORSDO>
F 4

>  <vina_score>
-6.0

$$$$
BDB5009
 OpenBabel12261618013D

 27 27  0  0  1  0  0  0  0  0999 V2000
  -30.2900   14.0780  -18.6980 C   0  0  0  0  0  0  0  0  0  0  0  0
  -30.8980   14.4010  -19.8560 C   0  0  0  0  0  0  0  0  0  0  0  0
  -31.0110   13.4510  -21.0250 C   0  0  0  0  0  0  0  0  0  0  0  0
  -30.7030   12.0260  -20.6670 C   0  0  1  0  0  0  0  0  0  0  0  0
  -29.4420   11.9460  -19.7100 C   0  0  2  0  0  0  0  0  0  0  0  0
  -29.7850   12.6890  -18.4090 C   0  0  2  0  0  0  0  0  0  0  0  0
  -28.0830   12.3670  -20.3420 N   0  0  0  0  0  0  0  0  0  0  0  0
  -28.0340   12.1790  -21.3070 H   0  0  0  0  0  0  0  0  0  0  0  0
  -26.8410   12.9920  -19.8090 C   0  0  0  0  0  0  0  0  0  0  0  0
  -25.9260   13.1600  -20.6230 O   0  0  0  0  0  0  0  0  0  0  0  0
  -26.5420   13.4360  -18.4130 C   0  0  0  0  0  0  0  0  0  0  0  0
  -31.4490   15.7280  -20.0300 C   0  0  0  0  0  0  0  0  0  0  0  0
  -30.6120   16.7970  -20.0540 O   0  0  0  0  0  0  0  0  0  0  0  0
  -32.6600   15.8800  -20.2130 O   0  0  0  0  0  0  0  0  0  0  0  0
  -31.9980   11.3110  -20.2100 N   0  0  0  0  0  0  0  0  0  0  0  0
  -31.8420   10.4490  -19.7630 H   0  0  0  0  0  0  0  0  0  0  0  0
  -33.4630   11.6910  -20.3220 C   0  0  0  0  0  0  0  0  0  0  0  0
  -34.2490   10.8030  -20.7540 N   0  0  0  0  0  0  0  0  0  0  0  0
  -35.2090   10.9980  -20.8490 H   0  0  0  0  0  0  0  0  0  0  0  0
  -33.9020    9.9140  -20.9940 H   0  0  0  0  0  0  0  0  0  0  0  0
  -34.0870   12.9530  -20.0030 N   0  0  0  0  0  0  0  0  0  0  0  0
  -33.5760   13.7910  -20.0910 H   0  0  0  0  0  0  0  0  0  0  0  0
  -35.0220   12.9770  -19.6980 H   0  0  0  0  0  0  0  0  0  0  0  0
  -30.8760   12.0150  -17.7160 O   0  0  0  0  0  0  0  0  0  0  0  0
  -31.6450   12.9160  -16.8880 C   0  0  0  0  0  0  0  0  0  0  0  0
  -33.0770   12.3570  -16.6260 C   0  0  0  0  0  0  0  0  0  0  0  0
  -33.1100   10.8150  -16.6900 C   0  0  0  0  0  0  0  0  0  0  0  0
  1  6  1  0  0  0  0
  2  1  2  0  0  0  0
  3  4  1  0  0  0  0
  3  2  1  0  0  0  0
  4 15  1  1  0  0  0
  4  5  1  0  0  0  0
  5  7  1  6  0  0  0
  5  6  1  0  0  0  0
  6 24  1  6  0  0  0
  7  9  1  0  0  0  0
  8  7  1  0  0  0  0
  9 11  1  0  0  0  0
 10  9  2  0  0  0  0
 12  2  1  0  0  0  0
 13 12  1  0  0  0  0
 14 12  2  0  0  0  0
 15 16  1  0  0  0  0
 17 15  1  0  0  0  0
 17 21  1  0  0  0  0
 18 17  2  0  0  0  0
 19 18  1  0  0  0  0
 20 18  1  0  0  0  0
 21 23  1  0  0  0  0
 22 21  1  0  0  0  0
 24 25  1  0  0  0  0
 25 26  1  0  0  0  0
 27 26  1  0  0  0  0
M  END
>  <MODEL>
1

>  <REMARK>
 VINA RESULT:      -5.9      0.000      0.000
  Name = BDB5009
                            x       y       z     vdW  Elec       q    Type
                         _______ _______ _______ _____ _____    ______ ____

>  <TORSDO>
F 8

>  <vina_score>
-5.9

$$$$
BDB5222
 OpenBabel12261618033D

 24 24  0  0  1  0  0  0  0  0999 V2000
  -31.0740   13.6340  -19.9900 C   0  0  0  0  0  0  0  0  0  0  0  0
  -30.4820   14.6920  -19.4100 C   0  0  0  0  0  0  0  0  0  0  0  0
  -29.6890   14.5870  -18.0940 C   0  0  0  0  0  0  0  0  0  0  0  0
  -29.2650   13.1470  -17.7750 C   0  0  1  0  0  0  0  0  0  0  0  0
  -30.5010   12.2060  -17.9520 C   0  0  2  0  0  0  0  0  0  0  0  0
  -30.9550   12.2270  -19.4570 C   0  0  2  0  0  0  0  0  0  0  0  0
  -31.5490   12.5070  -16.8720 N   0  0  0  0  0  0  0  0  0  0  0  0
  -31.2040   12.4220  -15.9540 H   0  0  0  0  0  0  0  0  0  0  0  0
  -32.9670   12.8990  -16.9330 C   0  0  0  0  0  0  0  0  0  0  0  0
  -33.4950   13.2090  -15.8590 O   0  0  0  0  0  0  0  0  0  0  0  0
  -33.8640   12.9030  -18.1320 C   0  0  0  0  0  0  0  0  0  0  0  0
  -30.6630   16.0020  -20.0190 C   0  0  0  0  0  0  0  0  0  0  0  0
  -31.9100   16.4420  -20.3200 O   0  0  0  0  0  0  0  0  0  0  0  0
  -29.6800   16.7100  -20.2620 O   0  0  0  0  0  0  0  0  0  0  0  0
  -28.0780   12.7930  -18.6180 N   0  0  0  0  0  0  0  0  0  0  0  0
  -28.1450   12.0710  -19.2830 H   0  0  0  0  0  0  0  0  0  0  0  0
  -26.8400   13.5070  -18.4530 C   0  0  0  0  0  0  0  0  0  0  0  0
  -25.7820   13.1090  -19.0240 N   0  0  0  0  0  0  0  0  0  0  0  0
  -24.9410   13.6070  -18.9030 H   0  0  0  0  0  0  0  0  0  0  0  0
  -25.8000   12.3020  -19.5870 H   0  0  0  0  0  0  0  0  0  0  0  0
  -29.9690   11.5750  -20.3170 O   0  0  0  0  0  0  0  0  0  0  0  0
  -29.8750   12.2190  -21.6060 C   0  0  0  0  0  0  0  0  0  0  0  0
  -28.4010   12.3050  -22.0910 C   0  0  0  0  0  0  0  0  0  0  0  0
  -27.8620   13.7410  -22.0080 C   0  0  0  0  0  0  0  0  0  0  0  0
  1  6  1  0  0  0  0
  1  2  2  0  0  0  0
  2  3  1  0  0  0  0
  3  4  1  0  0  0  0
  4 15  1  6  0  0  0
  5  4  1  0  0  0  0
  5  7  1  1  0  0  0
  6 21  1  6  0  0  0
  6  5  1  0  0  0  0
  7  8  1  0  0  0  0
  9  7  1  0  0  0  0
  9 10  2  0  0  0  0
 11  9  1  0  0  0  0
 12  2  1  0  0  0  0
 13 12  2  0  0  0  0
 14 12  1  0  0  0  0
 15 17  1  0  0  0  0
 16 15  1  0  0  0  0
 18 19  1  0  0  0  0
 18 17  1  0  0  0  0
 20 18  1  0  0  0  0
 22 21  1  0  0  0  0
 23 24  1  0  0  0  0
 23 22  1  0  0  0  0
M  END
>  <MODEL>
1

>  <REMARK>
 VINA RESULT:      -5.9      0.000      0.000
  Name = BDB5222
                            x       y       z     vdW  Elec       q    Type
                         _______ _______ _______ _____ _____    ______ ____

>  <TORSDO>
F 7

>  <vina_score>
-5.9

$$$$
BDB5233
 OpenBabel12261618043D

 24 24  0  0  1  0  0  0  0  0999 V2000
  -31.3030   12.9660  -17.7180 C   0  0  0  0  0  0  0  0  0  0  0  0
  -32.6200   12.6600  -17.7510 C   0  0  0  0  0  0  0  0  0  0  0  0
  -33.4820   12.6900  -19.0460 C   0  0  0  0  0  0  0  0  0  0  0  0
  -32.6370   12.4970  -20.3040 C   0  0  1  0  0  0  0  0  0  0  0  0
  -31.4250   13.5030  -20.2030 C   0  0  2  0  0  0  0  0  0  0  0  0
  -30.4900   13.3190  -18.9410 C   0  0  2  0  0  0  0  0  0  0  0  0
  -32.0450   14.8930  -20.3700 N   0  0  0  0  0  0  0  0  0  0  0  0
  -32.9890   14.8750  -20.6540 H   0  0  0  0  0  0  0  0  0  0  0  0
  -31.5050   16.2510  -20.1870 C   0  0  0  0  0  0  0  0  0  0  0  0
  -32.3190   17.1780  -20.2710 O   0  0  0  0  0  0  0  0  0  0  0  0
  -30.0730   16.6430  -19.9610 C   0  0  0  0  0  0  0  0  0  0  0  0
  -32.3710   11.0660  -20.4250 N   0  0  0  0  0  0  0  0  0  0  0  0
  -33.0120   10.5490  -19.8230 H   0  0  0  0  0  0  0  0  0  0  0  0
  -32.5030   10.7760  -21.3930 H   0  0  0  0  0  0  0  0  0  0  0  0
  -31.4090   10.8750  -20.1410 H   0  0  0  0  0  0  0  0  0  0  0  0
  -33.2700   12.3970  -16.4740 C   0  0  0  0  0  0  0  0  0  0  0  0
  -33.5670   13.4280  -15.6430 O   0  0  0  0  0  0  0  0  0  0  0  0
  -33.5090   11.2370  -16.1320 O   0  0  0  0  0  0  0  0  0  0  0  0
  -29.3470   12.3080  -19.0750 N   0  0  0  0  0  0  0  0  0  0  0  0
  -29.4230   11.6890  -18.2670 H   0  0  0  0  0  0  0  0  0  0  0  0
  -29.4550   11.8290  -19.9700 H   0  0  0  0  0  0  0  0  0  0  0  0
  -28.0210   12.8650  -19.0250 C   0  0  0  0  0  0  0  0  0  0  0  0
  -27.4870   13.2670  -20.3950 C   0  0  0  0  0  0  0  0  0  0  0  0
  -25.9730   12.9640  -20.4160 C   0  0  0  0  0  0  0  0  0  0  0  0
  2  1  2  0  0  0  0
  2 16  1  0  0  0  0
  3  2  1  0  0  0  0
  4 12  1  1  0  0  0
  4  5  1  0  0  0  0
  4  3  1  0  0  0  0
  5  7  1  1  0  0  0
  5  6  1  0  0  0  0
  6 19  1  6  0  0  0
  6  1  1  0  0  0  0
  7  9  1  0  0  0  0
  8  7  1  0  0  0  0
  9 11  1  0  0  0  0
 10  9  2  0  0  0  0
 12 15  1  0  0  0  0
 12 13  1  0  0  0  0
 14 12  1  0  0  0  0
 16 18  2  0  0  0  0
 16 17  1  0  0  0  0
 19 22  1  0  0  0  0
 19 20  1  0  0  0  0
 21 19  1  0  0  0  0
 23 22  1  0  0  0  0
 24 23  1  0  0  0  0
M  END
>  <MODEL>
1

>  <REMARK>
 VINA RESULT:      -5.9      0.000      0.000
  Name = BDB5233
                            x       y       z     vdW  Elec       q    Type
                         _______ _______ _______ _____ _____    ______ ____

>  <TORSDO>
F 6

>  <vina_score>
-5.9

$$$$
BDB5242
 OpenBabel12261618043D

 22 22  0  0  1  0  0  0  0  0999 V2000
  -31.4360   12.9540  -17.4840 C   0  0  0  0  0  0  0  0  0  0  0  0
  -32.7470   12.6240  -17.5690 C   0  0  0  0  0  0  0  0  0  0  0  0
  -33.5520   12.6470  -18.8940 C   0  0  0  0  0  0  0  0  0  0  0  0
  -32.6510   12.4910  -20.1250 C   0  0  1  0  0  0  0  0  0  0  0  0
  -31.4890   13.5280  -19.9730 C   0  0  2  0  0  0  0  0  0  0  0  0
  -30.5990   13.3290  -18.6820 C   0  0  2  0  0  0  0  0  0  0  0  0
  -32.1440   14.8940  -20.1460 N   0  0  0  0  0  0  0  0  0  0  0  0
  -33.1150   14.8540  -20.3000 H   0  0  0  0  0  0  0  0  0  0  0  0
  -31.6000   16.2580  -20.1270 C   0  0  0  0  0  0  0  0  0  0  0  0
  -32.4230   17.1760  -20.2270 O   0  0  0  0  0  0  0  0  0  0  0  0
  -30.1580   16.6640  -20.0360 C   0  0  0  0  0  0  0  0  0  0  0  0
  -32.2970   11.0850  -20.2410 N   0  0  0  0  0  0  0  0  0  0  0  0
  -33.1410   10.5150  -20.1800 H   0  0  0  0  0  0  0  0  0  0  0  0
  -31.8420   10.9220  -21.1390 H   0  0  0  0  0  0  0  0  0  0  0  0
  -31.6610   10.8310  -19.4850 H   0  0  0  0  0  0  0  0  0  0  0  0
  -33.4400   12.3310  -16.3210 C   0  0  0  0  0  0  0  0  0  0  0  0
  -33.7220   13.3390  -15.4560 O   0  0  0  0  0  0  0  0  0  0  0  0
  -33.7340   11.1700  -16.0350 O   0  0  0  0  0  0  0  0  0  0  0  0
  -29.4200   12.2750  -18.8320 C   0  0  0  0  0  0  0  0  0  0  0  0
  -28.0410   12.8500  -19.1420 C   0  0  0  0  0  0  0  0  0  0  0  0
  -27.8460   13.0330  -20.6500 C   0  0  0  0  0  0  0  0  0  0  0  0
  -26.7020   14.0400  -20.8760 C   0  0  0  0  0  0  0  0  0  0  0  0
  2  1  2  0  0  0  0
  2 16  1  0  0  0  0
  3  2  1  0  0  0  0
  4 12  1  1  0  0  0
  4  5  1  0  0  0  0
  4  3  1  0  0  0  0
  5  7  1  1  0  0  0
  5  6  1  0  0  0  0
  6 19  1  6  0  0  0
  6  1  1  0  0  0  0
  7  9  1  0  0  0  0
  8  7  1  0  0  0  0
  9 11  1  0  0  0  0
 10  9  2  0  0  0  0
 12 13  1  0  0  0  0
 12 15  1  0  0  0  0
 14 12  1  0  0  0  0
 16 18  2  0  0  0  0
 16 17  1  0  0  0  0
 20 19  1  0  0  0  0
 21 20  1  0  0  0  0
 22 21  1  0  0  0  0
M  END
>  <MODEL>
1

>  <REMARK>
 VINA RESULT:      -5.9      0.000      0.000
  Name = BDB5242
                            x       y       z     vdW  Elec       q    Type
                         _______ _______ _______ _____ _____    ______ ____

>  <TORSDO>
F 6

>  <vina_score>
-5.9

$$$$
BDB5025
 OpenBabel12261618013D

 26 26  0  0  1  0  0  0  0  0999 V2000
  -31.1690   12.6600  -17.5850 C   0  0  0  0  0  0  0  0  0  0  0  0
  -30.1850   13.1440  -18.6140 C   0  0  2  0  0  0  0  0  0  0  0  0
  -30.7780   13.1000  -20.0240 C   0  0  1  0  0  0  0  0  0  0  0  0
  -32.0740   13.8910  -19.9830 C   0  0  2  0  0  0  0  0  0  0  0  0
  -33.0860   13.1230  -19.1150 C   0  0  0  0  0  0  0  0  0  0  0  0
  -32.4870   12.6620  -17.8020 C   0  0  0  0  0  0  0  0  0  0  0  0
  -29.8290   13.7430  -20.9440 N   0  0  0  0  0  0  0  0  0  0  0  0
  -29.7590   14.7230  -20.8950 H   0  0  0  0  0  0  0  0  0  0  0  0
  -28.9960   13.0800  -21.9110 C   0  0  0  0  0  0  0  0  0  0  0  0
  -28.2490   13.7710  -22.6120 O   0  0  0  0  0  0  0  0  0  0  0  0
  -28.9840   11.5770  -22.1140 C   0  0  0  0  0  0  0  0  0  0  0  0
  -32.6280   14.0320  -21.3370 N   0  0  0  0  0  0  0  0  0  0  0  0
  -32.1140   14.7550  -21.8410 H   0  0  0  0  0  0  0  0  0  0  0  0
  -32.5430   13.1450  -21.8340 H   0  0  0  0  0  0  0  0  0  0  0  0
  -33.6120   14.2950  -21.2770 H   0  0  0  0  0  0  0  0  0  0  0  0
  -33.3790   12.1660  -16.7560 C   0  0  0  0  0  0  0  0  0  0  0  0
  -33.2960   10.9920  -16.3770 O   0  0  0  0  0  0  0  0  0  0  0  0
  -34.3220   13.0200  -16.1910 O   0  0  0  0  0  0  0  0  0  0  0  0
  -34.1850   13.0230  -14.7680 C   0  0  0  0  0  0  0  0  0  0  0  0
  -35.3230   12.1940  -14.1460 C   0  0  0  0  0  0  0  0  0  0  0  0
  -28.9520   12.3660  -18.5520 O   0  0  0  0  0  0  0  0  0  0  0  0
  -27.7870   13.1350  -18.1400 C   0  0  0  0  0  0  0  0  0  0  0  0
  -27.0290   13.7380  -19.3590 C   0  0  0  0  0  0  0  0  0  0  0  0
  -25.9690   12.7360  -19.8710 C   0  0  0  0  0  0  0  0  0  0  0  0
  -28.2530   14.2910  -17.2280 C   0  0  0  0  0  0  0  0  0  0  0  0
  -27.8800   15.6490  -17.8610 C   0  0  0  0  0  0  0  0  0  0  0  0
  2 21  1  6  0  0  0
  2  1  1  0  0  0  0
  3  7  1  6  0  0  0
  3  4  1  0  0  0  0
  3  2  1  0  0  0  0
  4 12  1  6  0  0  0
  4  5  1  0  0  0  0
  5  6  1  0  0  0  0
  6  1  2  0  0  0  0
  6 16  1  0  0  0  0
  7  8  1  0  0  0  0
  9  7  1  0  0  0  0
 10  9  2  0  0  0  0
 11  9  1  0  0  0  0
 12 15  1  0  0  0  0
 13 12  1  0  0  0  0
 14 12  1  0  0  0  0
 16 17  2  0  0  0  0
 16 18  1  0  0  0  0
 18 19  1  0  0  0  0
 19 20  1  0  0  0  0
 21 22  1  0  0  0  0
 22 25  1  0  0  0  0
 23 22  1  0  0  0  0
 24 23  1  0  0  0  0
 26 25  1  0  0  0  0
M  END
>  <MODEL>
1

>  <REMARK>
 VINA RESULT:      -5.8      0.000      0.000
  Name = BDB5025
                            x       y       z     vdW  Elec       q    Type
                         _______ _______ _______ _____ _____    ______ ____

>  <TORSDO>
F 9

>  <vina_score>
-5.8

$$$$
BDB5195
 OpenBabel12261618003D

 24 24  0  0  1  0  0  0  0  0999 V2000
  -33.6530   11.8560  -18.8050 C   0  0  0  0  0  0  0  0  0  0  0  0
  -32.9130   12.7600  -17.8530 C   0  0  2  0  0  0  0  0  0  0  0  0
  -31.4920   12.4260  -18.2870 C   0  0  1  0  0  0  0  0  0  0  0  0
  -31.5320   12.5180  -19.7710 N   0  0  0  0  0  0  0  0  0  0  0  0
  -30.9330   11.8280  -20.2240 H   0  0  0  0  0  0  0  0  0  0  0  0
  -31.2020   13.4300  -20.0870 H   0  0  0  0  0  0  0  0  0  0  0  0
  -32.9820   12.3300  -20.1080 C   0  0  1  0  0  0  0  0  0  0  0  0
  -33.1990   11.3680  -21.2400 C   0  0  0  0  0  0  0  0  0  0  0  0
  -34.4200   10.8040  -21.4270 O   0  0  0  0  0  0  0  0  0  0  0  0
  -32.2640   11.0870  -21.9980 O   0  0  0  0  0  0  0  0  0  0  0  0
  -33.1550   12.4120  -16.4140 C   0  0  0  0  0  0  0  0  0  0  0  0
  -32.8910   11.2760  -16.0010 O   0  0  0  0  0  0  0  0  0  0  0  0
  -33.6740   13.3700  -15.5470 O   0  0  0  0  0  0  0  0  0  0  0  0
  -34.6860   12.7810  -14.7270 C   0  0  0  0  0  0  0  0  0  0  0  0
  -30.3540   13.4460  -18.7420 C   0  0  1  0  0  0  0  0  0  0  0  0
  -31.1140   14.7220  -19.0660 N   0  0  0  0  0  0  0  0  0  0  0  0
  -31.8330   14.7950  -18.3970 H   0  0  0  0  0  0  0  0  0  0  0  0
  -31.2400   15.8480  -19.9070 C   0  0  0  0  0  0  0  0  0  0  0  0
  -32.3120   16.0650  -20.4750 O   0  0  0  0  0  0  0  0  0  0  0  0
  -30.0840   16.7940  -20.1100 C   0  0  0  0  0  0  0  0  0  0  0  0
  -29.5070   13.8160  -17.3630 C   0  0  0  0  0  0  0  0  0  0  0  0
  -28.4630   13.9630  -18.5100 C   0  0  0  0  0  0  0  0  0  0  0  0
  -27.5450   15.1860  -18.3000 C   0  0  0  0  0  0  0  0  0  0  0  0
  -27.5850   12.7000  -18.5410 C   0  0  0  0  0  0  0  0  0  0  0  0
  1  2  1  0  0  0  0
  2 11  1  1  0  0  0
  3  4  1  6  0  0  0
  3  2  1  0  0  0  0
  5  4  1  0  0  0  0
  6  4  1  0  0  0  0
  7  8  1  6  0  0  0
  7  4  1  0  0  0  0
  7  1  1  0  0  0  0
  9  8  1  0  0  0  0
 10  8  2  0  0  0  0
 11 12  2  0  0  0  0
 11 13  1  0  0  0  0
 13 14  1  0  0  0  0
 15 16  1  1  0  0  0
 15  3  1  0  0  0  0
 15 21  1  0  0  0  0
 16 17  1  0  0  0  0
 18 16  1  0  0  0  0
 19 18  2  0  0  0  0
 20 18  1  0  0  0  0
 22 23  1  0  0  0  0
 22 21  1  0  0  0  0
 24 22  1  0  0  0  0
M  END
>  <MODEL>
1

>  <REMARK>
 VINA RESULT:      -5.8      0.000      0.000
  Name = BDB5195
                            x       y       z     vdW  Elec       q    Type
                         _______ _______ _______ _____ _____    ______ ____

>  <TORSDO>
F 7

>  <vina_score>
-5.8

$$$$
BDB5257
 OpenBabel12261618103D

 25 26  0  0  1  0  0  0  0  0999 V2000
  -30.1560   11.6780  -19.8920 C   0  0  0  0  0  0  0  0  0  0  0  0
  -31.2210   11.8130  -20.7170 C   0  0  0  0  0  0  0  0  0  0  0  0
  -32.5350   12.5130  -20.3030 C   0  0  0  0  0  0  0  0  0  0  0  0
  -32.3100   13.5330  -19.1850 C   0  0  1  0  0  0  0  0  0  0  0  0
  -31.5130   12.7980  -18.0410 C   0  0  2  0  0  0  0  0  0  0  0  0
  -30.1050   12.2220  -18.4850 C   0  0  2  0  0  0  0  0  0  0  0  0
  -28.8900   13.1570  -18.3600 N   0  0  0  0  0  0  0  0  0  0  0  0
  -28.2660   12.6800  -17.7080 H   0  0  0  0  0  0  0  0  0  0  0  0
  -28.3430   13.3650  -19.7120 C   0  0  0  0  0  0  0  0  0  0  0  0
  -27.0490   14.2080  -19.6410 C   0  0  0  0  0  0  0  0  0  0  0  0
  -27.3240   15.4770  -19.0440 O   0  0  0  0  0  0  0  0  0  0  0  0
  -27.8070   15.2790  -17.7180 C   0  0  0  0  0  0  0  0  0  0  0  0
  -29.1090   14.4690  -17.7700 C   0  0  0  0  0  0  0  0  0  0  0  0
  -32.5110   11.7850  -17.4770 N   0  0  0  0  0  0  0  0  0  0  0  0
  -32.5160   10.9230  -17.9520 H   0  0  0  0  0  0  0  0  0  0  0  0
  -33.4660   11.8580  -16.3600 C   0  0  0  0  0  0  0  0  0  0  0  0
  -34.0360   10.8030  -16.0580 O   0  0  0  0  0  0  0  0  0  0  0  0
  -33.8600   13.0790  -15.5790 C   0  0  0  0  0  0  0  0  0  0  0  0
  -31.7170   14.7090  -19.8000 N   0  0  0  0  0  0  0  0  0  0  0  0
  -32.2720   14.9850  -20.6100 H   0  0  0  0  0  0  0  0  0  0  0  0
  -31.6970   15.4730  -19.1250 H   0  0  0  0  0  0  0  0  0  0  0  0
  -30.7650   14.4940  -20.0980 H   0  0  0  0  0  0  0  0  0  0  0  0
  -31.1250   11.1690  -22.0190 C   0  0  0  0  0  0  0  0  0  0  0  0
  -29.9090   10.9960  -22.5960 O   0  0  0  0  0  0  0  0  0  0  0  0
  -32.1470   10.8260  -22.6130 O   0  0  0  0  0  0  0  0  0  0  0  0
  1  6  1  0  0  0  0
  2  3  1  0  0  0  0
  2  1  2  0  0  0  0
  3  4  1  0  0  0  0
  4 19  1  6  0  0  0
  4  5  1  0  0  0  0
  5 14  1  6  0  0  0
  6  7  1  6  0  0  0
  6  5  1  0  0  0  0
  7 13  1  0  0  0  0
  7  8  1  0  0  0  0
  9 10  1  0  0  0  0
  9  7  1  0  0  0  0
 10 11  1  0  0  0  0
 11 12  1  0  0  0  0
 13 12  1  0  0  0  0
 14 16  1  0  0  0  0
 15 14  1  0  0  0  0
 16 17  2  0  0  0  0
 16 18  1  0  0  0  0
 19 21  1  0  0  0  0
 20 19  1  0  0  0  0
 22 19  1  0  0  0  0
 23  2  1  0  0  0  0
 24 23  1  0  0  0  0
 25 23  2  0  0  0  0
M  END
>  <MODEL>
1

>  <REMARK>
 VINA RESULT:      -5.8      0.000      0.000
  Name = BDB5257
                            x       y       z     vdW  Elec       q    Type
                         _______ _______ _______ _____ _____    ______ ____

>  <TORSDO>
F 4

>  <vina_score>
-5.8

$$$$
BDB4983
 OpenBabel12261618033D

 22 22  0  0  1  0  0  0  0  0999 V2000
  -31.5020   12.9910  -17.4280 C   0  0  0  0  0  0  0  0  0  0  0  0
  -32.8230   12.6910  -17.4920 C   0  0  0  0  0  0  0  0  0  0  0  0
  -33.6180   12.6730  -18.8120 C   0  0  0  0  0  0  0  0  0  0  0  0
  -32.7140   12.4860  -20.0370 C   0  0  1  0  0  0  0  0  0  0  0  0
  -31.5510   13.5260  -19.9300 C   0  0  2  0  0  0  0  0  0  0  0  0
  -30.6690   13.2990  -18.6500 C   0  0  2  0  0  0  0  0  0  0  0  0
  -32.1690   14.8970  -20.1390 N   0  0  0  0  0  0  0  0  0  0  0  0
  -33.1360   14.8740  -20.3210 H   0  0  0  0  0  0  0  0  0  0  0  0
  -31.6010   16.2450  -20.1230 C   0  0  0  0  0  0  0  0  0  0  0  0
  -32.4040   17.1770  -20.2470 O   0  0  0  0  0  0  0  0  0  0  0  0
  -30.1540   16.6180  -20.0110 C   0  0  0  0  0  0  0  0  0  0  0  0
  -32.3190   11.0820  -20.0950 N   0  0  0  0  0  0  0  0  0  0  0  0
  -32.5410   10.7040  -21.0170 H   0  0  0  0  0  0  0  0  0  0  0  0
  -31.3170   11.0030  -19.9280 H   0  0  0  0  0  0  0  0  0  0  0  0
  -32.8260   10.5570  -19.3830 H   0  0  0  0  0  0  0  0  0  0  0  0
  -33.5180   12.4800  -16.2260 C   0  0  0  0  0  0  0  0  0  0  0  0
  -33.8580   11.2160  -15.8550 O   0  0  0  0  0  0  0  0  0  0  0  0
  -33.8380   13.4360  -15.5260 O   0  0  0  0  0  0  0  0  0  0  0  0
  -29.7000   12.2250  -18.8880 O   0  0  0  0  0  0  0  0  0  0  0  0
  -28.9070   12.3390  -20.0730 C   0  0  0  0  0  0  0  0  0  0  0  0
  -27.7540   13.3170  -19.7340 C   0  0  0  0  0  0  0  0  0  0  0  0
  -27.3110   14.0770  -20.9940 C   0  0  0  0  0  0  0  0  0  0  0  0
  2  1  2  0  0  0  0
  2 16  1  0  0  0  0
  3  2  1  0  0  0  0
  4 12  1  1  0  0  0
  4  5  1  0  0  0  0
  4  3  1  0  0  0  0
  5  7  1  1  0  0  0
  5  6  1  0  0  0  0
  6 19  1  6  0  0  0
  6  1  1  0  0  0  0
  7  9  1  0  0  0  0
  8  7  1  0  0  0  0
  9 11  1  0  0  0  0
 10  9  2  0  0  0  0
 12 14  1  0  0  0  0
 12 15  1  0  0  0  0
 13 12  1  0  0  0  0
 16 17  2  0  0  0  0
 16 18  1  0  0  0  0
 20 21  1  0  0  0  0
 20 19  1  0  0  0  0
 22 21  1  0  0  0  0
M  END
>  <MODEL>
1

>  <REMARK>
 VINA RESULT:      -5.7      0.000      0.000
  Name = BDB4983
                            x       y       z     vdW  Elec       q    Type
                         _______ _______ _______ _____ _____    ______ ____

>  <TORSDO>
F 6

>  <vina_score>
-5.7

$$$$
BDB4937
 OpenBabel12261618013D

 25 25  0  0  1  0  0  0  0  0999 V2000
  -33.0750   12.8680  -17.0940 C   0  0  0  0  0  0  0  0  0  0  0  0
  -33.7570   13.0510  -18.2300 C   0  0  0  0  0  0  0  0  0  0  0  0
  -33.0640   13.3530  -19.5090 C   0  0  1  0  0  0  0  0  0  0  0  0
  -31.6630   12.7690  -19.4550 C   0  0  2  0  0  0  0  0  0  0  0  0
  -31.0060   13.3880  -18.2350 C   0  0  1  0  0  0  0  0  0  0  0  0
  -31.6590   12.9560  -17.0200 O   0  0  0  0  0  0  0  0  0  0  0  0
  -30.9390   13.1730  -20.6670 N   0  0  0  0  0  0  0  0  0  0  0  0
  -30.9370   14.1350  -20.8830 H   0  0  0  0  0  0  0  0  0  0  0  0
  -30.2350   12.3050  -21.5720 C   0  0  0  0  0  0  0  0  0  0  0  0
  -29.6750   12.8100  -22.5520 O   0  0  0  0  0  0  0  0  0  0  0  0
  -30.1410   10.8030  -21.3850 C   0  0  0  0  0  0  0  0  0  0  0  0
  -33.8090   12.7920  -20.6450 N   0  0  0  0  0  0  0  0  0  0  0  0
  -34.5920   13.4050  -20.8730 H   0  0  0  0  0  0  0  0  0  0  0  0
  -33.1920   12.7160  -21.4530 H   0  0  0  0  0  0  0  0  0  0  0  0
  -34.1620   11.8680  -20.3970 H   0  0  0  0  0  0  0  0  0  0  0  0
  -33.8180   12.5230  -15.8800 C   0  0  0  0  0  0  0  0  0  0  0  0
  -34.0580   11.2210  -15.5770 O   0  0  0  0  0  0  0  0  0  0  0  0
  -34.2280   13.4180  -15.1320 O   0  0  0  0  0  0  0  0  0  0  0  0
  -29.5260   12.9940  -18.1670 C   0  0  0  0  0  0  0  0  0  0  0  0
  -29.2490   11.7900  -18.1130 O   0  0  0  0  0  0  0  0  0  0  0  0
  -28.4480   13.9310  -18.1370 N   0  0  0  0  0  0  0  0  0  0  0  0
  -28.6580   15.3600  -18.0740 C   0  0  0  0  0  0  0  0  0  0  0  0
  -29.0010   15.9040  -19.4780 C   0  0  0  0  0  0  0  0  0  0  0  0
  -27.1010   13.4190  -18.1150 C   0  0  0  0  0  0  0  0  0  0  0  0
  -26.6390   13.0530  -19.5410 C   0  0  0  0  0  0  0  0  0  0  0  0
  1  6  1  0  0  0  0
  1 16  1  0  0  0  0
  2  1  2  0  0  0  0
  3 12  1  6  0  0  0
  3  4  1  0  0  0  0
  3  2  1  0  0  0  0
  4  7  1  6  0  0  0
  4  5  1  0  0  0  0
  5 19  1  1  0  0  0
  5  6  1  0  0  0  0
  8  7  1  0  0  0  0
  9 11  1  0  0  0  0
  9  7  1  0  0  0  0
 10  9  2  0  0  0  0
 12 15  1  0  0  0  0
 13 12  1  0  0  0  0
 14 12  1  0  0  0  0
 16 17  2  0  0  0  0
 16 18  1  0  0  0  0
 19 21  1  0  0  0  0
 19 20  2  0  0  0  0
 21 24  1  0  0  0  0
 21 22  1  0  0  0  0
 23 22  1  0  0  0  0
 25 24  1  0  0  0  0
M  END
>  <MODEL>
1

>  <REMARK>
 VINA RESULT:      -5.5      0.000      0.000
  Name = BDB4937
                            x       y       z     vdW  Elec       q    Type
                         _______ _______ _______ _____ _____    ______ ____

>  <TORSDO>
F 6

>  <vina_score>
-5.5

$$$$
BDB5228
 OpenBabel12261618053D

 29 30  0  0  1  0  0  0  0  0999 V2000
  -31.1800   13.9640  -19.9420 C   0  0  0  0  0  0  0  0  0  0  0  0
  -30.2690   14.2440  -18.9860 C   0  0  0  0  0  0  0  0  0  0  0  0
  -30.1220   13.4440  -17.6480 C   0  0  0  0  0  0  0  0  0  0  0  0
  -30.7710   12.0680  -17.7130 C   0  0  1  0  0  0  0  0  0  0  0  0
  -32.1620   12.2160  -18.3840 C   0  0  2  0  0  0  0  0  0  0  0  0
  -32.1090   12.7900  -19.8790 C   0  0  2  0  0  0  0  0  0  0  0  0
  -33.0910   12.9700  -17.4080 N   0  0  0  0  0  0  0  0  0  0  0  0
  -33.1600   13.9330  -17.6020 H   0  0  0  0  0  0  0  0  0  0  0  0
  -33.9050   12.5470  -16.2390 C   0  0  0  0  0  0  0  0  0  0  0  0
  -34.6680   13.4000  -15.7740 O   0  0  0  0  0  0  0  0  0  0  0  0
  -33.8700   11.2390  -15.5050 C   0  0  0  0  0  0  0  0  0  0  0  0
  -29.8650   11.2250  -18.3970 N   0  0  0  0  0  0  0  0  0  0  0  0
  -29.5450   10.4890  -17.7680 H   0  0  0  0  0  0  0  0  0  0  0  0
  -30.3310   10.8060  -19.2010 H   0  0  0  0  0  0  0  0  0  0  0  0
  -29.0650   11.7720  -18.7140 H   0  0  0  0  0  0  0  0  0  0  0  0
  -29.4780   15.4490  -19.1580 C   0  0  0  0  0  0  0  0  0  0  0  0
  -28.3800   15.6510  -18.3920 O   0  0  0  0  0  0  0  0  0  0  0  0
  -29.8570   16.3220  -19.9470 O   0  0  0  0  0  0  0  0  0  0  0  0
  -31.6980   11.8230  -21.0410 N   0  0  0  0  0  0  0  0  0  0  0  0
  -31.6380   12.4870  -21.8130 H   0  0  0  0  0  0  0  0  0  0  0  0
  -32.7420   10.8330  -21.3760 C   0  0  0  0  0  0  0  0  0  0  0  0
  -30.3060   11.2730  -21.0820 C   0  0  0  0  0  0  0  0  0  0  0  0
  -29.4460   11.8270  -22.2550 C   0  0  0  0  0  0  0  0  0  0  0  0
  -28.3360   12.7260  -21.6980 C   0  0  0  0  0  0  0  0  0  0  0  0
  -28.0090   13.9230  -22.3400 C   0  0  0  0  0  0  0  0  0  0  0  0
  -26.9850   14.7190  -21.8470 C   0  0  0  0  0  0  0  0  0  0  0  0
  -26.2680   14.3270  -20.7170 C   0  0  0  0  0  0  0  0  0  0  0  0
  -26.5880   13.1410  -20.0790 C   0  0  0  0  0  0  0  0  0  0  0  0
  -27.6240   12.3490  -20.5720 C   0  0  0  0  0  0  0  0  0  0  0  0
  1  6  1  0  0  0  0
  1  2  2  0  0  0  0
  2  3  1  0  0  0  0
  4 12  1  6  0  0  0
  4  3  1  0  0  0  0
  5  4  1  0  0  0  0
  5  7  1  1  0  0  0
  6 19  1  6  0  0  0
  6  5  1  0  0  0  0
  7  9  1  0  0  0  0
  8  7  1  0  0  0  0
  9 10  2  0  0  0  0
  9 11  1  0  0  0  0
 12 13  1  0  0  0  0
 14 12  1  0  0  0  0
 15 12  1  0  0  0  0
 16  2  1  0  0  0  0
 16 17  1  0  0  0  0
 18 16  2  0  0  0  0
 20 19  1  0  0  0  0
 21 19  1  0  0  0  0
 22 19  1  0  0  0  0
 23 24  1  0  0  0  0
 23 22  1  0  0  0  0
 24 29  2  0  0  0  0
 25 26  2  0  0  0  0
 25 24  1  0  0  0  0
 26 27  1  0  0  0  0
 27 28  2  0  0  0  0
 29 28  1  0  0  0  0
M  END
>  <MODEL>
1

>  <REMARK>
 VINA RESULT:      -5.5      0.000      0.000
  Name = BDB5228
                            x       y       z     vdW  Elec       q    Type
                         _______ _______ _______ _____ _____    ______ ____

>  <TORSDO>
F 7

>  <vina_score>
-5.5

$$$$
BDB5204
 OpenBabel12261618003D

 23 23  0  0  1  0  0  0  0  0999 V2000
  -30.8640   12.7870  -16.6170 C   0  0  0  0  0  0  0  0  0  0  0  0
  -30.1010   13.2380  -17.8360 C   0  0  2  0  0  0  0  0  0  0  0  0
  -30.8400   12.4110  -18.8800 C   0  0  1  0  0  0  0  0  0  0  0  0
  -32.2780   12.6420  -18.5790 N   0  0  0  0  0  0  0  0  0  0  0  0
  -32.8510   11.8150  -18.7430 H   0  0  0  0  0  0  0  0  0  0  0  0
  -32.6590   13.3740  -19.1780 H   0  0  0  0  0  0  0  0  0  0  0  0
  -32.2840   13.0720  -17.1420 C   0  0  1  0  0  0  0  0  0  0  0  0
  -28.6420   12.8850  -17.7720 C   0  0  0  0  0  0  0  0  0  0  0  0
  -27.7290   13.8500  -17.6980 C   0  0  0  0  0  0  0  0  0  0  0  0
  -28.1560   15.2880  -17.6770 C   0  0  0  0  0  0  0  0  0  0  0  0
  -33.3390   12.3790  -16.3290 C   0  0  0  0  0  0  0  0  0  0  0  0
  -34.1380   13.0980  -15.4990 O   0  0  0  0  0  0  0  0  0  0  0  0
  -33.4750   11.1530  -16.4120 O   0  0  0  0  0  0  0  0  0  0  0  0
  -31.5360   12.9350  -20.2150 C   0  0  1  0  0  0  0  0  0  0  0  0
  -31.9080   14.3740  -19.8930 N   0  0  0  0  0  0  0  0  0  0  0  0
  -32.6210   14.3320  -19.2150 H   0  0  0  0  0  0  0  0  0  0  0  0
  -31.6770   15.7430  -20.1390 C   0  0  0  0  0  0  0  0  0  0  0  0
  -32.6150   16.4650  -20.4820 O   0  0  0  0  0  0  0  0  0  0  0  0
  -30.3000   16.3370  -19.9780 C   0  0  0  0  0  0  0  0  0  0  0  0
  -30.3170   13.0700  -21.3330 C   0  0  0  0  0  0  0  0  0  0  0  0
  -30.6750   11.5530  -21.3310 C   0  0  0  0  0  0  0  0  0  0  0  0
  -32.1100   11.3000  -21.8400 C   0  0  0  0  0  0  0  0  0  0  0  0
  -29.6950   10.8150  -22.2590 C   0  0  0  0  0  0  0  0  0  0  0  0
  2  8  1  1  0  0  0
  2  1  1  0  0  0  0
  3  4  1  1  0  0  0
  3  2  1  0  0  0  0
  4  7  1  0  0  0  0
  5  4  1  0  0  0  0
  6  4  1  0  0  0  0
  7  1  1  0  0  0  0
  7 11  1  1  0  0  0
  8  9  2  0  0  0  0
  9 10  1  0  0  0  0
 11 12  1  0  0  0  0
 13 11  2  0  0  0  0
 14 20  1  6  0  0  0
 14 15  1  0  0  0  0
 14  3  1  0  0  0  0
 15 16  1  0  0  0  0
 17 19  1  0  0  0  0
 17 15  1  0  0  0  0
 18 17  2  0  0  0  0
 20 21  1  0  0  0  0
 22 21  1  0  0  0  0
 23 21  1  0  0  0  0
M  END
>  <MODEL>
1

>  <REMARK>
 VINA RESULT:      -5.3      0.000      0.000
  Name = BDB5204
                            x       y       z     vdW  Elec       q    Type
                         _______ _______ _______ _____ _____    ______ ____

>  <TORSDO>
F 6

>  <vina_score>
-5.3

$$$$
BDB5200
 OpenBabel12261618003D

 26 27  0  0  1  0  0  0  0  0999 V2000
  -29.1980   15.0110  -20.3030 C   0  0  0  0  0  0  0  0  0  0  0  0
  -28.8630   13.5460  -20.4080 C   0  0  2  0  0  0  0  0  0  0  0  0
  -29.8710   13.0130  -19.3980 C   0  0  1  0  0  0  0  0  0  0  0  0
  -31.1490   13.6760  -19.7740 N   0  0  0  0  0  0  0  0  0  0  0  0
  -31.7260   13.9020  -18.9650 H   0  0  0  0  0  0  0  0  0  0  0  0
  -31.7140   13.0640  -20.3630 H   0  0  0  0  0  0  0  0  0  0  0  0
  -30.7170   14.8960  -20.5330 C   0  0  1  0  0  0  0  0  0  0  0  0
  -27.4440   13.2450  -19.9950 C   0  0  0  0  0  0  0  0  0  0  0  0
  -27.0090   13.2310  -18.7530 N   0  0  0  0  0  0  0  0  0  0  0  0
  -25.7720   12.9390  -18.7710 N   0  0  0  0  0  0  0  0  0  0  0  0
  -25.2040   12.8620  -17.9700 H   0  0  0  0  0  0  0  0  0  0  0  0
  -25.3480   12.7500  -20.0210 C   0  0  0  0  0  0  0  0  0  0  0  0
  -26.4290   12.9450  -20.8670 C   0  0  0  0  0  0  0  0  0  0  0  0
  -31.4510   16.1360  -20.1120 C   0  0  0  0  0  0  0  0  0  0  0  0
  -32.8030   16.1160  -19.9880 O   0  0  0  0  0  0  0  0  0  0  0  0
  -30.8230   17.1770  -19.8840 O   0  0  0  0  0  0  0  0  0  0  0  0
  -30.9600   11.8720  -19.6280 C   0  0  1  0  0  0  0  0  0  0  0  0
  -31.3820   11.4810  -18.2200 N   0  0  0  0  0  0  0  0  0  0  0  0
  -30.8010   10.7310  -17.9540 H   0  0  0  0  0  0  0  0  0  0  0  0
  -32.2400   11.7230  -17.1280 C   0  0  0  0  0  0  0  0  0  0  0  0
  -32.9310   10.8040  -16.6820 O   0  0  0  0  0  0  0  0  0  0  0  0
  -32.3150   13.0870  -16.4900 C   0  0  0  0  0  0  0  0  0  0  0  0
  -32.2910   12.6420  -20.2520 C   0  0  0  0  0  0  0  0  0  0  0  0
  -32.5270   11.1350  -20.5750 C   0  0  0  0  0  0  0  0  0  0  0  0
  -34.0290   10.8050  -20.7110 C   0  0  0  0  0  0  0  0  0  0  0  0
  -31.8360   10.8040  -21.9090 C   0  0  0  0  0  0  0  0  0  0  0  0
  2  1  1  0  0  0  0
  2  8  1  1  0  0  0
  2  3  1  0  0  0  0
  3  4  1  6  0  0  0
  4  5  1  0  0  0  0
  6 23  1  0  0  0  0
  7  1  1  0  0  0  0
  7 14  1  1  0  0  0
  7  4  1  0  0  0  0
  8  9  2  0  0  0  0
 10  9  1  0  0  0  0
 10 11  1  0  0  0  0
 12 10  1  0  0  0  0
 13 12  2  0  0  0  0
 13  8  1  0  0  0  0
 14 15  2  0  0  0  0
 14 16  1  0  0  0  0
 17 23  1  6  0  0  0
 17  3  1  0  0  0  0
 17 18  1  0  0  0  0
 18 19  1  0  0  0  0
 18 20  1  0  0  0  0
 20 21  2  0  0  0  0
 20 22  1  0  0  0  0
 24 23  1  0  0  0  0
 25 24  1  0  0  0  0
 26 24  1  0  0  0  0
M  END
>  <MODEL>
1

>  <REMARK>
 VINA RESULT:      -5.2      0.000      0.000
  Name = BDB5200
                            x       y       z     vdW  Elec       q    Type
                         _______ _______ _______ _____ _____    ______ ____

>  <TORSDO>
F 6

>  <vina_score>
-5.2

$$$$
BDB5013
 OpenBabel12261618003D

 29 29  0  0  1  0  0  0  0  0999 V2000
  -30.7780   13.9970  -18.8960 C   0  0  0  0  0  0  0  0  0  0  0  0
  -30.2460   14.8280  -19.8240 C   0  0  0  0  0  0  0  0  0  0  0  0
  -29.0600   14.4620  -20.6840 C   0  0  0  0  0  0  0  0  0  0  0  0
  -28.9020   12.9860  -20.8240 C   0  0  1  0  0  0  0  0  0  0  0  0
  -28.9610   12.3280  -19.3550 C   0  0  2  0  0  0  0  0  0  0  0  0
  -30.3060   12.5660  -18.6470 C   0  0  2  0  0  0  0  0  0  0  0  0
  -27.7550   12.7720  -18.4920 N   0  0  0  0  0  0  0  0  0  0  0  0
  -27.9750   12.8640  -17.5370 H   0  0  0  0  0  0  0  0  0  0  0  0
  -26.3330   13.0910  -18.7980 C   0  0  0  0  0  0  0  0  0  0  0  0
  -25.6440   13.4620  -17.8410 O   0  0  0  0  0  0  0  0  0  0  0  0
  -25.6260   13.0450  -20.1220 C   0  0  0  0  0  0  0  0  0  0  0  0
  -30.7870   16.1670  -19.9870 C   0  0  0  0  0  0  0  0  0  0  0  0
  -32.1300   16.3360  -20.1110 O   0  0  0  0  0  0  0  0  0  0  0  0
  -30.0330   17.1440  -20.0030 O   0  0  0  0  0  0  0  0  0  0  0  0
  -29.7810   12.5380  -22.0300 N   0  0  0  0  0  0  0  0  0  0  0  0
  -29.2980   12.5180  -22.8870 H   0  0  0  0  0  0  0  0  0  0  0  0
  -31.2360   12.1260  -22.1360 C   0  0  0  0  0  0  0  0  0  0  0  0
  -32.0960   13.0710  -22.1780 N   0  0  0  0  0  0  0  0  0  0  0  0
  -33.0540   12.8600  -22.2510 H   0  0  0  0  0  0  0  0  0  0  0  0
  -31.7990   14.0080  -22.1370 H   0  0  0  0  0  0  0  0  0  0  0  0
  -31.7980   10.8030  -22.2040 N   0  0  0  0  0  0  0  0  0  0  0  0
  -31.6630   10.2520  -23.0080 H   0  0  0  0  0  0  0  0  0  0  0  0
  -32.3180   10.4500  -21.4460 H   0  0  0  0  0  0  0  0  0  0  0  0
  -31.3980   11.5590  -18.9380 O   0  0  0  0  0  0  0  0  0  0  0  0
  -32.2460   11.0110  -17.8900 C   0  0  0  0  0  0  0  0  0  0  0  0
  -32.1230   11.9140  -16.5910 C   0  0  0  0  0  0  0  0  0  0  0  0
  -33.4230   12.6610  -16.1920 C   0  0  0  0  0  0  0  0  0  0  0  0
  -33.7200   11.0180  -18.4550 C   0  0  0  0  0  0  0  0  0  0  0  0
  -33.9860   12.0780  -19.5620 C   0  0  0  0  0  0  0  0  0  0  0  0
  1  6  1  0  0  0  0
  2  1  2  0  0  0  0
  3  2  1  0  0  0  0
  4 15  1  6  0  0  0
  4  3  1  0  0  0  0
  4  5  1  0  0  0  0
  5  6  1  0  0  0  0
  5  7  1  1  0  0  0
  6 24  1  6  0  0  0
  7  8  1  0  0  0  0
  9  7  1  0  0  0  0
  9 10  2  0  0  0  0
 11  9  1  0  0  0  0
 12  2  1  0  0  0  0
 13 12  2  0  0  0  0
 14 12  1  0  0  0  0
 16 15  1  0  0  0  0
 17 15  1  0  0  0  0
 18 20  1  0  0  0  0
 18 17  1  0  0  0  0
 19 18  1  0  0  0  0
 21 17  2  0  0  0  0
 21 23  1  0  0  0  0
 22 21  1  0  0  0  0
 24 25  1  0  0  0  0
 25 26  1  0  0  0  0
 26 27  1  0  0  0  0
 28 25  1  0  0  0  0
 29 28  1  0  0  0  0
M  END
>  <MODEL>
1

>  <REMARK>
 VINA RESULT:      -5.2      0.000      0.000
  Name = BDB5013
                            x       y       z     vdW  Elec       q    Type
                         _______ _______ _______ _____ _____    ______ ____

>  <TORSDO>
F 9

>  <vina_score>
-5.2

$$$$
BDB5198
 OpenBabel12261618003D

 25 26  0  0  1  0  0  0  0  0999 V2000
  -33.7820   12.0040  -19.2000 C   0  0  0  0  0  0  0  0  0  0  0  0
  -33.1760   12.8700  -18.1270 C   0  0  2  0  0  0  0  0  0  0  0  0
  -31.7150   12.4950  -18.3350 C   0  0  1  0  0  0  0  0  0  0  0  0
  -31.5150   12.6070  -19.8040 N   0  0  0  0  0  0  0  0  0  0  0  0
  -30.8720   11.9040  -20.1680 H   0  0  0  0  0  0  0  0  0  0  0  0
  -31.1110   13.5120  -20.0460 H   0  0  0  0  0  0  0  0  0  0  0  0
  -32.8970   12.4720  -20.3710 C   0  0  1  0  0  0  0  0  0  0  0  0
  -33.6560   12.5060  -16.7490 C   0  0  0  0  0  0  0  0  0  0  0  0
  -33.5410   10.9600  -16.1400 S   0  0  0  0  0  0  0  0  0  0  0  0
  -34.2410   11.4330  -14.6910 C   0  0  0  0  0  0  0  0  0  0  0  0
  -34.5390   12.7940  -14.7460 C   0  0  0  0  0  0  0  0  0  0  0  0
  -34.2020   13.3650  -15.9030 N   0  0  0  0  0  0  0  0  0  0  0  0
  -32.9600   11.5330  -21.5410 C   0  0  0  0  0  0  0  0  0  0  0  0
  -31.9360   11.4900  -22.4320 O   0  0  0  0  0  0  0  0  0  0  0  0
  -33.9460   10.8040  -21.6950 O   0  0  0  0  0  0  0  0  0  0  0  0
  -30.4880   13.4820  -18.5830 C   0  0  1  0  0  0  0  0  0  0  0  0
  -31.1490   14.8050  -18.9400 N   0  0  0  0  0  0  0  0  0  0  0  0
  -31.8210   14.9780  -18.2410 H   0  0  0  0  0  0  0  0  0  0  0  0
  -31.2210   15.8920  -19.8350 C   0  0  0  0  0  0  0  0  0  0  0  0
  -32.2990   16.1780  -20.3600 O   0  0  0  0  0  0  0  0  0  0  0  0
  -29.9980   16.7170  -20.1490 C   0  0  0  0  0  0  0  0  0  0  0  0
  -29.8210   13.7520  -17.0880 C   0  0  0  0  0  0  0  0  0  0  0  0
  -28.6860   14.1200  -18.0910 C   0  0  0  0  0  0  0  0  0  0  0  0
  -27.7710   15.2350  -17.5410 C   0  0  0  0  0  0  0  0  0  0  0  0
  -27.8270   12.8690  -18.3420 C   0  0  0  0  0  0  0  0  0  0  0  0
  1  2  1  0  0  0  0
  2  8  1  1  0  0  0
  3  4  1  6  0  0  0
  3  2  1  0  0  0  0
  5  4  1  0  0  0  0
  6  4  1  0  0  0  0
  7 13  1  6  0  0  0
  7  4  1  0  0  0  0
  7  1  1  0  0  0  0
  8  9  1  0  0  0  0
  8 12  2  0  0  0  0
  9 10  1  0  0  0  0
 11 10  2  0  0  0  0
 12 11  1  0  0  0  0
 14 13  2  0  0  0  0
 15 13  1  0  0  0  0
 16 17  1  1  0  0  0
 16  3  1  0  0  0  0
 16 22  1  0  0  0  0
 17 18  1  0  0  0  0
 19 17  1  0  0  0  0
 20 19  2  0  0  0  0
 21 19  1  0  0  0  0
 23 24  1  0  0  0  0
 23 22  1  0  0  0  0
 25 23  1  0  0  0  0
M  END
>  <MODEL>
1

>  <REMARK>
 VINA RESULT:      -5.1      0.000      0.000
  Name = BDB5198
                            x       y       z     vdW  Elec       q    Type
                         _______ _______ _______ _____ _____    ______ ____

>  <TORSDO>
F 6

>  <vina_score>
-5.1

$$$$
BDB4932
 OpenBabel12261618023D

 28 28  0  0  1  0  0  0  0  0999 V2000
  -32.3830   13.0460  -17.3480 C   0  0  0  0  0  0  0  0  0  0  0  0
  -32.9570   13.4100  -18.5000 C   0  0  0  0  0  0  0  0  0  0  0  0
  -32.1450   13.8390  -19.6670 C   0  0  1  0  0  0  0  0  0  0  0  0
  -30.7790   13.1820  -19.5810 C   0  0  2  0  0  0  0  0  0  0  0  0
  -30.2050   13.6030  -18.2410 C   0  0  1  0  0  0  0  0  0  0  0  0
  -30.9750   13.0520  -17.1510 O   0  0  0  0  0  0  0  0  0  0  0  0
  -29.9390   13.7030  -20.6680 N   0  0  0  0  0  0  0  0  0  0  0  0
  -29.8350   14.6810  -20.7190 H   0  0  0  0  0  0  0  0  0  0  0  0
  -29.2540   12.9260  -21.6650 C   0  0  0  0  0  0  0  0  0  0  0  0
  -28.5840   13.5230  -22.5150 O   0  0  0  0  0  0  0  0  0  0  0  0
  -29.3090   11.4120  -21.7280 C   0  0  0  0  0  0  0  0  0  0  0  0
  -28.7560   13.1320  -18.1090 C   0  0  0  0  0  0  0  0  0  0  0  0
  -28.5360   11.9180  -18.0720 O   0  0  0  0  0  0  0  0  0  0  0  0
  -27.6480   14.0280  -18.0140 N   0  0  0  0  0  0  0  0  0  0  0  0
  -27.8040   15.4620  -18.0010 C   0  0  0  0  0  0  0  0  0  0  0  0
  -26.3270   13.4770  -17.9060 C   0  0  0  0  0  0  0  0  0  0  0  0
  -33.2400   12.5860  -16.2530 C   0  0  0  0  0  0  0  0  0  0  0  0
  -33.5470   11.2680  -16.1400 O   0  0  0  0  0  0  0  0  0  0  0  0
  -33.6840   13.3980  -15.4330 O   0  0  0  0  0  0  0  0  0  0  0  0
  -32.8050   13.4730  -20.9060 N   0  0  0  0  0  0  0  0  0  0  0  0
  -32.7330   14.0810  -21.6770 H   0  0  0  0  0  0  0  0  0  0  0  0
  -33.5470   12.2780  -21.0540 C   0  0  0  0  0  0  0  0  0  0  0  0
  -34.8120   12.3170  -20.9500 N   0  0  0  0  0  0  0  0  0  0  0  0
  -35.3390   11.4920  -21.0510 H   0  0  0  0  0  0  0  0  0  0  0  0
  -35.2660   13.1720  -20.7700 H   0  0  0  0  0  0  0  0  0  0  0  0
  -32.9170   11.0530  -21.3110 N   0  0  0  0  0  0  0  0  0  0  0  0
  -32.1380   10.7770  -20.7760 H   0  0  0  0  0  0  0  0  0  0  0  0
  -33.2540   10.4680  -22.0270 H   0  0  0  0  0  0  0  0  0  0  0  0
  1  6  1  0  0  0  0
  1 17  1  0  0  0  0
  2  1  2  0  0  0  0
  3 20  1  6  0  0  0
  3  4  1  0  0  0  0
  3  2  1  0  0  0  0
  4  7  1  6  0  0  0
  4  5  1  0  0  0  0
  5 12  1  1  0  0  0
  5  6  1  0  0  0  0
  8  7  1  0  0  0  0
  9  7  1  0  0  0  0
 10  9  2  0  0  0  0
 11  9  1  0  0  0  0
 12 13  2  0  0  0  0
 12 14  1  0  0  0  0
 14 15  1  0  0  0  0
 14 16  1  0  0  0  0
 17 18  2  0  0  0  0
 17 19  1  0  0  0  0
 21 20  1  0  0  0  0
 22 23  1  0  0  0  0
 22 20  1  0  0  0  0
 23 25  1  0  0  0  0
 24 23  1  0  0  0  0
 26 22  2  0  0  0  0
 26 27  1  0  0  0  0
 28 26  1  0  0  0  0
M  END
>  <MODEL>
1

>  <REMARK>
 VINA RESULT:      -5.0      0.000      0.000
  Name = BDB4932
                            x       y       z     vdW  Elec       q    Type
                         _______ _______ _______ _____ _____    ______ ____

>  <TORSDO>
F 6

>  <vina_score>
-5.0

$$$$
BDB4942
 OpenBabel12261618013D

 30 30  0  0  1  0  0  0  0  0999 V2000
  -32.8510   12.8370  -17.0600 C   0  0  0  0  0  0  0  0  0  0  0  0
  -33.5400   13.0450  -18.1870 C   0  0  0  0  0  0  0  0  0  0  0  0
  -32.8570   13.3880  -19.4610 C   0  0  1  0  0  0  0  0  0  0  0  0
  -31.4510   12.8150  -19.4300 C   0  0  2  0  0  0  0  0  0  0  0  0
  -30.7930   13.4060  -18.1970 C   0  0  1  0  0  0  0  0  0  0  0  0
  -31.4360   12.9360  -16.9910 O   0  0  0  0  0  0  0  0  0  0  0  0
  -30.7370   13.2590  -20.6340 N   0  0  0  0  0  0  0  0  0  0  0  0
  -30.7780   14.2200  -20.8460 H   0  0  0  0  0  0  0  0  0  0  0  0
  -29.9850   12.4290  -21.5370 C   0  0  0  0  0  0  0  0  0  0  0  0
  -29.4420   12.9640  -22.5100 O   0  0  0  0  0  0  0  0  0  0  0  0
  -29.8230   10.9320  -21.3560 C   0  0  0  0  0  0  0  0  0  0  0  0
  -33.5850   12.4530  -15.8520 C   0  0  0  0  0  0  0  0  0  0  0  0
  -33.8450   11.1430  -15.6030 O   0  0  0  0  0  0  0  0  0  0  0  0
  -33.9680   13.3220  -15.0600 O   0  0  0  0  0  0  0  0  0  0  0  0
  -29.3090   13.0240  -18.1470 C   0  0  0  0  0  0  0  0  0  0  0  0
  -29.0220   11.8230  -18.0760 O   0  0  0  0  0  0  0  0  0  0  0  0
  -28.2370   13.9680  -18.1520 N   0  0  0  0  0  0  0  0  0  0  0  0
  -28.4560   15.3970  -18.1090 C   0  0  0  0  0  0  0  0  0  0  0  0
  -28.8870   15.9040  -19.5030 C   0  0  0  0  0  0  0  0  0  0  0  0
  -26.8870   13.4660  -18.1430 C   0  0  0  0  0  0  0  0  0  0  0  0
  -26.4320   13.1130  -19.5760 C   0  0  0  0  0  0  0  0  0  0  0  0
  -33.5930   12.8570  -20.5920 N   0  0  0  0  0  0  0  0  0  0  0  0
  -33.9350   13.4860  -21.2690 H   0  0  0  0  0  0  0  0  0  0  0  0
  -33.8420   11.4760  -20.7630 C   0  0  0  0  0  0  0  0  0  0  0  0
  -33.1530   10.8200  -21.6040 N   0  0  0  0  0  0  0  0  0  0  0  0
  -33.3170    9.8580  -21.7310 H   0  0  0  0  0  0  0  0  0  0  0  0
  -32.4540   11.2730  -22.1280 H   0  0  0  0  0  0  0  0  0  0  0  0
  -34.8330   10.8150  -20.0240 N   0  0  0  0  0  0  0  0  0  0  0  0
  -35.7620   11.1420  -20.0430 H   0  0  0  0  0  0  0  0  0  0  0  0
  -34.6010   10.0240  -19.4880 H   0  0  0  0  0  0  0  0  0  0  0  0
  1  6  1  0  0  0  0
  1 12  1  0  0  0  0
  2  1  2  0  0  0  0
  3 22  1  6  0  0  0
  3  4  1  0  0  0  0
  3  2  1  0  0  0  0
  4  7  1  6  0  0  0
  4  5  1  0  0  0  0
  5 15  1  1  0  0  0
  5  6  1  0  0  0  0
  8  7  1  0  0  0  0
  9 11  1  0  0  0  0
  9  7  1  0  0  0  0
 10  9  2  0  0  0  0
 12 13  2  0  0  0  0
 12 14  1  0  0  0  0
 15 16  2  0  0  0  0
 17 15  1  0  0  0  0
 17 20  1  0  0  0  0
 17 18  1  0  0  0  0
 19 18  1  0  0  0  0
 21 20  1  0  0  0  0
 23 22  1  0  0  0  0
 24 22  1  0  0  0  0
 24 28  1  0  0  0  0
 25 24  2  0  0  0  0
 26 25  1  0  0  0  0
 27 25  1  0  0  0  0
 28 30  1  0  0  0  0
 29 28  1  0  0  0  0
M  END
>  <MODEL>
1

>  <REMARK>
 VINA RESULT:      -4.9      0.000      0.000
  Name = BDB4942
                            x       y       z     vdW  Elec       q    Type
                         _______ _______ _______ _____ _____    ______ ____

>  <TORSDO>
F 8

>  <vina_score>
-4.9

$$$$
BDB5244
 OpenBabel12261618053D

 30 30  0  0  1  0  0  0  0  0999 V2000
  -30.9420   12.1080  -19.1140 C   0  0  2  0  0  0  0  0  0  0  0  0
  -31.6780   13.2970  -18.5300 C   0  0  2  0  0  0  0  0  0  0  0  0
  -30.7980   13.9150  -17.4530 C   0  0  0  0  0  0  0  0  0  0  0  0
  -29.4440   14.2060  -18.0390 C   0  0  0  0  0  0  0  0  0  0  0  0
  -29.0010   13.5570  -19.0460 N   0  0  0  0  0  0  0  0  0  0  0  0
  -29.6880   12.5600  -19.6410 N   0  0  0  0  0  0  0  0  0  0  0  0
  -29.1460   11.9260  -20.7650 C   0  0  0  0  0  0  0  0  0  0  0  0
  -29.7420   10.9740  -21.2800 O   0  0  0  0  0  0  0  0  0  0  0  0
  -31.7370   11.4940  -20.1750 N   0  0  0  0  0  0  0  0  0  0  0  0
  -31.7970   10.5110  -20.1890 H   0  0  0  0  0  0  0  0  0  0  0  0
  -32.4320   12.2140  -21.1920 C   0  0  0  0  0  0  0  0  0  0  0  0
  -33.0470   11.5770  -22.0560 O   0  0  0  0  0  0  0  0  0  0  0  0
  -32.4580   13.7240  -21.2490 C   0  0  0  0  0  0  0  0  0  0  0  0
  -28.6140   15.2480  -17.4370 C   0  0  0  0  0  0  0  0  0  0  0  0
  -27.5890   15.7920  -18.1430 O   0  0  0  0  0  0  0  0  0  0  0  0
  -28.8450   15.6330  -16.2850 O   0  0  0  0  0  0  0  0  0  0  0  0
  -32.9420   12.8760  -17.9590 N   0  0  0  0  0  0  0  0  0  0  0  0
  -33.7690   13.0460  -18.4660 H   0  0  0  0  0  0  0  0  0  0  0  0
  -33.0380   12.2320  -16.7040 C   0  0  0  0  0  0  0  0  0  0  0  0
  -33.5970   12.8370  -15.7370 N   0  0  0  0  0  0  0  0  0  0  0  0
  -33.6700   12.3990  -14.8580 H   0  0  0  0  0  0  0  0  0  0  0  0
  -33.9590   13.7440  -15.8650 H   0  0  0  0  0  0  0  0  0  0  0  0
  -32.5300   10.9420  -16.5040 N   0  0  0  0  0  0  0  0  0  0  0  0
  -33.0000   10.1640  -16.8810 H   0  0  0  0  0  0  0  0  0  0  0  0
  -31.7030   10.8140  -15.9860 H   0  0  0  0  0  0  0  0  0  0  0  0
  -27.8370   12.3900  -21.3440 C   0  0  0  0  0  0  0  0  0  0  0  0
  -26.9840   13.0490  -20.2350 C   0  0  0  0  0  0  0  0  0  0  0  0
  -25.4970   12.6820  -20.4250 C   0  0  0  0  0  0  0  0  0  0  0  0
  -28.1080   13.4030  -22.4780 C   0  0  0  0  0  0  0  0  0  0  0  0
  -27.6290   14.8060  -22.0510 C   0  0  0  0  0  0  0  0  0  0  0  0
  1  9  1  6  0  0  0
  1  2  1  0  0  0  0
  2 17  1  1  0  0  0
  2  3  1  0  0  0  0
  4  3  1  0  0  0  0
  4 14  1  0  0  0  0
  5  4  2  0  0  0  0
  6  1  1  0  0  0  0
  6  5  1  0  0  0  0
  7  6  1  0  0  0  0
  8  7  2  0  0  0  0
 10  9  1  0  0  0  0
 11  9  1  0  0  0  0
 12 11  2  0  0  0  0
 13 11  1  0  0  0  0
 14 16  1  0  0  0  0
 15 14  2  0  0  0  0
 17 19  1  0  0  0  0
 18 17  1  0  0  0  0
 19 23  2  0  0  0  0
 19 20  1  0  0  0  0
 20 21  1  0  0  0  0
 22 20  1  0  0  0  0
 23 25  1  0  0  0  0
 24 23  1  0  0  0  0
 26  7  1  0  0  0  0
 26 27  1  0  0  0  0
 28 27  1  0  0  0  0
 29 30  1  0  0  0  0
 29 26  1  0  0  0  0
M  END
>  <MODEL>
1

>  <REMARK>
 VINA RESULT:      -4.4      0.000      0.000
  Name = BDB5244
                            x       y       z     vdW  Elec       q    Type
                         _______ _______ _______ _____ _____    ______ ____

>  <TORSDO>
F 8

>  <vina_score>
-4.4

$$$$
BDB5199
 OpenBabel12261618003D

 26 27  0  0  1  0  0  0  0  0999 V2000
  -30.2530   12.9130  -16.7260 C   0  0  0  0  0  0  0  0  0  0  0  0
  -31.4350   12.3630  -17.4810 C   0  0  2  0  0  0  0  0  0  0  0  0
  -31.6290   13.5120  -18.4610 C   0  0  1  0  0  0  0  0  0  0  0  0
  -30.2630   13.7750  -18.9890 N   0  0  0  0  0  0  0  0  0  0  0  0
  -30.0950   14.7650  -19.1660 H   0  0  0  0  0  0  0  0  0  0  0  0
  -30.1230   13.3010  -19.8810 H   0  0  0  0  0  0  0  0  0  0  0  0
  -29.3520   13.2140  -17.9380 C   0  0  1  0  0  0  0  0  0  0  0  0
  -32.6420   12.1660  -16.6050 C   0  0  0  0  0  0  0  0  0  0  0  0
  -33.3240   13.1560  -16.0660 N   0  0  0  0  0  0  0  0  0  0  0  0
  -34.3050   12.5980  -15.3680 C   0  0  0  0  0  0  0  0  0  0  0  0
  -34.1870   11.2190  -15.5100 C   0  0  0  0  0  0  0  0  0  0  0  0
  -33.1380   10.9880  -16.2890 N   0  0  0  0  0  0  0  0  0  0  0  0
  -32.7970   10.1090  -16.5730 H   0  0  0  0  0  0  0  0  0  0  0  0
  -28.2220   14.1400  -17.5900 C   0  0  0  0  0  0  0  0  0  0  0  0
  -26.9380   13.7590  -17.8120 O   0  0  0  0  0  0  0  0  0  0  0  0
  -28.4630   15.2470  -17.0950 O   0  0  0  0  0  0  0  0  0  0  0  0
  -31.6990   13.4270  -20.0510 C   0  0  1  0  0  0  0  0  0  0  0  0
  -31.1310   14.7600  -20.5150 N   0  0  0  0  0  0  0  0  0  0  0  0
  -30.5780   14.5660  -21.3050 H   0  0  0  0  0  0  0  0  0  0  0  0
  -31.0510   16.1520  -20.3070 C   0  0  0  0  0  0  0  0  0  0  0  0
  -29.9470   16.6850  -20.1790 O   0  0  0  0  0  0  0  0  0  0  0  0
  -32.2970   16.9990  -20.2520 C   0  0  0  0  0  0  0  0  0  0  0  0
  -30.5460   12.3180  -20.4920 C   0  0  0  0  0  0  0  0  0  0  0  0
  -31.6980   12.1110  -21.5220 C   0  0  0  0  0  0  0  0  0  0  0  0
  -31.3170   11.0860  -22.6120 C   0  0  0  0  0  0  0  0  0  0  0  0
  -32.9360   11.5860  -20.7760 C   0  0  0  0  0  0  0  0  0  0  0  0
  2  1  1  0  0  0  0
  2  8  1  1  0  0  0
  3  4  1  6  0  0  0
  3  2  1  0  0  0  0
  4  7  1  0  0  0  0
  5  4  1  0  0  0  0
  6  4  1  0  0  0  0
  7 14  1  1  0  0  0
  7  1  1  0  0  0  0
  8 12  1  0  0  0  0
  8  9  2  0  0  0  0
  9 10  1  0  0  0  0
 11 10  2  0  0  0  0
 12 11  1  0  0  0  0
 13 12  1  0  0  0  0
 14 16  1  0  0  0  0
 15 14  2  0  0  0  0
 17 18  1  6  0  0  0
 17  3  1  0  0  0  0
 18 20  1  0  0  0  0
 19 18  1  0  0  0  0
 20 22  1  0  0  0  0
 20 21  2  0  0  0  0
 23 17  1  0  0  0  0
 24 26  1  0  0  0  0
 24 23  1  0  0  0  0
 25 24  1  0  0  0  0
M  END
>  <MODEL>
1

>  <REMARK>
 VINA RESULT:      -4.4      0.000      0.000
  Name = BDB5199
                            x       y       z     vdW  Elec       q    Type
                         _______ _______ _______ _____ _____    ______ ____

>  <TORSDO>
F 6

>  <vina_score>
-4.4

$$$$
BDB5003
 OpenBabel12261618013D

 30 31  0  0  1  0  0  0  0  0999 V2000
  -31.1450   13.8300  -19.6960 C   0  0  0  0  0  0  0  0  0  0  0  0
  -30.5050   14.9240  -19.2390 C   0  0  0  0  0  0  0  0  0  0  0  0
  -29.7070   14.9740  -17.8980 C   0  0  0  0  0  0  0  0  0  0  0  0
  -29.3250   13.5910  -17.3770 C   0  0  1  0  0  0  0  0  0  0  0  0
  -30.5440   12.6330  -17.5220 C   0  0  2  0  0  0  0  0  0  0  0  0
  -31.0950   12.4880  -19.0230 C   0  0  2  0  0  0  0  0  0  0  0  0
  -31.5750   13.0540  -16.4600 N   0  0  0  0  0  0  0  0  0  0  0  0
  -31.2230   13.6970  -15.8030 H   0  0  0  0  0  0  0  0  0  0  0  0
  -32.9860   12.6880  -16.2320 C   0  0  0  0  0  0  0  0  0  0  0  0
  -33.6290   13.4330  -15.4840 O   0  0  0  0  0  0  0  0  0  0  0  0
  -33.7000   11.4550  -16.7090 C   0  0  0  0  0  0  0  0  0  0  0  0
  -28.1840   13.1950  -18.0770 N   0  0  0  0  0  0  0  0  0  0  0  0
  -28.3190   13.3670  -19.0730 H   0  0  0  0  0  0  0  0  0  0  0  0
  -27.3800   13.7260  -17.7450 H   0  0  0  0  0  0  0  0  0  0  0  0
  -28.0210   12.1990  -17.9230 H   0  0  0  0  0  0  0  0  0  0  0  0
  -30.6830   16.1580  -19.9870 C   0  0  0  0  0  0  0  0  0  0  0  0
  -31.9230   16.5560  -20.3570 O   0  0  0  0  0  0  0  0  0  0  0  0
  -29.6920   16.8160  -20.3280 O   0  0  0  0  0  0  0  0  0  0  0  0
  -30.4320   11.4930  -20.0030 O   0  0  0  0  0  0  0  0  0  0  0  0
  -30.9700   11.2750  -21.3500 C   0  0  1  0  0  0  0  0  0  0  0  0
  -32.4580   11.7440  -21.4710 C   0  0  0  0  0  0  0  0  0  0  0  0
  -33.4060   10.8030  -20.7120 C   0  0  0  0  0  0  0  0  0  0  0  0
  -30.2330   12.0680  -22.4200 C   0  0  0  0  0  0  0  0  0  0  0  0
  -28.7850   11.5350  -22.3030 C   0  0  0  0  0  0  0  0  0  0  0  0
  -27.8420   12.5570  -21.7890 C   0  0  0  0  0  0  0  0  0  0  0  0
  -28.1690   13.9140  -21.9560 C   0  0  0  0  0  0  0  0  0  0  0  0
  -27.3370   14.8860  -21.4440 C   0  0  0  0  0  0  0  0  0  0  0  0
  -26.1720   14.5220  -20.7660 C   0  0  0  0  0  0  0  0  0  0  0  0
  -25.8520   13.1850  -20.6050 C   0  0  0  0  0  0  0  0  0  0  0  0
  -26.7010   12.1980  -21.1160 C   0  0  0  0  0  0  0  0  0  0  0  0
  1  2  2  0  0  0  0
  1  6  1  0  0  0  0
  2  3  1  0  0  0  0
  3  4  1  0  0  0  0
  4 12  1  6  0  0  0
  5  4  1  0  0  0  0
  5  7  1  1  0  0  0
  6 19  1  6  0  0  0
  6  5  1  0  0  0  0
  7  9  1  0  0  0  0
  7  8  1  0  0  0  0
  9 10  2  0  0  0  0
 11  9  1  0  0  0  0
 12 15  1  0  0  0  0
 12 14  1  0  0  0  0
 13 12  1  0  0  0  0
 16  2  1  0  0  0  0
 17 16  2  0  0  0  0
 18 16  1  0  0  0  0
 20 23  1  6  0  0  0
 20 19  1  0  0  0  0
 21 20  1  0  0  0  0
 21 22  1  0  0  0  0
 23 24  1  0  0  0  0
 24 25  1  0  0  0  0
 25 30  1  0  0  0  0
 26 25  2  0  0  0  0
 26 27  1  0  0  0  0
 27 28  2  0  0  0  0
 28 29  1  0  0  0  0
 30 29  2  0  0  0  0
M  END
>  <MODEL>
1

>  <REMARK>
 VINA RESULT:      -4.3      0.000      0.000
  Name = BDB5003
                            x       y       z     vdW  Elec       q    Type
                         _______ _______ _______ _____ _____    ______ ____

>  <TORSDO>
F 9

>  <vina_score>
-4.3

$$$$
BDB4952
 OpenBabel12261618033D

 31 32  0  0  1  0  0  0  0  0999 V2000
  -33.5060   12.6470  -16.5930 C   0  0  0  0  0  0  0  0  0  0  0  0
  -34.2250   12.3380  -17.6780 C   0  0  0  0  0  0  0  0  0  0  0  0
  -33.5920   12.2060  -19.0150 C   0  0  1  0  0  0  0  0  0  0  0  0
  -32.1380   11.8070  -18.8290 C   0  0  2  0  0  0  0  0  0  0  0  0
  -31.5240   12.8860  -17.9580 C   0  0  1  0  0  0  0  0  0  0  0  0
  -32.1050   12.8790  -16.6360 O   0  0  0  0  0  0  0  0  0  0  0  0
  -31.4840   11.7960  -20.1440 N   0  0  0  0  0  0  0  0  0  0  0  0
  -30.8600   11.0550  -20.3230 H   0  0  0  0  0  0  0  0  0  0  0  0
  -31.6620   12.7600  -21.1960 C   0  0  0  0  0  0  0  0  0  0  0  0
  -31.0320   12.6040  -22.2470 O   0  0  0  0  0  0  0  0  0  0  0  0
  -32.5850   13.9590  -21.0820 C   0  0  0  0  0  0  0  0  0  0  0  0
  -34.2990   11.2040  -19.8240 N   0  0  0  0  0  0  0  0  0  0  0  0
  -33.7700   11.0210  -20.6770 H   0  0  0  0  0  0  0  0  0  0  0  0
  -34.3920   10.3400  -19.2910 H   0  0  0  0  0  0  0  0  0  0  0  0
  -35.2250   11.5550  -20.0680 H   0  0  0  0  0  0  0  0  0  0  0  0
  -34.1870   12.7120  -15.2980 C   0  0  0  0  0  0  0  0  0  0  0  0
  -35.0550   11.7320  -14.9380 O   0  0  0  0  0  0  0  0  0  0  0  0
  -33.9710   13.6600  -14.5340 O   0  0  0  0  0  0  0  0  0  0  0  0
  -30.0100   12.6760  -17.8330 C   0  0  0  0  0  0  0  0  0  0  0  0
  -29.5930   11.5150  -17.7570 O   0  0  0  0  0  0  0  0  0  0  0  0
  -29.0490   13.7350  -17.7900 N   0  0  0  0  0  0  0  0  0  0  0  0
  -29.4240   15.1370  -17.7540 C   0  0  0  0  0  0  0  0  0  0  0  0
  -29.6810   15.6690  -19.1870 C   0  0  0  0  0  0  0  0  0  0  0  0
  -27.6500   13.3720  -17.7660 C   0  0  0  0  0  0  0  0  0  0  0  0
  -27.2950   12.4200  -18.9280 C   0  0  0  0  0  0  0  0  0  0  0  0
  -27.2780   13.1830  -20.2200 C   0  0  0  0  0  0  0  0  0  0  0  0
  -26.4640   14.3020  -20.3520 C   0  0  0  0  0  0  0  0  0  0  0  0
  -26.4430   15.0080  -21.5480 C   0  0  0  0  0  0  0  0  0  0  0  0
  -27.2350   14.5960  -22.6130 C   0  0  0  0  0  0  0  0  0  0  0  0
  -28.0490   13.4770  -22.4820 C   0  0  0  0  0  0  0  0  0  0  0  0
  -28.0700   12.7700  -21.2840 C   0  0  0  0  0  0  0  0  0  0  0  0
  1 16  1  0  0  0  0
  2  1  2  0  0  0  0
  3 12  1  6  0  0  0
  3  4  1  0  0  0  0
  3  2  1  0  0  0  0
  4  7  1  6  0  0  0
  4  5  1  0  0  0  0
  5 19  1  1  0  0  0
  5  6  1  0  0  0  0
  6  1  1  0  0  0  0
  8  7  1  0  0  0  0
  9 11  1  0  0  0  0
  9  7  1  0  0  0  0
 10  9  2  0  0  0  0
 12 14  1  0  0  0  0
 13 12  1  0  0  0  0
 15 12  1  0  0  0  0
 16 17  2  0  0  0  0
 16 18  1  0  0  0  0
 19 21  1  0  0  0  0
 19 20  2  0  0  0  0
 21 24  1  0  0  0  0
 21 22  1  0  0  0  0
 23 22  1  0  0  0  0
 25 24  1  0  0  0  0
 26 25  1  0  0  0  0
 27 26  1  0  0  0  0
 28 27  2  0  0  0  0
 29 30  2  0  0  0  0
 29 28  1  0  0  0  0
 30 31  1  0  0  0  0
 31 26  2  0  0  0  0
M  END
>  <MODEL>
1

>  <REMARK>
 VINA RESULT:      -4.2      0.000      0.000
  Name = BDB4952
                            x       y       z     vdW  Elec       q    Type
                         _______ _______ _______ _____ _____    ______ ____

>  <TORSDO>
F 8

>  <vina_score>
-4.2

$$$$
BDB4997
 OpenBabel12261618023D

 29 29  0  0  1  0  0  0  0  0999 V2000
  -30.8720   12.8720  -18.7300 C   0  0  0  0  0  0  0  0  0  0  0  0
  -32.1070   12.4830  -18.3500 C   0  0  0  0  0  0  0  0  0  0  0  0
  -33.3570   12.5710  -19.2640 C   0  0  0  0  0  0  0  0  0  0  0  0
  -33.0080   12.6110  -20.7550 C   0  0  1  0  0  0  0  0  0  0  0  0
  -31.8500   13.6470  -20.9680 C   0  0  2  0  0  0  0  0  0  0  0  0
  -30.5270   13.3550  -20.1120 C   0  0  2  0  0  0  0  0  0  0  0  0
  -32.4840   15.0300  -20.7660 N   0  0  0  0  0  0  0  0  0  0  0  0
  -33.4320   15.0750  -21.0330 H   0  0  0  0  0  0  0  0  0  0  0  0
  -31.9550   16.3030  -20.2530 C   0  0  0  0  0  0  0  0  0  0  0  0
  -32.7890   17.1780  -19.9940 O   0  0  0  0  0  0  0  0  0  0  0  0
  -30.5150   16.6890  -20.0890 C   0  0  0  0  0  0  0  0  0  0  0  0
  -32.7470   11.2750  -21.1680 N   0  0  0  0  0  0  0  0  0  0  0  0
  -33.4520   10.9830  -21.8460 H   0  0  0  0  0  0  0  0  0  0  0  0
  -31.8230   11.2260  -21.5970 H   0  0  0  0  0  0  0  0  0  0  0  0
  -32.7780   10.6550  -20.3580 H   0  0  0  0  0  0  0  0  0  0  0  0
  -32.2650   12.0630  -16.9650 C   0  0  0  0  0  0  0  0  0  0  0  0
  -31.6970   10.9080  -16.5380 O   0  0  0  0  0  0  0  0  0  0  0  0
  -32.9390   12.7450  -16.1880 O   0  0  0  0  0  0  0  0  0  0  0  0
  -29.4440   12.4220  -20.6530 O   0  0  0  0  0  0  0  0  0  0  0  0
  -28.4530   12.8930  -21.6050 C   0  0  1  0  0  0  0  0  0  0  0  0
  -28.3110   14.4410  -21.5360 C   0  0  0  0  0  0  0  0  0  0  0  0
  -27.3290   14.9460  -22.6100 C   0  0  0  0  0  0  0  0  0  0  0  0
  -27.0530   12.3290  -21.3110 C   0  0  0  0  0  0  0  0  0  0  0  0
  -26.4730   13.2810  -20.2370 C   0  0  0  0  0  0  0  0  0  0  0  0
  -26.3230   12.6360  -18.8560 C   0  0  0  0  0  0  0  0  0  0  0  0
  -27.2260   13.4500  -17.9030 C   0  0  0  0  0  0  0  0  0  0  0  0
  -27.1060   14.9570  -18.1650 C   0  0  0  0  0  0  0  0  0  0  0  0
  -28.4780   15.6080  -17.8950 C   0  0  0  0  0  0  0  0  0  0  0  0
  -29.1200   14.9740  -16.6480 C   0  0  0  0  0  0  0  0  0  0  0  0
  1  2  2  0  0  0  0
  2 16  1  0  0  0  0
  3  2  1  0  0  0  0
  4 12  1  1  0  0  0
  4  3  1  0  0  0  0
  5  7  1  1  0  0  0
  5  4  1  0  0  0  0
  5  6  1  0  0  0  0
  6 19  1  6  0  0  0
  6  1  1  0  0  0  0
  7  9  1  0  0  0  0
  8  7  1  0  0  0  0
  9 11  1  0  0  0  0
  9 10  2  0  0  0  0
 12 15  1  0  0  0  0
 13 12  1  0  0  0  0
 14 12  1  0  0  0  0
 16 17  2  0  0  0  0
 16 18  1  0  0  0  0
 20 21  1  1  0  0  0
 20 23  1  0  0  0  0
 20 19  1  0  0  0  0
 22 21  1  0  0  0  0
 23 24  1  0  0  0  0
 24 25  1  0  0  0  0
 25 26  1  0  0  0  0
 27 26  1  0  0  0  0
 27 28  1  0  0  0  0
 28 29  1  0  0  0  0
M  END
>  <MODEL>
1

>  <REMARK>
 VINA RESULT:      -4.2      0.000      0.000
  Name = BDB4997
                            x       y       z     vdW  Elec       q    Type
                         _______ _______ _______ _____ _____    ______ ____

>  <TORSDO>
F 12

>  <vina_score>
-4.2

$$$$
BDB4946
 OpenBabel12261618063D

 37 38  0  0  1  0  0  0  0  0999 V2000
  -33.4480   12.7150  -16.2920 C   0  0  0  0  0  0  0  0  0  0  0  0
  -34.0750   12.3220  -17.4060 C   0  0  0  0  0  0  0  0  0  0  0  0
  -33.3850   12.3180  -18.7220 C   0  0  1  0  0  0  0  0  0  0  0  0
  -31.8940   12.1440  -18.4910 C   0  0  2  0  0  0  0  0  0  0  0  0
  -31.4830   13.2860  -17.5820 C   0  0  1  0  0  0  0  0  0  0  0  0
  -32.0990   13.1610  -16.2810 O   0  0  0  0  0  0  0  0  0  0  0  0
  -31.2040   12.2620  -19.7820 N   0  0  0  0  0  0  0  0  0  0  0  0
  -30.4790   11.6190  -19.9580 H   0  0  0  0  0  0  0  0  0  0  0  0
  -31.4800   13.2240  -20.8140 C   0  0  0  0  0  0  0  0  0  0  0  0
  -30.8020   13.1880  -21.8460 O   0  0  0  0  0  0  0  0  0  0  0  0
  -32.5620   14.2820  -20.7020 C   0  0  0  0  0  0  0  0  0  0  0  0
  -34.1720   12.6470  -15.0210 C   0  0  0  0  0  0  0  0  0  0  0  0
  -34.8830   11.5340  -14.7030 O   0  0  0  0  0  0  0  0  0  0  0  0
  -34.1360   13.6030  -14.2370 O   0  0  0  0  0  0  0  0  0  0  0  0
  -29.9620   13.3100  -17.4070 C   0  0  0  0  0  0  0  0  0  0  0  0
  -29.4150   12.2990  -16.9510 O   0  0  0  0  0  0  0  0  0  0  0  0
  -29.1370   14.4330  -17.7220 N   0  0  0  0  0  0  0  0  0  0  0  0
  -29.6750   15.6990  -18.1780 C   0  0  0  0  0  0  0  0  0  0  0  0
  -29.6600   15.7700  -19.7230 C   0  0  0  0  0  0  0  0  0  0  0  0
  -30.3820   17.0490  -20.1810 C   0  0  0  0  0  0  0  0  0  0  0  0
  -27.7100   14.2880  -17.5580 C   0  0  0  0  0  0  0  0  0  0  0  0
  -27.1830   13.0570  -18.3270 C   0  0  0  0  0  0  0  0  0  0  0  0
  -27.2990   13.2930  -19.8040 C   0  0  0  0  0  0  0  0  0  0  0  0
  -27.9550   12.3640  -20.6050 C   0  0  0  0  0  0  0  0  0  0  0  0
  -28.0690   12.5840  -21.9710 C   0  0  0  0  0  0  0  0  0  0  0  0
  -27.5280   13.7320  -22.5380 C   0  0  0  0  0  0  0  0  0  0  0  0
  -26.8730   14.6600  -21.7390 C   0  0  0  0  0  0  0  0  0  0  0  0
  -26.7590   14.4400  -20.3700 C   0  0  0  0  0  0  0  0  0  0  0  0
  -33.8950   11.2490  -19.5590 N   0  0  0  0  0  0  0  0  0  0  0  0
  -33.9380   10.3380  -19.1870 H   0  0  0  0  0  0  0  0  0  0  0  0
  -34.3320   11.4590  -20.8870 C   0  0  0  0  0  0  0  0  0  0  0  0
  -33.7770   10.8180  -21.8320 N   0  0  0  0  0  0  0  0  0  0  0  0
  -34.0730   10.9560  -22.7610 H   0  0  0  0  0  0  0  0  0  0  0  0
  -33.0500   10.1820  -21.6370 H   0  0  0  0  0  0  0  0  0  0  0  0
  -35.3640   12.3590  -21.1830 N   0  0  0  0  0  0  0  0  0  0  0  0
  -35.1530   13.2890  -21.4260 H   0  0  0  0  0  0  0  0  0  0  0  0
  -36.3020   12.0610  -21.1480 H   0  0  0  0  0  0  0  0  0  0  0  0
  1  6  1  0  0  0  0
  1 12  1  0  0  0  0
  2  1  2  0  0  0  0
  3 29  1  6  0  0  0
  3  4  1  0  0  0  0
  3  2  1  0  0  0  0
  4  7  1  6  0  0  0
  4  5  1  0  0  0  0
  5 15  1  1  0  0  0
  5  6  1  0  0  0  0
  8  7  1  0  0  0  0
  9 11  1  0  0  0  0
  9  7  1  0  0  0  0
 10  9  2  0  0  0  0
 12 13  2  0  0  0  0
 12 14  1  0  0  0  0
 15 16  2  0  0  0  0
 17 21  1  0  0  0  0
 17 15  1  0  0  0  0
 18 17  1  0  0  0  0
 19 18  1  0  0  0  0
 20 19  1  0  0  0  0
 22 21  1  0  0  0  0
 23 22  1  0  0  0  0
 24 23  2  0  0  0  0
 25 24  1  0  0  0  0
 26 25  2  0  0  0  0
 26 27  1  0  0  0  0
 27 28  2  0  0  0  0
 28 23  1  0  0  0  0
 29 30  1  0  0  0  0
 31 29  1  0  0  0  0
 32 34  1  0  0  0  0
 32 31  2  0  0  0  0
 33 32  1  0  0  0  0
 35 37  1  0  0  0  0
 35 31  1  0  0  0  0
 36 35  1  0  0  0  0
M  END
>  <MODEL>
1

>  <REMARK>
 VINA RESULT:      -2.6      0.000      0.000
  Name = BDB4946
                            x       y       z     vdW  Elec       q    Type
                         _______ _______ _______ _____ _____    ______ ____

>  <TORSDO>
F 11

>  <vina_score>
-2.6

$$$$
BDB4948
 OpenBabel12261618093D

 33 33  0  0  1  0  0  0  0  0999 V2000
  -33.3450   12.6750  -16.8450 C   0  0  0  0  0  0  0  0  0  0  0  0
  -34.2370   12.2800  -17.7590 C   0  0  0  0  0  0  0  0  0  0  0  0
  -33.8140   11.8300  -19.1100 C   0  0  1  0  0  0  0  0  0  0  0  0
  -32.4020   11.2770  -19.0200 C   0  0  2  0  0  0  0  0  0  0  0  0
  -31.5570   12.4010  -18.4510 C   0  0  1  0  0  0  0  0  0  0  0  0
  -31.9460   12.7050  -17.0930 O   0  0  0  0  0  0  0  0  0  0  0  0
  -31.9420   10.9470  -20.3750 N   0  0  0  0  0  0  0  0  0  0  0  0
  -31.5230   10.0640  -20.4990 H   0  0  0  0  0  0  0  0  0  0  0  0
  -32.0410   11.7840  -21.5400 C   0  0  0  0  0  0  0  0  0  0  0  0
  -31.6020   11.3530  -22.6110 O   0  0  0  0  0  0  0  0  0  0  0  0
  -32.6580   13.1700  -21.5220 C   0  0  0  0  0  0  0  0  0  0  0  0
  -34.7340   10.8050  -19.6240 N   0  0  0  0  0  0  0  0  0  0  0  0
  -34.5700   10.6700  -20.6210 H   0  0  0  0  0  0  0  0  0  0  0  0
  -34.5730    9.9260  -19.1320 H   0  0  0  0  0  0  0  0  0  0  0  0
  -35.6970   11.1070  -19.4750 H   0  0  0  0  0  0  0  0  0  0  0  0
  -33.8270   13.0590  -15.5160 C   0  0  0  0  0  0  0  0  0  0  0  0
  -34.9110   12.4370  -14.9820 O   0  0  0  0  0  0  0  0  0  0  0  0
  -33.2490   13.9490  -14.8820 O   0  0  0  0  0  0  0  0  0  0  0  0
  -30.0720   12.0140  -18.4630 C   0  0  0  0  0  0  0  0  0  0  0  0
  -29.6810   11.1950  -17.6270 O   0  0  0  0  0  0  0  0  0  0  0  0
  -29.1090   12.5610  -19.3670 N   0  0  0  0  0  0  0  0  0  0  0  0
  -29.4270   13.6110  -20.3110 C   0  0  0  0  0  0  0  0  0  0  0  0
  -28.7890   13.3050  -21.6880 C   0  0  0  0  0  0  0  0  0  0  0  0
  -27.9400   14.5070  -22.1360 C   0  0  0  0  0  0  0  0  0  0  0  0
  -27.7550   12.0600  -19.2990 C   0  0  0  0  0  0  0  0  0  0  0  0
  -26.7570   13.2210  -19.1230 C   0  0  0  0  0  0  0  0  0  0  0  0
  -26.6880   13.6360  -17.6460 C   0  0  0  0  0  0  0  0  0  0  0  0
  -27.8220   14.6330  -17.3620 C   0  0  0  0  0  0  0  0  0  0  0  0
  -27.8840   15.6850  -18.4800 C   0  0  0  0  0  0  0  0  0  0  0  0
  -29.3190   16.2300  -18.5780 C   0  0  0  0  0  0  0  0  0  0  0  0
  -29.4310   17.1770  -19.7820 C   0  0  0  0  0  0  0  0  0  0  0  0
  -30.8500   17.0850  -20.3700 C   0  0  0  0  0  0  0  0  0  0  0  0
  -31.5510   15.8270  -19.8270 C   0  0  0  0  0  0  0  0  0  0  0  0
  1 16  1  0  0  0  0
  2  1  2  0  0  0  0
  3 12  1  1  0  0  0
  3  4  1  0  0  0  0
  3  2  1  0  0  0  0
  4  7  1  6  0  0  0
  4  5  1  0  0  0  0
  5 19  1  1  0  0  0
  5  6  1  0  0  0  0
  6  1  1  0  0  0  0
  8  7  1  0  0  0  0
  9 11  1  0  0  0  0
  9  7  1  0  0  0  0
 10  9  2  0  0  0  0
 12 15  1  0  0  0  0
 12 14  1  0  0  0  0
 13 12  1  0  0  0  0
 16 17  2  0  0  0  0
 16 18  1  0  0  0  0
 19 20  2  0  0  0  0
 21 25  1  0  0  0  0
 21 19  1  0  0  0  0
 22 21  1  0  0  0  0
 23 22  1  0  0  0  0
 24 23  1  0  0  0  0
 25 26  1  0  0  0  0
 26 27  1  0  0  0  0
 27 28  1  0  0  0  0
 29 28  1  0  0  0  0
 30 29  1  0  0  0  0
 31 30  1  0  0  0  0
 32 33  1  0  0  0  0
 32 31  1  0  0  0  0
M  END
>  <MODEL>
1

>  <REMARK>
 VINA RESULT:      -1.8      0.000      0.000
  Name = BDB4948
                            x       y       z     vdW  Elec       q    Type
                         _______ _______ _______ _____ _____    ______ ____

>  <TORSDO>
F 14

>  <vina_score>
-1.8

$$$$
BDB4945
 OpenBabel12261618023D

 32 33  0  0  1  0  0  0  0  0999 V2000
  -27.1140   14.0320  -20.0920 C   0  0  0  0  0  0  0  0  0  0  0  0
  -27.1550   14.8130  -19.0070 C   0  0  0  0  0  0  0  0  0  0  0  0
  -28.4170   15.0260  -18.2520 C   0  0  1  0  0  0  0  0  0  0  0  0
  -29.3130   13.8160  -18.4500 C   0  0  2  0  0  0  0  0  0  0  0  0
  -29.5040   13.6870  -19.9500 C   0  0  1  0  0  0  0  0  0  0  0  0
  -28.2580   13.3640  -20.6050 O   0  0  0  0  0  0  0  0  0  0  0  0
  -30.6060   14.0800  -17.8050 N   0  0  0  0  0  0  0  0  0  0  0  0
  -31.1000   14.8760  -18.1100 H   0  0  0  0  0  0  0  0  0  0  0  0
  -31.2230   13.2930  -16.7730 C   0  0  0  0  0  0  0  0  0  0  0  0
  -32.3210   13.6560  -16.3350 O   0  0  0  0  0  0  0  0  0  0  0  0
  -30.5980   12.0390  -16.1920 C   0  0  0  0  0  0  0  0  0  0  0  0
  -28.1360   15.2270  -16.8240 N   0  0  0  0  0  0  0  0  0  0  0  0
  -29.0160   15.3030  -16.3120 H   0  0  0  0  0  0  0  0  0  0  0  0
  -27.6040   14.4350  -16.4670 H   0  0  0  0  0  0  0  0  0  0  0  0
  -27.5970   16.0840  -16.7010 H   0  0  0  0  0  0  0  0  0  0  0  0
  -25.8270   13.8270  -20.7580 C   0  0  0  0  0  0  0  0  0  0  0  0
  -25.2250   14.8590  -21.4060 O   0  0  0  0  0  0  0  0  0  0  0  0
  -25.2880   12.7150  -20.7330 O   0  0  0  0  0  0  0  0  0  0  0  0
  -30.5260   12.5920  -20.2660 C   0  0  0  0  0  0  0  0  0  0  0  0
  -30.2310   11.4240  -19.9870 O   0  0  0  0  0  0  0  0  0  0  0  0
  -31.7940   12.8320  -20.8810 N   0  0  0  0  0  0  0  0  0  0  0  0
  -32.2100   14.1450  -21.3330 C   0  0  0  0  0  0  0  0  0  0  0  0
  -32.5130   15.0640  -20.1260 C   0  0  0  0  0  0  0  0  0  0  0  0
  -32.0650   16.4990  -20.4530 C   0  0  0  0  0  0  0  0  0  0  0  0
  -32.6780   11.7060  -21.0660 C   0  0  0  0  0  0  0  0  0  0  0  0
  -34.0910   12.0120  -20.5270 C   0  0  0  0  0  0  0  0  0  0  0  0
  -34.0870   11.9530  -19.0270 C   0  0  0  0  0  0  0  0  0  0  0  0
  -34.6480   12.9910  -18.2910 C   0  0  0  0  0  0  0  0  0  0  0  0
  -34.6510   12.9350  -16.9030 C   0  0  0  0  0  0  0  0  0  0  0  0
  -34.0930   11.8420  -16.2510 C   0  0  0  0  0  0  0  0  0  0  0  0
  -33.5320   10.8050  -16.9860 C   0  0  0  0  0  0  0  0  0  0  0  0
  -33.5300   10.8610  -18.3760 C   0  0  0  0  0  0  0  0  0  0  0  0
  1  2  2  0  0  0  0
  2  3  1  0  0  0  0
  3 12  1  1  0  0  0
  4  3  1  0  0  0  0
  4  7  1  1  0  0  0
  5 19  1  1  0  0  0
  5  4  1  0  0  0  0
  6  1  1  0  0  0  0
  6  5  1  0  0  0  0
  7  9  1  0  0  0  0
  8  7  1  0  0  0  0
  9 10  2  0  0  0  0
  9 11  1  0  0  0  0
 12 15  1  0  0  0  0
 12 14  1  0  0  0  0
 12 13  1  0  0  0  0
 16 18  1  0  0  0  0
 16  1  1  0  0  0  0
 17 16  2  0  0  0  0
 19 20  2  0  0  0  0
 21 19  1  0  0  0  0
 22 21  1  0  0  0  0
 22 23  1  0  0  0  0
 24 23  1  0  0  0  0
 25 21  1  0  0  0  0
 25 26  1  0  0  0  0
 26 27  1  0  0  0  0
 27 32  2  0  0  0  0
 27 28  1  0  0  0  0
 28 29  2  0  0  0  0
 29 30  1  0  0  0  0
 31 30  2  0  0  0  0
 32 31  1  0  0  0  0
M  END
>  <MODEL>
1

>  <REMARK>
 VINA RESULT:      -1.2      0.000      0.000
  Name = BDB4945
                            x       y       z     vdW  Elec       q    Type
                         _______ _______ _______ _____ _____    ______ ____

>  <TORSDO>
F 9

>  <vina_score>
-1.2

$$$$
BDB5007
 OpenBabel12261618073D

 34 36  0  0  1  0  0  0  0  0999 V2000
  -29.8400   13.7350  -20.1410 C   0  0  0  0  0  0  0  0  0  0  0  0
  -29.5150   15.0180  -20.3410 C   0  0  0  0  0  0  0  0  0  0  0  0
  -28.0840   15.4690  -20.7000 C   0  0  0  0  0  0  0  0  0  0  0  0
  -27.2370   14.3100  -21.2240 C   0  0  1  0  0  0  0  0  0  0  0  0
  -27.3980   13.0760  -20.2580 C   0  0  2  0  0  0  0  0  0  0  0  0
  -28.8700   12.6120  -20.3170 C   0  0  2  0  0  0  0  0  0  0  0  0
  -26.7440   13.3680  -18.9180 N   0  0  0  0  0  0  0  0  0  0  0  0
  -25.7620   13.4260  -18.9620 H   0  0  0  0  0  0  0  0  0  0  0  0
  -27.2850   13.5790  -17.5720 C   0  0  0  0  0  0  0  0  0  0  0  0
  -26.4800   13.9650  -16.7180 O   0  0  0  0  0  0  0  0  0  0  0  0
  -28.6810   13.3190  -17.0960 C   0  0  0  0  0  0  0  0  0  0  0  0
  -27.6680   14.0700  -22.6130 N   0  0  0  0  0  0  0  0  0  0  0  0
  -28.4410   14.6940  -22.8410 H   0  0  0  0  0  0  0  0  0  0  0  0
  -26.8890   14.2490  -23.2460 H   0  0  0  0  0  0  0  0  0  0  0  0
  -27.9710   13.1010  -22.7120 H   0  0  0  0  0  0  0  0  0  0  0  0
  -30.5330   16.0200  -20.0740 C   0  0  0  0  0  0  0  0  0  0  0  0
  -31.8110   15.8020  -20.4580 O   0  0  0  0  0  0  0  0  0  0  0  0
  -30.2120   17.1020  -19.5670 O   0  0  0  0  0  0  0  0  0  0  0  0
  -28.9880   12.1210  -21.6830 O   0  0  0  0  0  0  0  0  0  0  0  0
  -29.9470   12.7940  -22.4990 C   0  0  0  0  0  0  0  0  0  0  0  0
  -31.3950   12.2350  -22.1980 C   0  0  0  0  0  0  0  0  0  0  0  0
  -31.4840   10.8030  -21.5310 C   0  0  0  0  0  0  0  0  0  0  0  0
  -32.1700   11.0140  -20.1860 C   0  0  0  0  0  0  0  0  0  0  0  0
  -33.4870   11.4580  -20.0720 C   0  0  0  0  0  0  0  0  0  0  0  0
  -34.0330   11.7010  -18.8150 C   0  0  0  0  0  0  0  0  0  0  0  0
  -33.2520   11.4960  -17.6670 C   0  0  0  0  0  0  0  0  0  0  0  0
  -31.9590   11.0440  -17.7880 C   0  0  0  0  0  0  0  0  0  0  0  0
  -31.4140   10.8050  -19.0430 C   0  0  0  0  0  0  0  0  0  0  0  0
  -33.7810   11.7870  -16.3350 C   0  0  0  0  0  0  0  0  0  0  0  0
  -34.4640   10.8400  -15.6020 C   0  0  0  0  0  0  0  0  0  0  0  0
  -34.9790   11.1660  -14.3480 C   0  0  0  0  0  0  0  0  0  0  0  0
  -34.8020   12.4460  -13.8360 C   0  0  0  0  0  0  0  0  0  0  0  0
  -34.1110   13.4010  -14.5730 C   0  0  0  0  0  0  0  0  0  0  0  0
  -33.6030   13.0790  -15.8210 C   0  0  0  0  0  0  0  0  0  0  0  0
  2  1  2  0  0  0  0
  2 16  1  0  0  0  0
  3  2  1  0  0  0  0
  4 12  1  6  0  0  0
  4  3  1  0  0  0  0
  4  5  1  0  0  0  0
  5  7  1  1  0  0  0
  6 19  1  6  0  0  0
  6  5  1  0  0  0  0
  6  1  1  0  0  0  0
  7  9  1  0  0  0  0
  8  7  1  0  0  0  0
  9 11  1  0  0  0  0
  9 10  2  0  0  0  0
 13 12  1  0  0  0  0
 14 12  1  0  0  0  0
 15 12  1  0  0  0  0
 16 18  1  0  0  0  0
 17 16  2  0  0  0  0
 20 21  1  0  0  0  0
 20 19  1  0  0  0  0
 21 22  1  0  0  0  0
 22 23  1  0  0  0  0
 23 24  2  0  0  0  0
 23 28  1  0  0  0  0
 24 25  1  0  0  0  0
 25 26  2  0  0  0  0
 26 29  1  0  0  0  0
 27 26  1  0  0  0  0
 28 27  2  0  0  0  0
 29 34  2  0  0  0  0
 29 30  1  0  0  0  0
 30 31  2  0  0  0  0
 31 32  1  0  0  0  0
 33 32  2  0  0  0  0
 34 33  1  0  0  0  0
M  END
>  <MODEL>
1

>  <REMARK>
 VINA RESULT:      -0.4      0.000      0.000
  Name = BDB5007
                            x       y       z     vdW  Elec       q    Type
                         _______ _______ _______ _____ _____    ______ ____

>  <TORSDO>
F 9

>  <vina_score>
-0.4

$$$$
BDB4965
 OpenBabel12261618043D

 34 35  0  0  1  0  0  0  0  0999 V2000
  -28.6870   15.1580  -17.4770 C   0  0  0  0  0  0  0  0  0  0  0  0
  -28.2840   15.6490  -18.6530 C   0  0  0  0  0  0  0  0  0  0  0  0
  -28.3870   14.8500  -19.9020 C   0  0  1  0  0  0  0  0  0  0  0  0
  -29.5240   13.8550  -19.7520 C   0  0  2  0  0  0  0  0  0  0  0  0
  -29.1930   13.0350  -18.5200 C   0  0  1  0  0  0  0  0  0  0  0  0
  -29.2270   13.8520  -17.3290 O   0  0  0  0  0  0  0  0  0  0  0  0
  -29.5460   12.9870  -20.9370 N   0  0  0  0  0  0  0  0  0  0  0  0
  -30.4310   12.7480  -21.2960 H   0  0  0  0  0  0  0  0  0  0  0  0
  -28.4020   12.4500  -21.6240 C   0  0  0  0  0  0  0  0  0  0  0  0
  -28.5950   11.7310  -22.6100 O   0  0  0  0  0  0  0  0  0  0  0  0
  -26.9710   12.7200  -21.2010 C   0  0  0  0  0  0  0  0  0  0  0  0
  -28.6220   15.7280  -21.0570 N   0  0  0  0  0  0  0  0  0  0  0  0
  -29.1550   15.2220  -21.7650 H   0  0  0  0  0  0  0  0  0  0  0  0
  -29.1470   16.5490  -20.7590 H   0  0  0  0  0  0  0  0  0  0  0  0
  -27.7270   16.0200  -21.4500 H   0  0  0  0  0  0  0  0  0  0  0  0
  -28.6030   16.0170  -16.2940 C   0  0  0  0  0  0  0  0  0  0  0  0
  -29.2950   15.6950  -15.1700 O   0  0  0  0  0  0  0  0  0  0  0  0
  -27.9030   17.0360  -16.3190 O   0  0  0  0  0  0  0  0  0  0  0  0
  -30.1920   11.8860  -18.3580 C   0  0  0  0  0  0  0  0  0  0  0  0
  -29.9220   10.8030  -18.8910 O   0  0  0  0  0  0  0  0  0  0  0  0
  -31.4260   11.9920  -17.6450 N   0  0  0  0  0  0  0  0  0  0  0  0
  -31.8890   13.2330  -17.0570 C   0  0  0  0  0  0  0  0  0  0  0  0
  -32.8480   12.9480  -15.8760 C   0  0  0  0  0  0  0  0  0  0  0  0
  -34.2930   13.2510  -16.3100 C   0  0  0  0  0  0  0  0  0  0  0  0
  -32.2410   10.8050  -17.5290 C   0  0  0  0  0  0  0  0  0  0  0  0
  -33.4090   10.8300  -18.5370 C   0  0  0  0  0  0  0  0  0  0  0  0
  -32.9800   11.5270  -19.7950 C   0  0  0  0  0  0  0  0  0  0  0  0
  -32.3760   10.8030  -20.8170 C   0  0  0  0  0  0  0  0  0  0  0  0
  -31.9830   11.4470  -21.9840 C   0  0  0  0  0  0  0  0  0  0  0  0
  -32.1940   12.8130  -22.1290 C   0  0  0  0  0  0  0  0  0  0  0  0
  -32.7980   13.5360  -21.1080 C   0  0  0  0  0  0  0  0  0  0  0  0
  -33.1900   12.8930  -19.9390 C   0  0  0  0  0  0  0  0  0  0  0  0
  -33.0090   14.9110  -21.2550 O   0  0  0  0  0  0  0  0  0  0  0  0
  -32.2680   15.6520  -20.2760 C   0  0  0  0  0  0  0  0  0  0  0  0
  1  6  1  0  0  0  0
  1 16  1  0  0  0  0
  2  1  2  0  0  0  0
  3 12  1  6  0  0  0
  3  4  1  0  0  0  0
  3  2  1  0  0  0  0
  4  7  1  6  0  0  0
  4  5  1  0  0  0  0
  5 19  1  1  0  0  0
  5  6  1  0  0  0  0
  8  7  1  0  0  0  0
  9 11  1  0  0  0  0
  9  7  1  0  0  0  0
 10  9  2  0  0  0  0
 12 14  1  0  0  0  0
 13 12  1  0  0  0  0
 15 12  1  0  0  0  0
 16 17  1  0  0  0  0
 18 16  2  0  0  0  0
 19 21  1  0  0  0  0
 20 19  2  0  0  0  0
 21 25  1  0  0  0  0
 21 22  1  0  0  0  0
 22 23  1  0  0  0  0
 24 23  1  0  0  0  0
 26 25  1  0  0  0  0
 27 26  1  0  0  0  0
 28 27  2  0  0  0  0
 29 28  1  0  0  0  0
 30 29  2  0  0  0  0
 30 31  1  0  0  0  0
 31 32  2  0  0  0  0
 32 27  1  0  0  0  0
 33 31  1  0  0  0  0
 33 34  1  0  0  0  0
M  END
>  <MODEL>
1

>  <REMARK>
 VINA RESULT:       0.4      0.000      0.000
  Name = BDB4965
                            x       y       z     vdW  Elec       q    Type
                         _______ _______ _______ _____ _____    ______ ____

>  <TORSDO>
F 10

>  <vina_score>
0.4

$$$$
BDB4968
 OpenBabel12261618063D

 34 35  0  0  1  0  0  0  0  0999 V2000
  -33.3870   12.1090  -16.8950 C   0  0  0  0  0  0  0  0  0  0  0  0
  -34.2290   12.0850  -17.9330 C   0  0  0  0  0  0  0  0  0  0  0  0
  -33.7350   12.1250  -19.3330 C   0  0  1  0  0  0  0  0  0  0  0  0
  -32.3360   11.5370  -19.3740 C   0  0  2  0  0  0  0  0  0  0  0  0
  -31.5130   12.3640  -18.4040 C   0  0  1  0  0  0  0  0  0  0  0  0
  -31.9760   12.1840  -17.0470 O   0  0  0  0  0  0  0  0  0  0  0  0
  -31.8020   11.6900  -20.7340 N   0  0  0  0  0  0  0  0  0  0  0  0
  -31.5140   10.8670  -21.1930 H   0  0  0  0  0  0  0  0  0  0  0  0
  -31.6590   12.9210  -21.4620 C   0  0  0  0  0  0  0  0  0  0  0  0
  -31.1890   12.8750  -22.6040 O   0  0  0  0  0  0  0  0  0  0  0  0
  -32.0540   14.2740  -20.9010 C   0  0  0  0  0  0  0  0  0  0  0  0
  -34.6340   11.3730  -20.2190 N   0  0  0  0  0  0  0  0  0  0  0  0
  -34.9630   11.9830  -20.9670 H   0  0  0  0  0  0  0  0  0  0  0  0
  -34.1300   10.5840  -20.6230 H   0  0  0  0  0  0  0  0  0  0  0  0
  -35.4310   11.0300  -19.6840 H   0  0  0  0  0  0  0  0  0  0  0  0
  -33.9400   12.0160  -15.5420 C   0  0  0  0  0  0  0  0  0  0  0  0
  -34.2820   13.1460  -14.8690 O   0  0  0  0  0  0  0  0  0  0  0  0
  -34.0940   10.9100  -15.0120 O   0  0  0  0  0  0  0  0  0  0  0  0
  -30.0400   11.9670  -18.4780 C   0  0  0  0  0  0  0  0  0  0  0  0
  -29.6870   11.2160  -19.3930 O   0  0  0  0  0  0  0  0  0  0  0  0
  -29.0500   12.3920  -17.5400 N   0  0  0  0  0  0  0  0  0  0  0  0
  -29.3480   13.2740  -16.4220 C   0  0  0  0  0  0  0  0  0  0  0  0
  -29.7480   14.6880  -16.9110 C   0  0  0  0  0  0  0  0  0  0  0  0
  -28.8530   15.7340  -16.2210 C   0  0  0  0  0  0  0  0  0  0  0  0
  -27.6940   11.9400  -17.7540 C   0  0  0  0  0  0  0  0  0  0  0  0
  -26.7310   13.1150  -18.0270 C   0  0  0  0  0  0  0  0  0  0  0  0
  -27.2400   13.9370  -19.1750 C   0  0  0  0  0  0  0  0  0  0  0  0
  -28.1090   14.9950  -18.9330 C   0  0  0  0  0  0  0  0  0  0  0  0
  -28.5880   15.7550  -19.9940 C   0  0  0  0  0  0  0  0  0  0  0  0
  -28.1990   15.4560  -21.2950 C   0  0  0  0  0  0  0  0  0  0  0  0
  -28.7890   16.3940  -22.6060 Cl  0  0  0  0  0  0  0  0  0  0  0  0
  -27.3310   14.3980  -21.5350 C   0  0  0  0  0  0  0  0  0  0  0  0
  -26.8520   13.6390  -20.4750 C   0  0  0  0  0  0  0  0  0  0  0  0
  -25.7790   12.3320  -20.7720 Cl  0  0  0  0  0  0  0  0  0  0  0  0
  1 16  1  0  0  0  0
  2  1  2  0  0  0  0
  3 12  1  6  0  0  0
  3  2  1  0  0  0  0
  4  7  1  6  0  0  0
  4  3  1  0  0  0  0
  4  5  1  0  0  0  0
  5 19  1  1  0  0  0
  5  6  1  0  0  0  0
  6  1  1  0  0  0  0
  8  7  1  0  0  0  0
  9 11  1  0  0  0  0
  9  7  1  0  0  0  0
 10  9  2  0  0  0  0
 12 15  1  0  0  0  0
 13 12  1  0  0  0  0
 14 12  1  0  0  0  0
 16 18  2  0  0  0  0
 16 17  1  0  0  0  0
 19 21  1  0  0  0  0
 20 19  2  0  0  0  0
 21 22  1  0  0  0  0
 23 22  1  0  0  0  0
 23 24  1  0  0  0  0
 25 21  1  0  0  0  0
 26 25  1  0  0  0  0
 27 28  1  0  0  0  0
 27 26  1  0  0  0  0
 29 28  2  0  0  0  0
 30 29  1  0  0  0  0
 31 30  1  0  0  0  0
 32 30  2  0  0  0  0
 32 33  1  0  0  0  0
 33 27  2  0  0  0  0
 34 33  1  0  0  0  0
M  END
>  <MODEL>
1

>  <REMARK>
 VINA RESULT:       3.4      0.000      0.000
  Name = BDB4968
                            x       y       z     vdW  Elec       q    Type
                         _______ _______ _______ _____ _____    ______ ____

>  <TORSDO>
F 9

>  <vina_score>
3.4

$$$$
BDB4972
 OpenBabel12261618073D

 38 40  0  0  1  0  0  0  0  0999 V2000
  -29.3130   12.8080  -17.7910 C   0  0  0  0  0  0  0  0  0  0  0  0
  -29.2090   11.6360  -18.1680 O   0  0  0  0  0  0  0  0  0  0  0  0
  -28.1110   13.5360  -17.5300 N   0  0  0  0  0  0  0  0  0  0  0  0
  -32.8500   12.7150  -16.6820 C   0  0  0  0  0  0  0  0  0  0  0  0
  -33.4900   13.4420  -17.6040 C   0  0  0  0  0  0  0  0  0  0  0  0
  -32.7520   14.1540  -18.6790 C   0  0  1  0  0  0  0  0  0  0  0  0
  -31.4490   13.4210  -18.9440 C   0  0  2  0  0  0  0  0  0  0  0  0
  -30.7200   13.3850  -17.6140 C   0  0  1  0  0  0  0  0  0  0  0  0
  -31.4360   12.5780  -16.6520 O   0  0  0  0  0  0  0  0  0  0  0  0
  -30.6670   14.1940  -19.9180 N   0  0  0  0  0  0  0  0  0  0  0  0
  -29.8690   13.7550  -20.2950 H   0  0  0  0  0  0  0  0  0  0  0  0
  -30.9500   15.5270  -20.3760 C   0  0  0  0  0  0  0  0  0  0  0  0
  -30.1860   16.0370  -21.2040 O   0  0  0  0  0  0  0  0  0  0  0  0
  -32.1360   16.3410  -19.8970 C   0  0  0  0  0  0  0  0  0  0  0  0
  -33.5620   14.2200  -19.9040 N   0  0  0  0  0  0  0  0  0  0  0  0
  -34.1950   13.4210  -19.9360 H   0  0  0  0  0  0  0  0  0  0  0  0
  -34.1040   15.0830  -19.9070 H   0  0  0  0  0  0  0  0  0  0  0  0
  -32.9480   14.2000  -20.7180 H   0  0  0  0  0  0  0  0  0  0  0  0
  -33.6420   11.9990  -15.6810 C   0  0  0  0  0  0  0  0  0  0  0  0
  -34.6240   12.6470  -15.0010 O   0  0  0  0  0  0  0  0  0  0  0  0
  -33.4170   10.8040  -15.4530 O   0  0  0  0  0  0  0  0  0  0  0  0
  -28.1090   14.8850  -17.0000 C   0  0  0  0  0  0  0  0  0  0  0  0
  -27.9410   15.9160  -18.1410 C   0  0  0  0  0  0  0  0  0  0  0  0
  -29.1670   16.8440  -18.1720 C   0  0  0  0  0  0  0  0  0  0  0  0
  -26.8530   12.8780  -17.7980 C   0  0  0  0  0  0  0  0  0  0  0  0
  -26.1920   13.4380  -19.0750 C   0  0  0  0  0  0  0  0  0  0  0  0
  -26.8030   12.7970  -20.2860 C   0  0  0  0  0  0  0  0  0  0  0  0
  -26.0170   12.5420  -21.4040 C   0  0  0  0  0  0  0  0  0  0  0  0
  -26.5800   11.9440  -22.5260 C   0  0  0  0  0  0  0  0  0  0  0  0
  -27.9260   11.6000  -22.5280 C   0  0  0  0  0  0  0  0  0  0  0  0
  -28.7110   11.8560  -21.4100 C   0  0  0  0  0  0  0  0  0  0  0  0
  -28.1490   12.4550  -20.2890 C   0  0  0  0  0  0  0  0  0  0  0  0
  -30.1310   11.4930  -21.4130 C   0  0  0  0  0  0  0  0  0  0  0  0
  -30.7710   11.1720  -20.2200 C   0  0  0  0  0  0  0  0  0  0  0  0
  -32.1170   10.8280  -20.2250 C   0  0  0  0  0  0  0  0  0  0  0  0
  -32.8250   10.8060  -21.4210 C   0  0  0  0  0  0  0  0  0  0  0  0
  -32.1860   11.1270  -22.6120 C   0  0  0  0  0  0  0  0  0  0  0  0
  -30.8380   11.4700  -22.6080 C   0  0  0  0  0  0  0  0  0  0  0  0
  1  3  1  0  0  0  0
  2  1  2  0  0  0  0
  3 22  1  0  0  0  0
  4  9  1  0  0  0  0
  4 19  1  0  0  0  0
  5  4  2  0  0  0  0
  6 15  1  6  0  0  0
  6  5  1  0  0  0  0
  7 10  1  6  0  0  0
  7  6  1  0  0  0  0
  7  8  1  0  0  0  0
  8  1  1  6  0  0  0
  8  9  1  0  0  0  0
 11 10  1  0  0  0  0
 12 10  1  0  0  0  0
 12 14  1  0  0  0  0
 13 12  2  0  0  0  0
 16 15  1  0  0  0  0
 17 15  1  0  0  0  0
 18 15  1  0  0  0  0
 19 21  2  0  0  0  0
 19 20  1  0  0  0  0
 23 22  1  0  0  0  0
 24 23  1  0  0  0  0
 25  3  1  0  0  0  0
 26 25  1  0  0  0  0
 27 26  1  0  0  0  0
 28 27  2  0  0  0  0
 29 28  1  0  0  0  0
 30 29  2  0  0  0  0
 30 31  1  0  0  0  0
 31 32  2  0  0  0  0
 32 27  1  0  0  0  0
 33 31  1  0  0  0  0
 33 34  2  0  0  0  0
 35 34  1  0  0  0  0
 36 35  2  0  0  0  0
 37 38  2  0  0  0  0
 37 36  1  0  0  0  0
 38 33  1  0  0  0  0
M  END
>  <MODEL>
1

>  <REMARK>
 VINA RESULT:       4.0      0.000      0.000
  Name = BDB4972
                            x       y       z     vdW  Elec       q    Type
                         _______ _______ _______ _____ _____    ______ ____

>  <TORSDO>
F 10

>  <vina_score>
4.0

$$$$
