BDB4934
 OpenBabel12261618113D

 32 32  0  0  1  0  0  0  0  0999 V2000
  -30.0850   12.6990  -18.7170 C   0  0  2  0  0  0  0  0  0  0  0  0
  -29.7770   13.0360  -20.1640 C   0  0  2  0  0  0  0  0  0  0  0  0
  -30.7160   12.2840  -21.0350 C   0  0  0  0  0  0  0  0  0  0  0  0
  -31.9290   11.9220  -20.6040 C   0  0  0  0  0  0  0  0  0  0  0  0
  -32.4130   12.2300  -19.3030 O   0  0  0  0  0  0  0  0  0  0  0  0
  -31.5430   13.0630  -18.5030 C   0  0  1  0  0  0  0  0  0  0  0  0
  -29.2340   13.5250  -17.8510 N   0  0  0  0  0  0  0  0  0  0  0  0
  -28.8170   13.0770  -17.0800 H   0  0  0  0  0  0  0  0  0  0  0  0
  -28.9480   14.9250  -18.0190 C   0  0  0  0  0  0  0  0  0  0  0  0
  -28.2070   15.4740  -17.1960 O   0  0  0  0  0  0  0  0  0  0  0  0
  -29.5070   15.7630  -19.1520 C   0  0  0  0  0  0  0  0  0  0  0  0
  -32.7880   11.1460  -21.5000 C   0  0  0  0  0  0  0  0  0  0  0  0
  -34.0430   10.8030  -21.1080 O   0  0  0  0  0  0  0  0  0  0  0  0
  -32.3720   10.8030  -22.6120 O   0  0  0  0  0  0  0  0  0  0  0  0
  -28.4050   12.6910  -20.4830 N   0  0  0  0  0  0  0  0  0  0  0  0
  -28.0220   11.8730  -20.0910 H   0  0  0  0  0  0  0  0  0  0  0  0
  -27.5960   13.4800  -21.3310 C   0  0  0  0  0  0  0  0  0  0  0  0
  -27.8340   13.4920  -22.5800 N   0  0  0  0  0  0  0  0  0  0  0  0
  -27.2770   14.0390  -23.1810 H   0  0  0  0  0  0  0  0  0  0  0  0
  -28.5750   12.9580  -22.9450 H   0  0  0  0  0  0  0  0  0  0  0  0
  -26.5370   14.2470  -20.8280 N   0  0  0  0  0  0  0  0  0  0  0  0
  -26.0540   13.9500  -20.0230 H   0  0  0  0  0  0  0  0  0  0  0  0
  -26.2770   15.0830  -21.2780 H   0  0  0  0  0  0  0  0  0  0  0  0
  -31.9210   12.8960  -17.0150 C   0  0  2  0  0  0  0  0  0  0  0  0
  -31.1230   11.8590  -16.4420 O   0  0  0  0  0  0  0  0  0  0  0  0
  -31.2810   11.8200  -15.4850 H   0  0  0  0  0  0  0  0  0  0  0  0
  -33.4130   12.5210  -16.8770 C   0  0  2  0  0  0  0  0  0  0  0  0
  -34.2200   13.4230  -17.6390 O   0  0  0  0  0  0  0  0  0  0  0  0
  -34.1070   13.2370  -18.5850 H   0  0  0  0  0  0  0  0  0  0  0  0
  -33.8220   12.6070  -15.3960 C   0  0  0  0  0  0  0  0  0  0  0  0
  -35.0440   13.3410  -15.2820 O   0  0  0  0  0  0  0  0  0  0  0  0
  -35.0410   14.0740  -15.9180 H   0  0  0  0  0  0  0  0  0  0  0  0
  1  6  1  0  0  0  0
  1  7  1  1  0  0  0
  2 15  1  6  0  0  0
  2  1  1  0  0  0  0
  3  4  2  0  0  0  0
  3  2  1  0  0  0  0
  4  5  1  0  0  0  0
  6  5  1  6  0  0  0
  6 24  1  0  0  0  0
  7  8  1  0  0  0  0
  9  7  1  0  0  0  0
  9 10  2  0  0  0  0
 11  9  1  0  0  0  0
 12 13  1  0  0  0  0
 12  4  1  0  0  0  0
 14 12  2  0  0  0  0
 15 16  1  0  0  0  0
 17 21  1  0  0  0  0
 17 15  1  0  0  0  0
 18 17  2  0  0  0  0
 19 18  1  0  0  0  0
 20 18  1  0  0  0  0
 21 22  1  0  0  0  0
 23 21  1  0  0  0  0
 24 27  1  0  0  0  0
 24 25  1  6  0  0  0
 25 26  1  0  0  0  0
 27 28  1  6  0  0  0
 27 30  1  0  0  0  0
 29 28  1  0  0  0  0
 30 31  1  0  0  0  0
 32 31  1  0  0  0  0
M  END
>  <MODEL>
1

>  <REMARK>
 VINA RESULT:      -6.6      0.000      0.000
  Name = BDB4934
                            x       y       z     vdW  Elec       q    Type
                         _______ _______ _______ _____ _____    ______ ____

>  <TORSDO>
F 11

>  <vina_score>
-6.6

$$$$
BDB5023
 OpenBabel12261618123D

 28 28  0  0  1  0  0  0  0  0999 V2000
  -32.6320   11.3430  -18.5350 C   0  0  0  0  0  0  0  0  0  0  0  0
  -32.2380   11.8240  -17.0930 C   0  0  1  0  0  0  0  0  0  0  0  0
  -30.8790   12.5470  -17.3110 C   0  0  0  0  0  0  0  0  0  0  0  0
  -31.0940   13.1590  -18.6880 C   0  0  2  0  0  0  0  0  0  0  0  0
  -31.5090   11.9080  -19.4230 C   0  0  2  0  0  0  0  0  0  0  0  0
  -33.2360   12.8810  -16.7070 C   0  0  0  0  0  0  0  0  0  0  0  0
  -33.2210   13.3570  -15.5660 O   0  0  0  0  0  0  0  0  0  0  0  0
  -34.1520   13.3130  -17.6120 O   0  0  0  0  0  0  0  0  0  0  0  0
  -31.9370   12.1460  -20.7870 N   0  0  0  0  0  0  0  0  0  0  0  0
  -31.4540   11.6970  -21.5180 H   0  0  0  0  0  0  0  0  0  0  0  0
  -33.0200   12.9950  -21.1120 C   0  0  0  0  0  0  0  0  0  0  0  0
  -32.7830   14.1320  -21.6270 N   0  0  0  0  0  0  0  0  0  0  0  0
  -33.5300   14.7330  -21.8560 H   0  0  0  0  0  0  0  0  0  0  0  0
  -31.8550   14.4130  -21.7950 H   0  0  0  0  0  0  0  0  0  0  0  0
  -34.3460   12.6110  -20.8770 N   0  0  0  0  0  0  0  0  0  0  0  0
  -34.8090   12.9110  -20.0610 H   0  0  0  0  0  0  0  0  0  0  0  0
  -34.8170   12.0420  -21.5290 H   0  0  0  0  0  0  0  0  0  0  0  0
  -29.7720   13.7640  -19.2790 C   0  0  1  0  0  0  0  0  0  0  0  0
  -29.7030   13.5100  -20.6940 N   0  0  0  0  0  0  0  0  0  0  0  0
  -30.5090   13.6320  -21.2460 H   0  0  0  0  0  0  0  0  0  0  0  0
  -28.5070   13.0910  -21.3050 C   0  0  0  0  0  0  0  0  0  0  0  0
  -28.4760   12.9140  -22.5260 O   0  0  0  0  0  0  0  0  0  0  0  0
  -27.2700   12.8430  -20.4840 C   0  0  0  0  0  0  0  0  0  0  0  0
  -29.4960   15.2890  -18.9120 C   0  0  0  0  0  0  0  0  0  0  0  0
  -28.1120   15.5950  -18.2580 C   0  0  0  0  0  0  0  0  0  0  0  0
  -27.5800   14.3910  -17.4520 C   0  0  0  0  0  0  0  0  0  0  0  0
  -29.6580   16.1470  -20.1840 C   0  0  0  0  0  0  0  0  0  0  0  0
  -30.9880   16.9240  -20.1240 C   0  0  0  0  0  0  0  0  0  0  0  0
  1  2  1  0  0  0  0
  2  6  1  6  0  0  0
  3  2  1  0  0  0  0
  4  3  1  1  0  0  0
  5  9  1  6  0  0  0
  5  4  1  0  0  0  0
  5  1  1  0  0  0  0
  6  7  1  0  0  0  0
  8  6  2  0  0  0  0
 10  9  1  0  0  0  0
 11 15  1  0  0  0  0
 11  9  1  0  0  0  0
 12 11  2  0  0  0  0
 13 12  1  0  0  0  0
 14 12  1  0  0  0  0
 15 16  1  0  0  0  0
 17 15  1  0  0  0  0
 18 19  1  6  0  0  0
 18 24  1  0  0  0  0
 18  4  1  0  0  0  0
 20 19  1  0  0  0  0
 21 19  1  0  0  0  0
 21 23  1  0  0  0  0
 22 21  2  0  0  0  0
 24 25  1  0  0  0  0
 25 26  1  0  0  0  0
 27 28  1  0  0  0  0
 27 24  1  0  0  0  0
M  END
>  <MODEL>
1

>  <REMARK>
 VINA RESULT:      -6.6      0.000      0.000
  Name = BDB5023
                            x       y       z     vdW  Elec       q    Type
                         _______ _______ _______ _____ _____    ______ ____

>  <TORSDO>
F 9

>  <vina_score>
-6.6

$$$$
BDB5234
 OpenBabel12261618123D

 26 26  0  0  1  0  0  0  0  0999 V2000
  -31.3070   12.9950  -18.0830 C   0  0  0  0  0  0  0  0  0  0  0  0
  -32.6110   12.6610  -17.9720 C   0  0  0  0  0  0  0  0  0  0  0  0
  -33.5900   12.6700  -19.1570 C   0  0  0  0  0  0  0  0  0  0  0  0
  -32.8810   12.5370  -20.5030 C   0  0  1  0  0  0  0  0  0  0  0  0
  -31.6920   13.5460  -20.5520 C   0  0  2  0  0  0  0  0  0  0  0  0
  -30.6250   13.3500  -19.3790 C   0  0  2  0  0  0  0  0  0  0  0  0
  -32.3420   14.9380  -20.6370 N   0  0  0  0  0  0  0  0  0  0  0  0
  -33.2440   14.9310  -21.0320 H   0  0  0  0  0  0  0  0  0  0  0  0
  -31.8740   16.2810  -20.2450 C   0  0  0  0  0  0  0  0  0  0  0  0
  -32.7270   17.1770  -20.2380 O   0  0  0  0  0  0  0  0  0  0  0  0
  -30.4670   16.7010  -19.9280 C   0  0  0  0  0  0  0  0  0  0  0  0
  -32.5180   11.1890  -20.6510 N   0  0  0  0  0  0  0  0  0  0  0  0
  -33.0190   10.7880  -21.4430 H   0  0  0  0  0  0  0  0  0  0  0  0
  -31.5130   11.1250  -20.8160 H   0  0  0  0  0  0  0  0  0  0  0  0
  -32.7560   10.6780  -19.8020 H   0  0  0  0  0  0  0  0  0  0  0  0
  -33.1040   12.3820  -16.6300 C   0  0  0  0  0  0  0  0  0  0  0  0
  -33.3960   11.1050  -16.2710 O   0  0  0  0  0  0  0  0  0  0  0  0
  -33.2840   13.3040  -15.8360 O   0  0  0  0  0  0  0  0  0  0  0  0
  -29.3910   12.3760  -19.4750 N   0  0  0  0  0  0  0  0  0  0  0  0
  -29.4510   11.8850  -18.5830 H   0  0  0  0  0  0  0  0  0  0  0  0
  -29.5070   11.8640  -20.3490 H   0  0  0  0  0  0  0  0  0  0  0  0
  -27.9510   12.8560  -19.4600 C   0  0  0  0  0  0  0  0  0  0  0  0
  -27.6420   14.0300  -20.4460 C   0  0  0  0  0  0  0  0  0  0  0  0
  -27.8470   13.6270  -21.9210 C   0  0  0  0  0  0  0  0  0  0  0  0
  -27.6270   13.3890  -18.0480 C   0  0  0  0  0  0  0  0  0  0  0  0
  -27.7170   14.9350  -18.0390 C   0  0  0  0  0  0  0  0  0  0  0  0
  1  2  2  0  0  0  0
  2 16  1  0  0  0  0
  3  2  1  0  0  0  0
  4 12  1  1  0  0  0
  4  3  1  0  0  0  0
  5  7  1  1  0  0  0
  5  4  1  0  0  0  0
  5  6  1  0  0  0  0
  6 19  1  6  0  0  0
  6  1  1  0  0  0  0
  7  9  1  0  0  0  0
  8  7  1  0  0  0  0
  9 10  2  0  0  0  0
  9 11  1  0  0  0  0
 12 15  1  0  0  0  0
 13 12  1  0  0  0  0
 14 12  1  0  0  0  0
 16 17  2  0  0  0  0
 16 18  1  0  0  0  0
 19 22  1  0  0  0  0
 19 20  1  0  0  0  0
 21 19  1  0  0  0  0
 22 25  1  0  0  0  0
 23 22  1  0  0  0  0
 24 23  1  0  0  0  0
 25 26  1  0  0  0  0
M  END
>  <MODEL>
1

>  <REMARK>
 VINA RESULT:      -6.4      0.000      0.000
  Name = BDB5234
                            x       y       z     vdW  Elec       q    Type
                         _______ _______ _______ _____ _____    ______ ____

>  <TORSDO>
F 7

>  <vina_score>
-6.4

$$$$
BDB5232
 OpenBabel12261618133D

 26 26  0  0  1  0  0  0  0  0999 V2000
  -31.3250   13.0450  -17.8270 C   0  0  0  0  0  0  0  0  0  0  0  0
  -32.6240   12.6660  -17.8700 C   0  0  0  0  0  0  0  0  0  0  0  0
  -33.4690   12.6410  -19.1700 C   0  0  0  0  0  0  0  0  0  0  0  0
  -32.5990   12.4900  -20.4120 C   0  0  1  0  0  0  0  0  0  0  0  0
  -31.4480   13.5650  -20.3120 C   0  0  2  0  0  0  0  0  0  0  0  0
  -30.5080   13.4370  -19.0430 C   0  0  2  0  0  0  0  0  0  0  0  0
  -32.1350   14.9190  -20.5030 N   0  0  0  0  0  0  0  0  0  0  0  0
  -33.0480   14.8530  -20.8640 H   0  0  0  0  0  0  0  0  0  0  0  0
  -31.6940   16.2980  -20.2500 C   0  0  0  0  0  0  0  0  0  0  0  0
  -32.5560   17.1770  -20.3660 O   0  0  0  0  0  0  0  0  0  0  0  0
  -30.3060   16.7660  -19.9230 C   0  0  0  0  0  0  0  0  0  0  0  0
  -32.2390   11.0810  -20.5010 N   0  0  0  0  0  0  0  0  0  0  0  0
  -32.7520   10.6470  -21.2670 H   0  0  0  0  0  0  0  0  0  0  0  0
  -31.2370   10.9960  -20.6700 H   0  0  0  0  0  0  0  0  0  0  0  0
  -32.4770   10.6130  -19.6250 H   0  0  0  0  0  0  0  0  0  0  0  0
  -33.2680   12.3730  -16.5970 C   0  0  0  0  0  0  0  0  0  0  0  0
  -33.5410   13.3810  -15.7310 O   0  0  0  0  0  0  0  0  0  0  0  0
  -33.5260   11.2070  -16.2930 O   0  0  0  0  0  0  0  0  0  0  0  0
  -29.2710   12.5030  -19.2480 N   0  0  0  0  0  0  0  0  0  0  0  0
  -29.6220   11.6020  -18.9230 H   0  0  0  0  0  0  0  0  0  0  0  0
  -28.8380   12.4320  -20.6840 C   0  0  0  0  0  0  0  0  0  0  0  0
  -27.4360   13.0260  -20.9660 C   0  0  0  0  0  0  0  0  0  0  0  0
  -27.5900   14.3510  -21.7330 C   0  0  0  0  0  0  0  0  0  0  0  0
  -28.1040   12.8350  -18.4580 C   0  0  0  0  0  0  0  0  0  0  0  0
  -28.3490   13.9780  -17.4700 C   0  0  0  0  0  0  0  0  0  0  0  0
  -27.5570   15.2080  -17.9590 C   0  0  0  0  0  0  0  0  0  0  0  0
  2  1  2  0  0  0  0
  2 16  1  0  0  0  0
  3  2  1  0  0  0  0
  4 12  1  1  0  0  0
  4  5  1  0  0  0  0
  4  3  1  0  0  0  0
  5  7  1  1  0  0  0
  5  6  1  0  0  0  0
  6 19  1  6  0  0  0
  6  1  1  0  0  0  0
  7  9  1  0  0  0  0
  8  7  1  0  0  0  0
  9 11  1  0  0  0  0
 10  9  2  0  0  0  0
 12 15  1  0  0  0  0
 13 12  1  0  0  0  0
 14 12  1  0  0  0  0
 16 18  2  0  0  0  0
 16 17  1  0  0  0  0
 19 20  1  0  0  0  0
 19 24  1  0  0  0  0
 21 19  1  0  0  0  0
 22 21  1  0  0  0  0
 23 22  1  0  0  0  0
 24 25  1  0  0  0  0
 26 25  1  0  0  0  0
M  END
>  <MODEL>
1

>  <REMARK>
 VINA RESULT:      -6.4      0.000      0.000
  Name = BDB5232
                            x       y       z     vdW  Elec       q    Type
                         _______ _______ _______ _____ _____    ______ ____

>  <TORSDO>
F 8

>  <vina_score>
-6.4

$$$$
BDB4995
 OpenBabel12261618113D

 25 25  0  0  1  0  0  0  0  0999 V2000
  -31.3890   12.9590  -18.1650 C   0  0  0  0  0  0  0  0  0  0  0  0
  -32.6950   12.6260  -18.0920 C   0  0  0  0  0  0  0  0  0  0  0  0
  -33.6550   12.6350  -19.3130 C   0  0  0  0  0  0  0  0  0  0  0  0
  -32.9240   12.5370  -20.6550 C   0  0  1  0  0  0  0  0  0  0  0  0
  -31.7170   13.5310  -20.6390 C   0  0  2  0  0  0  0  0  0  0  0  0
  -30.6800   13.2930  -19.4450 C   0  0  2  0  0  0  0  0  0  0  0  0
  -32.3170   14.9410  -20.7330 N   0  0  0  0  0  0  0  0  0  0  0  0
  -33.1990   14.9670  -21.1720 H   0  0  0  0  0  0  0  0  0  0  0  0
  -31.8350   16.2590  -20.2970 C   0  0  0  0  0  0  0  0  0  0  0  0
  -32.6680   17.1740  -20.2970 O   0  0  0  0  0  0  0  0  0  0  0  0
  -30.4280   16.6410  -19.9370 C   0  0  0  0  0  0  0  0  0  0  0  0
  -32.6010   11.1680  -20.8690 N   0  0  0  0  0  0  0  0  0  0  0  0
  -32.1740   11.0600  -21.7900 H   0  0  0  0  0  0  0  0  0  0  0  0
  -31.9470   10.8570  -20.1520 H   0  0  0  0  0  0  0  0  0  0  0  0
  -33.4510   10.6070  -20.8220 H   0  0  0  0  0  0  0  0  0  0  0  0
  -33.2290   12.3550  -16.7650 C   0  0  0  0  0  0  0  0  0  0  0  0
  -33.7450   13.3650  -16.0230 O   0  0  0  0  0  0  0  0  0  0  0  0
  -33.1840   11.2100  -16.3080 O   0  0  0  0  0  0  0  0  0  0  0  0
  -29.5500   12.2820  -19.6110 O   0  0  0  0  0  0  0  0  0  0  0  0
  -28.2140   12.6860  -20.0360 C   0  0  1  0  0  0  0  0  0  0  0  0
  -28.1190   12.7500  -21.5860 C   0  0  0  0  0  0  0  0  0  0  0  0
  -27.7470   14.1710  -22.0440 C   0  0  0  0  0  0  0  0  0  0  0  0
  -27.8880   14.0960  -19.5220 C   0  0  0  0  0  0  0  0  0  0  0  0
  -27.5910   13.9790  -18.0450 C   0  0  0  0  0  0  0  0  0  0  0  0
  -28.2520   14.7150  -17.1570 C   0  0  0  0  0  0  0  0  0  0  0  0
  1  2  2  0  0  0  0
  2 16  1  0  0  0  0
  3  2  1  0  0  0  0
  4 12  1  1  0  0  0
  4  5  1  0  0  0  0
  4  3  1  0  0  0  0
  5  7  1  1  0  0  0
  5  6  1  0  0  0  0
  6 19  1  6  0  0  0
  6  1  1  0  0  0  0
  7  9  1  0  0  0  0
  8  7  1  0  0  0  0
  9 10  2  0  0  0  0
  9 11  1  0  0  0  0
 12 15  1  0  0  0  0
 12 14  1  0  0  0  0
 13 12  1  0  0  0  0
 16 18  2  0  0  0  0
 16 17  1  0  0  0  0
 20 21  1  6  0  0  0
 20 19  1  0  0  0  0
 20 23  1  0  0  0  0
 22 21  1  0  0  0  0
 23 24  1  0  0  0  0
 24 25  2  0  0  0  0
M  END
>  <MODEL>
1

>  <REMARK>
 VINA RESULT:      -6.3      0.000      0.000
  Name = BDB4995
                            x       y       z     vdW  Elec       q    Type
                         _______ _______ _______ _____ _____    ______ ____

>  <TORSDO>
F 8

>  <vina_score>
-6.3

$$$$
BDB5008
 OpenBabel12261618133D

 25 25  0  0  1  0  0  0  0  0999 V2000
  -31.8080   14.6950  -20.2570 C   0  0  0  0  0  0  0  0  0  0  0  0
  -30.6630   14.6270  -19.5440 C   0  0  0  0  0  0  0  0  0  0  0  0
  -30.2930   13.4420  -18.6760 C   0  0  0  0  0  0  0  0  0  0  0  0
  -31.0710   12.1860  -19.0130 C   0  0  1  0  0  0  0  0  0  0  0  0
  -32.6140   12.5630  -19.1780 C   0  0  2  0  0  0  0  0  0  0  0  0
  -32.8220   13.5670  -20.3200 C   0  0  2  0  0  0  0  0  0  0  0  0
  -33.2810   12.9980  -17.8620 N   0  0  0  0  0  0  0  0  0  0  0  0
  -33.6350   13.9150  -17.8860 H   0  0  0  0  0  0  0  0  0  0  0  0
  -33.4960   12.3150  -16.5670 C   0  0  0  0  0  0  0  0  0  0  0  0
  -33.8660   13.0310  -15.6300 O   0  0  0  0  0  0  0  0  0  0  0  0
  -33.3600   10.8590  -16.2520 C   0  0  0  0  0  0  0  0  0  0  0  0
  -29.7560   15.7650  -19.5510 C   0  0  0  0  0  0  0  0  0  0  0  0
  -28.5800   15.6910  -18.8730 O   0  0  0  0  0  0  0  0  0  0  0  0
  -30.0550   16.7950  -20.1630 O   0  0  0  0  0  0  0  0  0  0  0  0
  -30.3600   11.3520  -20.1320 N   0  0  0  0  0  0  0  0  0  0  0  0
  -30.4300   10.3780  -20.0080 H   0  0  0  0  0  0  0  0  0  0  0  0
  -29.5890   11.7580  -21.3670 C   0  0  0  0  0  0  0  0  0  0  0  0
  -30.1730   11.6280  -22.4900 N   0  0  0  0  0  0  0  0  0  0  0  0
  -29.7100   11.8840  -23.3190 H   0  0  0  0  0  0  0  0  0  0  0  0
  -31.0910   11.2720  -22.5280 H   0  0  0  0  0  0  0  0  0  0  0  0
  -28.2550   12.2860  -21.4240 N   0  0  0  0  0  0  0  0  0  0  0  0
  -27.7940   12.3690  -22.2900 H   0  0  0  0  0  0  0  0  0  0  0  0
  -27.8000   12.5640  -20.5960 H   0  0  0  0  0  0  0  0  0  0  0  0
  -32.6970   12.9070  -21.5750 O   0  0  0  0  0  0  0  0  0  0  0  0
  -31.7880   13.0000  -21.9010 H   0  0  0  0  0  0  0  0  0  0  0  0
  1  2  2  0  0  0  0
  2  3  1  0  0  0  0
  4 15  1  6  0  0  0
  4  3  1  0  0  0  0
  5  4  1  0  0  0  0
  5  7  1  1  0  0  0
  6 24  1  6  0  0  0
  6  1  1  0  0  0  0
  6  5  1  0  0  0  0
  7  9  1  0  0  0  0
  8  7  1  0  0  0  0
  9 11  1  0  0  0  0
  9 10  2  0  0  0  0
 12  2  1  0  0  0  0
 12 13  1  0  0  0  0
 14 12  2  0  0  0  0
 15 16  1  0  0  0  0
 17 15  1  0  0  0  0
 18 17  2  0  0  0  0
 19 18  1  0  0  0  0
 20 18  1  0  0  0  0
 21 17  1  0  0  0  0
 21 23  1  0  0  0  0
 22 21  1  0  0  0  0
 25 24  1  0  0  0  0
M  END
>  <MODEL>
1

>  <REMARK>
 VINA RESULT:      -6.3      0.000      0.000
  Name = BDB5008
                            x       y       z     vdW  Elec       q    Type
                         _______ _______ _______ _____ _____    ______ ____

>  <TORSDO>
F 6

>  <vina_score>
-6.3

$$$$
BDB5219
 OpenBabel12261618143D

 24 24  0  0  1  0  0  0  0  0999 V2000
  -30.5620   14.1010  -18.7470 C   0  0  0  0  0  0  0  0  0  0  0  0
  -31.1400   14.4590  -19.9180 C   0  0  0  0  0  0  0  0  0  0  0  0
  -31.3240   13.4910  -21.1040 C   0  0  0  0  0  0  0  0  0  0  0  0
  -31.2620   12.0110  -20.6920 C   0  0  1  0  0  0  0  0  0  0  0  0
  -30.0020   11.8520  -19.7980 C   0  0  2  0  0  0  0  0  0  0  0  0
  -30.0630   12.7040  -18.4760 C   0  0  2  0  0  0  0  0  0  0  0  0
  -32.5380   11.6320  -20.0990 N   0  0  0  0  0  0  0  0  0  0  0  0
  -32.3940   11.3620  -19.1260 H   0  0  0  0  0  0  0  0  0  0  0  0
  -33.1800   12.4230  -20.1410 H   0  0  0  0  0  0  0  0  0  0  0  0
  -32.9320   10.8450  -20.6160 H   0  0  0  0  0  0  0  0  0  0  0  0
  -31.5070   15.8570  -20.0820 C   0  0  0  0  0  0  0  0  0  0  0  0
  -30.5440   16.8140  -20.0060 O   0  0  0  0  0  0  0  0  0  0  0  0
  -32.6840   16.1760  -20.2330 O   0  0  0  0  0  0  0  0  0  0  0  0
  -28.8560   12.1870  -20.6900 N   0  0  0  0  0  0  0  0  0  0  0  0
  -27.6890   12.9740  -20.4330 C   0  0  0  0  0  0  0  0  0  0  0  0
  -26.9050   12.7340  -19.5160 O   0  0  0  0  0  0  0  0  0  0  0  0
  -27.4330   14.1680  -21.2970 C   0  0  0  0  0  0  0  0  0  0  0  0
  -28.2770   15.1960  -20.9280 F   0  0  0  0  0  0  0  0  0  0  0  0
  -27.6670   13.8330  -22.6130 F   0  0  0  0  0  0  0  0  0  0  0  0
  -26.1190   14.5700  -21.1530 F   0  0  0  0  0  0  0  0  0  0  0  0
  -30.8630   12.0670  -17.4160 O   0  0  0  0  0  0  0  0  0  0  0  0
  -31.8570   12.8880  -16.8010 C   0  0  0  0  0  0  0  0  0  0  0  0
  -33.1330   12.0290  -16.6340 C   0  0  0  0  0  0  0  0  0  0  0  0
  -34.0470   12.6520  -15.5640 C   0  0  0  0  0  0  0  0  0  0  0  0
  1  6  1  0  0  0  0
  2  1  2  0  0  0  0
  3  4  1  0  0  0  0
  3  2  1  0  0  0  0
  4  7  1  1  0  0  0
  4  5  1  0  0  0  0
  5 14  1  6  0  0  0
  5  6  1  0  0  0  0
  6 21  1  1  0  0  0
  7  8  1  0  0  0  0
  9  7  1  0  0  0  0
 10  7  1  0  0  0  0
 11 12  1  0  0  0  0
 11  2  1  0  0  0  0
 13 11  2  0  0  0  0
 14 15  1  0  0  0  0
 15 16  2  0  0  0  0
 17 20  1  0  0  0  0
 17 18  1  0  0  0  0
 17 15  1  0  0  0  0
 19 17  1  0  0  0  0
 21 22  1  0  0  0  0
 22 23  1  0  0  0  0
 23 24  1  0  0  0  0
M  END
>  <MODEL>
1

>  <REMARK>
 VINA RESULT:      -6.3      0.000      0.000
  Name = BDB5219
                            x       y       z     vdW  Elec       q    Type
                         _______ _______ _______ _____ _____    ______ ____

>  <TORSDO>
F 8

>  <vina_score>
-6.3

$$$$
BDB5228
 OpenBabel12261618153D

 29 30  0  0  1  0  0  0  0  0999 V2000
  -31.4810   14.0710  -19.5760 C   0  0  0  0  0  0  0  0  0  0  0  0
  -30.5210   14.0520  -18.6260 C   0  0  0  0  0  0  0  0  0  0  0  0
  -30.4640   13.0160  -17.4530 C   0  0  0  0  0  0  0  0  0  0  0  0
  -31.3030   11.7740  -17.7250 C   0  0  1  0  0  0  0  0  0  0  0  0
  -32.6720   12.2270  -18.3000 C   0  0  2  0  0  0  0  0  0  0  0  0
  -32.5660   13.0420  -19.6740 C   0  0  2  0  0  0  0  0  0  0  0  0
  -33.4650   12.9170  -17.1690 N   0  0  0  0  0  0  0  0  0  0  0  0
  -33.5320   13.8930  -17.2800 H   0  0  0  0  0  0  0  0  0  0  0  0
  -34.1500   12.4170  -15.9490 C   0  0  0  0  0  0  0  0  0  0  0  0
  -34.8350   13.2430  -15.3360 O   0  0  0  0  0  0  0  0  0  0  0  0
  -34.0640   11.0550  -15.3260 C   0  0  0  0  0  0  0  0  0  0  0  0
  -30.5390   10.9490  -18.5820 N   0  0  0  0  0  0  0  0  0  0  0  0
  -31.1590   10.3170  -19.0870 H   0  0  0  0  0  0  0  0  0  0  0  0
  -30.0300   11.5300  -19.2480 H   0  0  0  0  0  0  0  0  0  0  0  0
  -29.8770   10.4050  -18.0290 H   0  0  0  0  0  0  0  0  0  0  0  0
  -29.5710   15.1480  -18.6220 C   0  0  0  0  0  0  0  0  0  0  0  0
  -28.6600   15.2500  -17.6250 O   0  0  0  0  0  0  0  0  0  0  0  0
  -29.6490   16.0290  -19.4870 O   0  0  0  0  0  0  0  0  0  0  0  0
  -32.3190   12.2490  -21.0020 N   0  0  0  0  0  0  0  0  0  0  0  0
  -33.0410   12.6600  -21.5930 H   0  0  0  0  0  0  0  0  0  0  0  0
  -32.5990   10.8030  -20.8810 C   0  0  0  0  0  0  0  0  0  0  0  0
  -31.1140   12.5650  -21.8340 C   0  0  0  0  0  0  0  0  0  0  0  0
  -29.8720   11.6900  -21.4980 C   0  0  0  0  0  0  0  0  0  0  0  0
  -28.6610   12.5940  -21.2430 C   0  0  0  0  0  0  0  0  0  0  0  0
  -27.8570   12.3950  -20.1170 C   0  0  0  0  0  0  0  0  0  0  0  0
  -26.7790   13.2330  -19.8760 C   0  0  0  0  0  0  0  0  0  0  0  0
  -26.4930   14.2840  -20.7470 C   0  0  0  0  0  0  0  0  0  0  0  0
  -27.2870   14.4840  -21.8630 C   0  0  0  0  0  0  0  0  0  0  0  0
  -28.3650   13.6340  -22.1060 C   0  0  0  0  0  0  0  0  0  0  0  0
  1  2  2  0  0  0  0
  2 16  1  0  0  0  0
  2  3  1  0  0  0  0
  4 12  1  6  0  0  0
  4  3  1  0  0  0  0
  5  4  1  0  0  0  0
  5  7  1  1  0  0  0
  6 19  1  6  0  0  0
  6  1  1  0  0  0  0
  6  5  1  0  0  0  0
  7  9  1  0  0  0  0
  8  7  1  0  0  0  0
  9 10  2  0  0  0  0
  9 11  1  0  0  0  0
 12 15  1  0  0  0  0
 13 12  1  0  0  0  0
 14 12  1  0  0  0  0
 16 17  1  0  0  0  0
 18 16  2  0  0  0  0
 19 21  1  0  0  0  0
 20 19  1  0  0  0  0
 22 23  1  0  0  0  0
 22 19  1  0  0  0  0
 23 24  1  0  0  0  0
 24 25  2  0  0  0  0
 25 26  1  0  0  0  0
 27 26  2  0  0  0  0
 28 27  1  0  0  0  0
 29 28  2  0  0  0  0
 29 24  1  0  0  0  0
M  END
>  <MODEL>
1

>  <REMARK>
 VINA RESULT:      -6.1      0.000      0.000
  Name = BDB5228
                            x       y       z     vdW  Elec       q    Type
                         _______ _______ _______ _____ _____    ______ ____

>  <TORSDO>
F 7

>  <vina_score>
-6.1

$$$$
BDB4986
 OpenBabel12261618153D

 25 25  0  0  1  0  0  0  0  0999 V2000
  -30.9300   12.6220  -18.7400 C   0  0  0  0  0  0  0  0  0  0  0  0
  -32.2030   12.2910  -18.3870 C   0  0  0  0  0  0  0  0  0  0  0  0
  -33.3760   12.4100  -19.3530 C   0  0  0  0  0  0  0  0  0  0  0  0
  -32.9240   12.4790  -20.8160 C   0  0  1  0  0  0  0  0  0  0  0  0
  -31.8000   13.5620  -20.9480 C   0  0  2  0  0  0  0  0  0  0  0  0
  -30.5760   13.0650  -20.1270 C   0  0  2  0  0  0  0  0  0  0  0  0
  -32.4100   14.9430  -20.7100 N   0  0  0  0  0  0  0  0  0  0  0  0
  -33.3730   14.9920  -20.9080 H   0  0  0  0  0  0  0  0  0  0  0  0
  -31.8360   16.2040  -20.2460 C   0  0  0  0  0  0  0  0  0  0  0  0
  -32.6380   17.1150  -20.0030 O   0  0  0  0  0  0  0  0  0  0  0  0
  -30.3850   16.5270  -20.0900 C   0  0  0  0  0  0  0  0  0  0  0  0
  -32.4970   11.1170  -21.2190 N   0  0  0  0  0  0  0  0  0  0  0  0
  -32.9170   10.8810  -22.1180 H   0  0  0  0  0  0  0  0  0  0  0  0
  -31.4810   11.0890  -21.2990 H   0  0  0  0  0  0  0  0  0  0  0  0
  -32.8000   10.4430  -20.5150 H   0  0  0  0  0  0  0  0  0  0  0  0
  -32.4140   11.9030  -16.9970 C   0  0  0  0  0  0  0  0  0  0  0  0
  -33.3190   12.6000  -16.2510 O   0  0  0  0  0  0  0  0  0  0  0  0
  -31.7760   10.9920  -16.4960 O   0  0  0  0  0  0  0  0  0  0  0  0
  -30.1120   11.8950  -20.8470 O   0  0  0  0  0  0  0  0  0  0  0  0
  -28.9750   12.1180  -21.6800 C   0  0  0  0  0  0  0  0  0  0  0  0
  -28.1710   13.3490  -21.1300 C   0  0  0  0  0  0  0  0  0  0  0  0
  -26.8730   12.9490  -20.3520 C   0  0  0  0  0  0  0  0  0  0  0  0
  -27.0760   13.2840  -18.8410 C   0  0  0  0  0  0  0  0  0  0  0  0
  -27.5490   14.7450  -18.6350 C   0  0  0  0  0  0  0  0  0  0  0  0
  -28.3780   14.8390  -17.3290 C   0  0  0  0  0  0  0  0  0  0  0  0
  1  2  2  0  0  0  0
  2 16  1  0  0  0  0
  3  2  1  0  0  0  0
  4 12  1  1  0  0  0
  4  3  1  0  0  0  0
  5  4  1  0  0  0  0
  5  7  1  1  0  0  0
  5  6  1  0  0  0  0
  6 19  1  6  0  0  0
  6  1  1  0  0  0  0
  7  9  1  0  0  0  0
  8  7  1  0  0  0  0
  9 11  1  0  0  0  0
  9 10  2  0  0  0  0
 12 15  1  0  0  0  0
 13 12  1  0  0  0  0
 14 12  1  0  0  0  0
 16 18  2  0  0  0  0
 16 17  1  0  0  0  0
 20 21  1  0  0  0  0
 20 19  1  0  0  0  0
 21 22  1  0  0  0  0
 22 23  1  0  0  0  0
 23 24  1  0  0  0  0
 24 25  1  0  0  0  0
M  END
>  <MODEL>
1

>  <REMARK>
 VINA RESULT:      -6.1      0.000      0.000
  Name = BDB4986
                            x       y       z     vdW  Elec       q    Type
                         _______ _______ _______ _____ _____    ______ ____

>  <TORSDO>
F 9

>  <vina_score>
-6.1

$$$$
BDB5009
 OpenBabel12261618123D

 27 27  0  0  1  0  0  0  0  0999 V2000
  -31.2540   13.8600  -19.8620 C   0  0  0  0  0  0  0  0  0  0  0  0
  -30.5730   14.9160  -19.3750 C   0  0  0  0  0  0  0  0  0  0  0  0
  -29.7660   14.8630  -18.0990 C   0  0  0  0  0  0  0  0  0  0  0  0
  -29.5070   13.4670  -17.6140 C   0  0  1  0  0  0  0  0  0  0  0  0
  -30.8060   12.5710  -17.7580 C   0  0  2  0  0  0  0  0  0  0  0  0
  -31.1630   12.4870  -19.2510 C   0  0  2  0  0  0  0  0  0  0  0  0
  -32.0020   12.9590  -16.8410 N   0  0  0  0  0  0  0  0  0  0  0  0
  -31.9700   13.8970  -16.5440 H   0  0  0  0  0  0  0  0  0  0  0  0
  -33.1850   12.2240  -16.3140 C   0  0  0  0  0  0  0  0  0  0  0  0
  -33.9350   12.8660  -15.5690 O   0  0  0  0  0  0  0  0  0  0  0  0
  -33.5890   10.8040  -16.5540 C   0  0  0  0  0  0  0  0  0  0  0  0
  -30.6260   16.1850  -20.0690 C   0  0  0  0  0  0  0  0  0  0  0  0
  -31.8330   16.7540  -20.3230 O   0  0  0  0  0  0  0  0  0  0  0  0
  -29.5840   16.7720  -20.3740 O   0  0  0  0  0  0  0  0  0  0  0  0
  -28.1940   12.9330  -18.2380 N   0  0  0  0  0  0  0  0  0  0  0  0
  -28.0820   11.9580  -18.1610 H   0  0  0  0  0  0  0  0  0  0  0  0
  -27.0470   13.6310  -18.9460 C   0  0  0  0  0  0  0  0  0  0  0  0
  -25.9430   13.0200  -18.9800 N   0  0  0  0  0  0  0  0  0  0  0  0
  -25.1660   13.4300  -19.4230 H   0  0  0  0  0  0  0  0  0  0  0  0
  -25.8590   12.1320  -18.5620 H   0  0  0  0  0  0  0  0  0  0  0  0
  -27.0480   14.9230  -19.5910 N   0  0  0  0  0  0  0  0  0  0  0  0
  -27.7600   15.5730  -19.3890 H   0  0  0  0  0  0  0  0  0  0  0  0
  -26.3370   15.1540  -20.2310 H   0  0  0  0  0  0  0  0  0  0  0  0
  -30.1040   11.8040  -19.9840 O   0  0  0  0  0  0  0  0  0  0  0  0
  -30.6050   11.0760  -21.1290 C   0  0  0  0  0  0  0  0  0  0  0  0
  -29.6540   11.2280  -22.3540 C   0  0  0  0  0  0  0  0  0  0  0  0
  -28.5190   12.2370  -22.0760 C   0  0  0  0  0  0  0  0  0  0  0  0
  1  2  2  0  0  0  0
  1  6  1  0  0  0  0
  2  3  1  0  0  0  0
  3  4  1  0  0  0  0
  4 15  1  6  0  0  0
  5  4  1  0  0  0  0
  5  7  1  1  0  0  0
  6 24  1  6  0  0  0
  6  5  1  0  0  0  0
  7  8  1  0  0  0  0
  7  9  1  0  0  0  0
  9 10  2  0  0  0  0
 11  9  1  0  0  0  0
 12  2  1  0  0  0  0
 13 12  1  0  0  0  0
 14 12  2  0  0  0  0
 15 16  1  0  0  0  0
 17 15  1  0  0  0  0
 18 17  1  0  0  0  0
 18 20  1  0  0  0  0
 19 18  1  0  0  0  0
 21 22  1  0  0  0  0
 21 17  2  0  0  0  0
 23 21  1  0  0  0  0
 25 24  1  0  0  0  0
 26 27  1  0  0  0  0
 26 25  1  0  0  0  0
M  END
>  <MODEL>
1

>  <REMARK>
 VINA RESULT:      -6.0      0.000      0.000
  Name = BDB5009
                            x       y       z     vdW  Elec       q    Type
                         _______ _______ _______ _____ _____    ______ ____

>  <TORSDO>
F 8

>  <vina_score>
-6.0

$$$$
BDB4977
 OpenBabel12261618143D

 27 28  0  0  1  0  0  0  0  0999 V2000
  -30.6420   12.0260  -18.9450 C   0  0  1  0  0  0  0  0  0  0  0  0
  -31.0730   13.4630  -18.4350 C   0  0  1  0  0  0  0  0  0  0  0  0
  -31.7570   14.2250  -19.5750 C   0  0  2  0  0  0  0  0  0  0  0  0
  -32.8060   13.3370  -20.1970 C   0  0  0  0  0  0  0  0  0  0  0  0
  -32.7570   11.9900  -20.1070 C   0  0  0  0  0  0  0  0  0  0  0  0
  -31.7440   11.2720  -19.4150 O   0  0  0  0  0  0  0  0  0  0  0  0
  -29.4990   12.0980  -20.0090 C   0  0  0  0  0  0  0  0  0  0  0  0
  -28.2390   12.8880  -19.9650 N   0  0  0  0  0  0  0  0  0  0  0  0
  -27.4390   12.9940  -21.1520 C   0  0  1  0  0  0  0  0  0  0  0  0
  -28.1440   13.9650  -22.1200 C   0  0  0  0  0  0  0  0  0  0  0  0
  -26.1540   13.6610  -20.6340 C   0  0  0  0  0  0  0  0  0  0  0  0
  -26.7870   14.6970  -19.7050 C   0  0  0  0  0  0  0  0  0  0  0  0
  -27.6860   13.7490  -18.8930 C   0  0  2  0  0  0  0  0  0  0  0  0
  -26.7020   12.9770  -17.9720 C   0  0  0  0  0  0  0  0  0  0  0  0
  -29.7050   11.4690  -21.0530 O   0  0  0  0  0  0  0  0  0  0  0  0
  -31.9170   13.5590  -17.1670 N   0  0  0  0  0  0  0  0  0  0  0  0
  -31.8230   14.4200  -16.6970 H   0  0  0  0  0  0  0  0  0  0  0  0
  -32.8340   12.6350  -16.5110 C   0  0  0  0  0  0  0  0  0  0  0  0
  -33.5090   13.1000  -15.5860 O   0  0  0  0  0  0  0  0  0  0  0  0
  -32.9960   11.1810  -16.7810 C   0  0  0  0  0  0  0  0  0  0  0  0
  -30.7890   14.6820  -20.5990 N   0  0  0  0  0  0  0  0  0  0  0  0
  -29.8630   14.3150  -20.3810 H   0  0  0  0  0  0  0  0  0  0  0  0
  -31.0810   14.3470  -21.5170 H   0  0  0  0  0  0  0  0  0  0  0  0
  -30.7580   15.7020  -20.6040 H   0  0  0  0  0  0  0  0  0  0  0  0
  -33.8240   11.1840  -20.6940 C   0  0  0  0  0  0  0  0  0  0  0  0
  -34.9170   10.8550  -19.9760 O   0  0  0  0  0  0  0  0  0  0  0  0
  -33.7150   10.8030  -21.8700 O   0  0  0  0  0  0  0  0  0  0  0  0
  1  7  1  6  0  0  0
  1  2  1  0  0  0  0
  2 16  1  1  0  0  0
  3 21  1  6  0  0  0
  3  2  1  0  0  0  0
  4  5  2  0  0  0  0
  4  3  1  0  0  0  0
  5  6  1  0  0  0  0
  6  1  1  0  0  0  0
  7  8  1  0  0  0  0
  8 13  1  0  0  0  0
  9 10  1  6  0  0  0
  9 11  1  0  0  0  0
  9  8  1  0  0  0  0
 11 12  1  0  0  0  0
 12 13  1  0  0  0  0
 13 14  1  1  0  0  0
 15  7  2  0  0  0  0
 16 17  1  0  0  0  0
 16 18  1  0  0  0  0
 18 19  2  0  0  0  0
 20 18  1  0  0  0  0
 21 22  1  0  0  0  0
 23 21  1  0  0  0  0
 24 21  1  0  0  0  0
 25  5  1  0  0  0  0
 25 26  1  0  0  0  0
 27 25  2  0  0  0  0
M  END
>  <MODEL>
1

>  <REMARK>
 VINA RESULT:      -6.0      0.000      0.000
  Name = BDB4977
                            x       y       z     vdW  Elec       q    Type
                         _______ _______ _______ _____ _____    ______ ____

>  <TORSDO>
F 4

>  <vina_score>
-6.0

$$$$
BDB5233
 OpenBabel12261618153D

 24 24  0  0  1  0  0  0  0  0999 V2000
  -31.3510   12.7740  -18.3050 C   0  0  0  0  0  0  0  0  0  0  0  0
  -32.6740   12.6160  -18.0670 C   0  0  0  0  0  0  0  0  0  0  0  0
  -33.7760   12.8110  -19.1490 C   0  0  0  0  0  0  0  0  0  0  0  0
  -33.2390   12.5970  -20.5620 C   0  0  1  0  0  0  0  0  0  0  0  0
  -31.9220   13.4570  -20.6900 C   0  0  2  0  0  0  0  0  0  0  0  0
  -30.7730   13.1030  -19.6620 C   0  0  2  0  0  0  0  0  0  0  0  0
  -32.3940   14.9140  -20.6780 N   0  0  0  0  0  0  0  0  0  0  0  0
  -33.3170   15.0340  -21.0000 H   0  0  0  0  0  0  0  0  0  0  0  0
  -31.7350   16.1690  -20.2800 C   0  0  0  0  0  0  0  0  0  0  0  0
  -32.4480   17.1780  -20.2610 O   0  0  0  0  0  0  0  0  0  0  0  0
  -30.2860   16.3740  -19.9420 C   0  0  0  0  0  0  0  0  0  0  0  0
  -33.1750   11.1540  -20.7810 N   0  0  0  0  0  0  0  0  0  0  0  0
  -34.0000   10.7120  -20.3760 H   0  0  0  0  0  0  0  0  0  0  0  0
  -33.1420   10.9620  -21.7820 H   0  0  0  0  0  0  0  0  0  0  0  0
  -32.3360   10.7800  -20.3360 H   0  0  0  0  0  0  0  0  0  0  0  0
  -33.0720   12.3560  -16.6910 C   0  0  0  0  0  0  0  0  0  0  0  0
  -33.2970   11.0820  -16.2820 O   0  0  0  0  0  0  0  0  0  0  0  0
  -33.2460   13.2960  -15.9120 O   0  0  0  0  0  0  0  0  0  0  0  0
  -29.8120   11.9820  -20.0660 N   0  0  0  0  0  0  0  0  0  0  0  0
  -29.2230   11.8080  -19.2510 H   0  0  0  0  0  0  0  0  0  0  0  0
  -30.3700   11.1750  -20.3480 H   0  0  0  0  0  0  0  0  0  0  0  0
  -28.9130   12.2990  -21.1440 C   0  0  0  0  0  0  0  0  0  0  0  0
  -27.7100   13.1240  -20.7000 C   0  0  0  0  0  0  0  0  0  0  0  0
  -27.5230   14.2670  -21.7210 C   0  0  0  0  0  0  0  0  0  0  0  0
  1  2  2  0  0  0  0
  2 16  1  0  0  0  0
  3  2  1  0  0  0  0
  4 12  1  1  0  0  0
  4  3  1  0  0  0  0
  5  7  1  1  0  0  0
  5  4  1  0  0  0  0
  5  6  1  0  0  0  0
  6 19  1  6  0  0  0
  6  1  1  0  0  0  0
  7  9  1  0  0  0  0
  8  7  1  0  0  0  0
  9 10  2  0  0  0  0
  9 11  1  0  0  0  0
 12 13  1  0  0  0  0
 12 15  1  0  0  0  0
 14 12  1  0  0  0  0
 16 17  2  0  0  0  0
 16 18  1  0  0  0  0
 19 20  1  0  0  0  0
 21 19  1  0  0  0  0
 22 23  1  0  0  0  0
 22 19  1  0  0  0  0
 24 23  1  0  0  0  0
M  END
>  <MODEL>
1

>  <REMARK>
 VINA RESULT:      -5.9      0.000      0.000
  Name = BDB5233
                            x       y       z     vdW  Elec       q    Type
                         _______ _______ _______ _____ _____    ______ ____

>  <TORSDO>
F 6

>  <vina_score>
-5.9

$$$$
BDB5242
 OpenBabel12261618153D

 22 22  0  0  1  0  0  0  0  0999 V2000
  -31.3740   13.0530  -17.4220 C   0  0  0  0  0  0  0  0  0  0  0  0
  -32.6830   12.7130  -17.5030 C   0  0  0  0  0  0  0  0  0  0  0  0
  -33.4810   12.6880  -18.8320 C   0  0  0  0  0  0  0  0  0  0  0  0
  -32.5730   12.4970  -20.0520 C   0  0  1  0  0  0  0  0  0  0  0  0
  -31.4170   13.5460  -19.9290 C   0  0  2  0  0  0  0  0  0  0  0  0
  -30.5340   13.3950  -18.6270 C   0  0  2  0  0  0  0  0  0  0  0  0
  -32.0800   14.9010  -20.1500 N   0  0  0  0  0  0  0  0  0  0  0  0
  -33.0430   14.8480  -20.3430 H   0  0  0  0  0  0  0  0  0  0  0  0
  -31.5530   16.2710  -20.1290 C   0  0  0  0  0  0  0  0  0  0  0  0
  -32.3810   17.1780  -20.2770 O   0  0  0  0  0  0  0  0  0  0  0  0
  -30.1210   16.6960  -19.9840 C   0  0  0  0  0  0  0  0  0  0  0  0
  -32.2100   11.0900  -20.1200 N   0  0  0  0  0  0  0  0  0  0  0  0
  -32.1290   10.8060  -21.0970 H   0  0  0  0  0  0  0  0  0  0  0  0
  -31.3150   10.9470  -19.6510 H   0  0  0  0  0  0  0  0  0  0  0  0
  -32.9290   10.5310  -19.6620 H   0  0  0  0  0  0  0  0  0  0  0  0
  -33.3800   12.4570  -16.2490 C   0  0  0  0  0  0  0  0  0  0  0  0
  -33.7320   11.1860  -15.9230 O   0  0  0  0  0  0  0  0  0  0  0  0
  -33.6820   13.3920  -15.5080 O   0  0  0  0  0  0  0  0  0  0  0  0
  -29.3470   12.3430  -18.7370 C   0  0  0  0  0  0  0  0  0  0  0  0
  -27.9680   12.9180  -19.0490 C   0  0  0  0  0  0  0  0  0  0  0  0
  -27.7980   13.1560  -20.5530 C   0  0  0  0  0  0  0  0  0  0  0  0
  -26.6240   14.1320  -20.7630 C   0  0  0  0  0  0  0  0  0  0  0  0
  2  1  2  0  0  0  0
  2 16  1  0  0  0  0
  3  2  1  0  0  0  0
  4 12  1  1  0  0  0
  4  5  1  0  0  0  0
  4  3  1  0  0  0  0
  5  7  1  1  0  0  0
  5  6  1  0  0  0  0
  6 19  1  6  0  0  0
  6  1  1  0  0  0  0
  7  9  1  0  0  0  0
  8  7  1  0  0  0  0
  9 11  1  0  0  0  0
 10  9  2  0  0  0  0
 12 15  1  0  0  0  0
 12 14  1  0  0  0  0
 13 12  1  0  0  0  0
 16 17  2  0  0  0  0
 16 18  1  0  0  0  0
 20 19  1  0  0  0  0
 21 20  1  0  0  0  0
 22 21  1  0  0  0  0
M  END
>  <MODEL>
1

>  <REMARK>
 VINA RESULT:      -5.9      0.000      0.000
  Name = BDB5242
                            x       y       z     vdW  Elec       q    Type
                         _______ _______ _______ _____ _____    ______ ____

>  <TORSDO>
F 6

>  <vina_score>
-5.9

$$$$
BDB5013
 OpenBabel12261618113D

 29 29  0  0  1  0  0  0  0  0999 V2000
  -31.4360   10.8090  -19.5850 C   0  0  0  0  0  0  0  0  0  0  0  0
  -32.5130   11.4670  -20.0760 C   0  0  0  0  0  0  0  0  0  0  0  0
  -33.2290   12.5650  -19.3270 C   0  0  0  0  0  0  0  0  0  0  0  0
  -32.3480   13.2210  -18.3190 C   0  0  1  0  0  0  0  0  0  0  0  0
  -31.6530   12.0740  -17.4290 C   0  0  2  0  0  0  0  0  0  0  0  0
  -30.7580   11.1360  -18.2560 C   0  0  2  0  0  0  0  0  0  0  0  0
  -32.7010   11.3000  -16.5920 N   0  0  0  0  0  0  0  0  0  0  0  0
  -32.6040   10.3230  -16.6580 H   0  0  0  0  0  0  0  0  0  0  0  0
  -33.8250   11.7180  -15.7090 C   0  0  0  0  0  0  0  0  0  0  0  0
  -34.4980   10.8040  -15.2210 O   0  0  0  0  0  0  0  0  0  0  0  0
  -34.2660   13.1070  -15.3480 C   0  0  0  0  0  0  0  0  0  0  0  0
  -33.0680   11.0810  -21.3630 C   0  0  0  0  0  0  0  0  0  0  0  0
  -34.4000   10.8320  -21.4700 O   0  0  0  0  0  0  0  0  0  0  0  0
  -32.3370   10.9880  -22.3530 O   0  0  0  0  0  0  0  0  0  0  0  0
  -31.5780   14.3630  -19.0470 N   0  0  0  0  0  0  0  0  0  0  0  0
  -30.7180   14.5920  -18.6280 H   0  0  0  0  0  0  0  0  0  0  0  0
  -31.8990   15.1890  -20.2770 C   0  0  0  0  0  0  0  0  0  0  0  0
  -31.3400   16.3360  -20.3570 N   0  0  0  0  0  0  0  0  0  0  0  0
  -31.5100   16.9120  -21.1360 H   0  0  0  0  0  0  0  0  0  0  0  0
  -30.7400   16.6420  -19.6380 H   0  0  0  0  0  0  0  0  0  0  0  0
  -32.7510   14.8610  -21.3890 N   0  0  0  0  0  0  0  0  0  0  0  0
  -33.6790   14.5780  -21.2310 H   0  0  0  0  0  0  0  0  0  0  0  0
  -32.4030   14.9210  -22.3080 H   0  0  0  0  0  0  0  0  0  0  0  0
  -29.3260   11.5870  -18.4550 O   0  0  0  0  0  0  0  0  0  0  0  0
  -28.9960   12.8960  -19.0000 C   0  0  0  0  0  0  0  0  0  0  0  0
  -27.9130   13.5910  -18.0710 C   0  0  0  0  0  0  0  0  0  0  0  0
  -28.0610   15.1300  -17.9390 C   0  0  0  0  0  0  0  0  0  0  0  0
  -28.4310   12.6470  -20.4530 C   0  0  0  0  0  0  0  0  0  0  0  0
  -26.9140   12.9450  -20.6190 C   0  0  0  0  0  0  0  0  0  0  0  0
  1  6  1  0  0  0  0
  2  1  2  0  0  0  0
  2  3  1  0  0  0  0
  3  4  1  0  0  0  0
  4 15  1  6  0  0  0
  4  5  1  0  0  0  0
  5  7  1  6  0  0  0
  6 24  1  6  0  0  0
  6  5  1  0  0  0  0
  7  9  1  0  0  0  0
  8  7  1  0  0  0  0
  9 11  1  0  0  0  0
  9 10  2  0  0  0  0
 12  2  1  0  0  0  0
 13 12  1  0  0  0  0
 14 12  2  0  0  0  0
 15 16  1  0  0  0  0
 17 15  1  0  0  0  0
 18 17  1  0  0  0  0
 18 20  1  0  0  0  0
 19 18  1  0  0  0  0
 21 22  1  0  0  0  0
 21 17  2  0  0  0  0
 23 21  1  0  0  0  0
 25 24  1  0  0  0  0
 25 26  1  0  0  0  0
 26 27  1  0  0  0  0
 28 25  1  0  0  0  0
 29 28  1  0  0  0  0
M  END
>  <MODEL>
1

>  <REMARK>
 VINA RESULT:      -5.9      0.000      0.000
  Name = BDB5013
                            x       y       z     vdW  Elec       q    Type
                         _______ _______ _______ _____ _____    ______ ____

>  <TORSDO>
F 9

>  <vina_score>
-5.9

$$$$
BDB5025
 OpenBabel12261618113D

 26 26  0  0  1  0  0  0  0  0999 V2000
  -31.2060   12.6360  -17.6050 C   0  0  0  0  0  0  0  0  0  0  0  0
  -30.2030   13.1170  -18.6160 C   0  0  2  0  0  0  0  0  0  0  0  0
  -30.7730   13.0780  -20.0360 C   0  0  1  0  0  0  0  0  0  0  0  0
  -32.0660   13.8760  -20.0150 C   0  0  2  0  0  0  0  0  0  0  0  0
  -33.0950   13.1110  -19.1640 C   0  0  0  0  0  0  0  0  0  0  0  0
  -32.5200   12.6450  -17.8430 C   0  0  0  0  0  0  0  0  0  0  0  0
  -29.8070   13.7180  -20.9400 N   0  0  0  0  0  0  0  0  0  0  0  0
  -29.7060   14.6940  -20.8630 H   0  0  0  0  0  0  0  0  0  0  0  0
  -28.9960   13.0580  -21.9270 C   0  0  0  0  0  0  0  0  0  0  0  0
  -28.2290   13.7470  -22.6110 O   0  0  0  0  0  0  0  0  0  0  0  0
  -29.0300   11.5620  -22.1730 C   0  0  0  0  0  0  0  0  0  0  0  0
  -32.5970   14.0220  -21.3770 N   0  0  0  0  0  0  0  0  0  0  0  0
  -32.2820   14.9090  -21.7720 H   0  0  0  0  0  0  0  0  0  0  0  0
  -32.2620   13.2530  -21.9580 H   0  0  0  0  0  0  0  0  0  0  0  0
  -33.6170   14.0060  -21.3490 H   0  0  0  0  0  0  0  0  0  0  0  0
  -33.4310   12.1510  -16.8130 C   0  0  0  0  0  0  0  0  0  0  0  0
  -33.3990   10.9620  -16.4760 O   0  0  0  0  0  0  0  0  0  0  0  0
  -34.3340   13.0260  -16.2140 O   0  0  0  0  0  0  0  0  0  0  0  0
  -34.1580   13.0100  -14.7950 C   0  0  0  0  0  0  0  0  0  0  0  0
  -35.3240   12.2410  -14.1470 C   0  0  0  0  0  0  0  0  0  0  0  0
  -28.9750   12.3330  -18.5360 O   0  0  0  0  0  0  0  0  0  0  0  0
  -27.8080   13.1010  -18.1280 C   0  0  0  0  0  0  0  0  0  0  0  0
  -27.0730   13.7330  -19.3460 C   0  0  0  0  0  0  0  0  0  0  0  0
  -25.9790   12.7700  -19.8620 C   0  0  0  0  0  0  0  0  0  0  0  0
  -28.2660   14.2360  -17.1850 C   0  0  0  0  0  0  0  0  0  0  0  0
  -27.9330   15.6090  -17.8070 C   0  0  0  0  0  0  0  0  0  0  0  0
  2 21  1  6  0  0  0
  2  1  1  0  0  0  0
  3  7  1  6  0  0  0
  3  4  1  0  0  0  0
  3  2  1  0  0  0  0
  4 12  1  6  0  0  0
  4  5  1  0  0  0  0
  5  6  1  0  0  0  0
  6  1  2  0  0  0  0
  6 16  1  0  0  0  0
  7  8  1  0  0  0  0
  9  7  1  0  0  0  0
 10  9  2  0  0  0  0
 11  9  1  0  0  0  0
 12 15  1  0  0  0  0
 13 12  1  0  0  0  0
 14 12  1  0  0  0  0
 16 17  2  0  0  0  0
 16 18  1  0  0  0  0
 18 19  1  0  0  0  0
 19 20  1  0  0  0  0
 21 22  1  0  0  0  0
 22 25  1  0  0  0  0
 23 22  1  0  0  0  0
 24 23  1  0  0  0  0
 26 25  1  0  0  0  0
M  END
>  <MODEL>
1

>  <REMARK>
 VINA RESULT:      -5.8      0.000      0.000
  Name = BDB5025
                            x       y       z     vdW  Elec       q    Type
                         _______ _______ _______ _____ _____    ______ ____

>  <TORSDO>
F 9

>  <vina_score>
-5.8

$$$$
BDB5024
 OpenBabel12261618123D

 30 30  0  0  1  0  0  0  0  0999 V2000
  -27.6980   14.8660  -18.7430 C   0  0  0  0  0  0  0  0  0  0  0  0
  -27.1610   13.5230  -19.3440 C   0  0  1  0  0  0  0  0  0  0  0  0
  -28.3520   12.5580  -19.1820 C   0  0  2  0  0  0  0  0  0  0  0  0
  -29.5490   13.4650  -19.5840 C   0  0  2  0  0  0  0  0  0  0  0  0
  -29.2410   14.6170  -18.5820 C   0  0  2  0  0  0  0  0  0  0  0  0
  -26.8300   13.7610  -20.8160 C   0  0  0  0  0  0  0  0  0  0  0  0
  -26.1060   14.6910  -21.1860 O   0  0  0  0  0  0  0  0  0  0  0  0
  -27.4340   12.9880  -21.7540 O   0  0  0  0  0  0  0  0  0  0  0  0
  -28.4520   12.1850  -17.8010 O   0  0  0  0  0  0  0  0  0  0  0  0
  -27.9540   12.8170  -17.2600 H   0  0  0  0  0  0  0  0  0  0  0  0
  -30.0400   15.8530  -18.6940 N   0  0  0  0  0  0  0  0  0  0  0  0
  -30.2630   16.3410  -17.8690 H   0  0  0  0  0  0  0  0  0  0  0  0
  -30.5150   16.3860  -19.9610 C   0  0  0  0  0  0  0  0  0  0  0  0
  -29.7210   17.0960  -20.6530 N   0  0  0  0  0  0  0  0  0  0  0  0
  -30.0200   17.4750  -21.5120 H   0  0  0  0  0  0  0  0  0  0  0  0
  -28.8060   17.2670  -20.3330 H   0  0  0  0  0  0  0  0  0  0  0  0
  -31.8420   16.1580  -20.4620 N   0  0  0  0  0  0  0  0  0  0  0  0
  -31.9940   16.0670  -21.4300 H   0  0  0  0  0  0  0  0  0  0  0  0
  -32.5990   16.0930  -19.8360 H   0  0  0  0  0  0  0  0  0  0  0  0
  -30.9530   12.7090  -19.4940 C   0  0  1  0  0  0  0  0  0  0  0  0
  -31.7930   13.3230  -18.4820 N   0  0  0  0  0  0  0  0  0  0  0  0
  -32.0400   14.2710  -18.5830 H   0  0  0  0  0  0  0  0  0  0  0  0
  -32.2680   12.6080  -17.3550 C   0  0  0  0  0  0  0  0  0  0  0  0
  -31.9510   11.1490  -17.1420 C   0  0  0  0  0  0  0  0  0  0  0  0
  -32.9680   13.1980  -16.5250 O   0  0  0  0  0  0  0  0  0  0  0  0
  -31.7600   12.5750  -20.8790 C   0  0  0  0  0  0  0  0  0  0  0  0
  -31.6710   11.2060  -21.6060 C   0  0  0  0  0  0  0  0  0  0  0  0
  -30.2280   10.8320  -22.0010 C   0  0  0  0  0  0  0  0  0  0  0  0
  -33.2620   12.9150  -20.6740 C   0  0  0  0  0  0  0  0  0  0  0  0
  -34.1200   11.6390  -20.5370 C   0  0  0  0  0  0  0  0  0  0  0  0
  1  5  1  0  0  0  0
  2  6  1  6  0  0  0
  2  3  1  0  0  0  0
  2  1  1  0  0  0  0
  3  9  1  1  0  0  0
  4 20  1  1  0  0  0
  4  3  1  0  0  0  0
  4  5  1  0  0  0  0
  5 11  1  6  0  0  0
  7  6  1  0  0  0  0
  8  6  2  0  0  0  0
  9 10  1  0  0  0  0
 11 12  1  0  0  0  0
 13 11  1  0  0  0  0
 14 16  1  0  0  0  0
 14 13  2  0  0  0  0
 15 14  1  0  0  0  0
 17 13  1  0  0  0  0
 17 19  1  0  0  0  0
 18 17  1  0  0  0  0
 20 26  1  6  0  0  0
 20 21  1  0  0  0  0
 21 23  1  0  0  0  0
 22 21  1  0  0  0  0
 23 24  1  0  0  0  0
 23 25  2  0  0  0  0
 26 29  1  0  0  0  0
 27 26  1  0  0  0  0
 28 27  1  0  0  0  0
 29 30  1  0  0  0  0
M  END
>  <MODEL>
1

>  <REMARK>
 VINA RESULT:      -5.8      0.000      0.000
  Name = BDB5024
                            x       y       z     vdW  Elec       q    Type
                         _______ _______ _______ _____ _____    ______ ____

>  <TORSDO>
F 10

>  <vina_score>
-5.8

$$$$
BDB5021
 OpenBabel12261618143D

 27 28  0  0  1  0  0  0  0  0999 V2000
  -33.2510   12.6310  -18.7950 C   0  0  0  0  0  0  0  0  0  0  0  0
  -33.1010   11.3300  -17.9290 C   0  0  1  0  0  0  0  0  0  0  0  0
  -31.5630   11.1040  -17.8790 C   0  0  0  0  0  0  0  0  0  0  0  0
  -31.0590   12.5410  -17.8600 C   0  0  2  0  0  0  0  0  0  0  0  0
  -31.7960   13.0490  -19.0740 C   0  0  2  0  0  0  0  0  0  0  0  0
  -33.5320   11.6920  -16.5340 C   0  0  0  0  0  0  0  0  0  0  0  0
  -33.7290   10.8030  -15.6980 O   0  0  0  0  0  0  0  0  0  0  0  0
  -33.7040   12.9960  -16.1930 O   0  0  0  0  0  0  0  0  0  0  0  0
  -31.6530   14.4750  -19.2920 N   0  0  0  0  0  0  0  0  0  0  0  0
  -31.1220   14.9990  -18.6500 H   0  0  0  0  0  0  0  0  0  0  0  0
  -32.2440   15.1440  -20.3880 C   0  0  0  0  0  0  0  0  0  0  0  0
  -32.3520   16.4090  -20.3580 N   0  0  0  0  0  0  0  0  0  0  0  0
  -32.7620   16.8860  -21.1160 H   0  0  0  0  0  0  0  0  0  0  0  0
  -32.0260   16.9120  -19.5770 H   0  0  0  0  0  0  0  0  0  0  0  0
  -32.7150   14.4420  -21.5060 N   0  0  0  0  0  0  0  0  0  0  0  0
  -32.1080   14.2510  -22.2580 H   0  0  0  0  0  0  0  0  0  0  0  0
  -33.6510   14.1390  -21.5390 H   0  0  0  0  0  0  0  0  0  0  0  0
  -29.9800   13.1160  -18.9170 C   0  0  1  0  0  0  0  0  0  0  0  0
  -28.5610   12.7220  -18.2290 N   0  0  0  0  0  0  0  0  0  0  0  0
  -28.1390   11.8740  -17.9550 H   0  0  0  0  0  0  0  0  0  0  0  0
  -28.1620   14.1150  -18.1800 C   0  0  0  0  0  0  0  0  0  0  0  0
  -27.2160   14.4160  -17.4410 O   0  0  0  0  0  0  0  0  0  0  0  0
  -28.8410   15.2310  -18.9470 C   0  0  0  0  0  0  0  0  0  0  0  0
  -30.0680   12.0360  -20.1910 C   0  0  0  0  0  0  0  0  0  0  0  0
  -29.5660   12.2490  -21.6320 C   0  0  0  0  0  0  0  0  0  0  0  0
  -28.0490   12.5050  -21.6160 C   0  0  0  0  0  0  0  0  0  0  0  0
  -27.7670   13.9370  -22.1070 C   0  0  0  0  0  0  0  0  0  0  0  0
  1  2  1  0  0  0  0
  2  3  1  0  0  0  0
  2  6  1  1  0  0  0
  4  3  1  6  0  0  0
  5  9  1  1  0  0  0
  5 18  1  0  0  0  0
  5  1  1  0  0  0  0
  5  4  1  0  0  0  0
  6  8  2  0  0  0  0
  6  7  1  0  0  0  0
  9 10  1  0  0  0  0
 11 12  1  0  0  0  0
 11  9  1  0  0  0  0
 12 14  1  0  0  0  0
 13 12  1  0  0  0  0
 15 11  2  0  0  0  0
 16 15  1  0  0  0  0
 17 15  1  0  0  0  0
 18 24  1  6  0  0  0
 18 19  1  0  0  0  0
 18  4  1  0  0  0  0
 19 21  1  0  0  0  0
 19 20  1  0  0  0  0
 21 22  2  0  0  0  0
 23 21  1  0  0  0  0
 25 26  1  0  0  0  0
 25 24  1  0  0  0  0
 27 26  1  0  0  0  0
M  END
>  <MODEL>
1

>  <REMARK>
 VINA RESULT:      -5.8      0.000      0.000
  Name = BDB5021
                            x       y       z     vdW  Elec       q    Type
                         _______ _______ _______ _____ _____    ______ ____

>  <TORSDO>
F 9

>  <vina_score>
-5.8

$$$$
BDB5222
 OpenBabel12261618143D

 24 24  0  0  1  0  0  0  0  0999 V2000
  -30.3950   13.6390  -20.6340 C   0  0  0  0  0  0  0  0  0  0  0  0
  -30.7040   14.5210  -19.6680 C   0  0  0  0  0  0  0  0  0  0  0  0
  -30.6800   14.1610  -18.1710 C   0  0  0  0  0  0  0  0  0  0  0  0
  -29.8560   12.8990  -17.8810 C   0  0  1  0  0  0  0  0  0  0  0  0
  -30.2760   11.7790  -18.8890 C   0  0  2  0  0  0  0  0  0  0  0  0
  -29.9170   12.2360  -20.3490 C   0  0  2  0  0  0  0  0  0  0  0  0
  -31.7150   11.3280  -18.6010 N   0  0  0  0  0  0  0  0  0  0  0  0
  -31.9160   11.2430  -17.6410 H   0  0  0  0  0  0  0  0  0  0  0  0
  -32.8540   10.9970  -19.4730 C   0  0  0  0  0  0  0  0  0  0  0  0
  -33.9360   10.8030  -18.9070 O   0  0  0  0  0  0  0  0  0  0  0  0
  -32.8430   10.8030  -20.9580 C   0  0  0  0  0  0  0  0  0  0  0  0
  -31.1490   15.8490  -20.0640 C   0  0  0  0  0  0  0  0  0  0  0  0
  -30.2660   16.8770  -20.0960 O   0  0  0  0  0  0  0  0  0  0  0  0
  -32.3320   16.0370  -20.3690 O   0  0  0  0  0  0  0  0  0  0  0  0
  -28.4010   13.2540  -17.9060 N   0  0  0  0  0  0  0  0  0  0  0  0
  -27.7390   12.5980  -18.2230 H   0  0  0  0  0  0  0  0  0  0  0  0
  -27.9690   14.5550  -17.4660 C   0  0  0  0  0  0  0  0  0  0  0  0
  -27.4700   15.3830  -18.2830 N   0  0  0  0  0  0  0  0  0  0  0  0
  -27.1780   16.2690  -17.9690 H   0  0  0  0  0  0  0  0  0  0  0  0
  -27.3710   15.1400  -19.2320 H   0  0  0  0  0  0  0  0  0  0  0  0
  -28.4690   12.2780  -20.5500 O   0  0  0  0  0  0  0  0  0  0  0  0
  -28.0940   13.2690  -21.5320 C   0  0  0  0  0  0  0  0  0  0  0  0
  -26.7510   13.9560  -21.1600 C   0  0  0  0  0  0  0  0  0  0  0  0
  -25.8180   12.9980  -20.4030 C   0  0  0  0  0  0  0  0  0  0  0  0
  1  6  1  0  0  0  0
  1  2  2  0  0  0  0
  2  3  1  0  0  0  0
  3  4  1  0  0  0  0
  4 15  1  6  0  0  0
  5  7  1  6  0  0  0
  5  4  1  0  0  0  0
  6 21  1  1  0  0  0
  6  5  1  0  0  0  0
  7  8  1  0  0  0  0
  9 10  2  0  0  0  0
  9  7  1  0  0  0  0
 11  9  1  0  0  0  0
 12  2  1  0  0  0  0
 13 12  1  0  0  0  0
 14 12  2  0  0  0  0
 15 17  1  0  0  0  0
 16 15  1  0  0  0  0
 18 19  1  0  0  0  0
 18 17  1  0  0  0  0
 20 18  1  0  0  0  0
 22 23  1  0  0  0  0
 22 21  1  0  0  0  0
 23 24  1  0  0  0  0
M  END
>  <MODEL>
1

>  <REMARK>
 VINA RESULT:      -5.8      0.000      0.000
  Name = BDB5222
                            x       y       z     vdW  Elec       q    Type
                         _______ _______ _______ _____ _____    ______ ____

>  <TORSDO>
F 7

>  <vina_score>
-5.8

$$$$
BDB5199
 OpenBabel12261618113D

 26 27  0  0  1  0  0  0  0  0999 V2000
  -31.2280   12.9450  -16.6900 C   0  0  0  0  0  0  0  0  0  0  0  0
  -30.7100   13.5950  -17.9470 C   0  0  2  0  0  0  0  0  0  0  0  0
  -31.4130   12.7050  -18.9640 C   0  0  1  0  0  0  0  0  0  0  0  0
  -32.8220   12.6510  -18.4900 N   0  0  0  0  0  0  0  0  0  0  0  0
  -33.2560   11.7430  -18.6530 H   0  0  0  0  0  0  0  0  0  0  0  0
  -33.3960   13.3320  -18.9860 H   0  0  0  0  0  0  0  0  0  0  0  0
  -32.7290   12.9920  -17.0320 C   0  0  1  0  0  0  0  0  0  0  0  0
  -29.2140   13.5100  -18.0700 C   0  0  0  0  0  0  0  0  0  0  0  0
  -28.5760   12.4630  -18.5530 N   0  0  0  0  0  0  0  0  0  0  0  0
  -27.2840   12.7550  -18.5010 C   0  0  0  0  0  0  0  0  0  0  0  0
  -27.1640   14.0320  -17.9630 C   0  0  0  0  0  0  0  0  0  0  0  0
  -28.3900   14.4720  -17.7060 N   0  0  0  0  0  0  0  0  0  0  0  0
  -28.6340   15.3430  -17.3210 H   0  0  0  0  0  0  0  0  0  0  0  0
  -33.5380   12.0730  -16.1640 C   0  0  0  0  0  0  0  0  0  0  0  0
  -34.3750   12.5860  -15.2260 O   0  0  0  0  0  0  0  0  0  0  0  0
  -33.4380   10.8480  -16.3020 O   0  0  0  0  0  0  0  0  0  0  0  0
  -32.3480   13.1650  -20.1700 C   0  0  1  0  0  0  0  0  0  0  0  0
  -32.5050   14.6640  -19.9610 N   0  0  0  0  0  0  0  0  0  0  0  0
  -33.2850   14.7810  -19.3720 H   0  0  0  0  0  0  0  0  0  0  0  0
  -32.0210   15.9580  -20.2410 C   0  0  0  0  0  0  0  0  0  0  0  0
  -32.7800   16.7990  -20.7260 O   0  0  0  0  0  0  0  0  0  0  0  0
  -30.5900   16.3300  -19.9440 C   0  0  0  0  0  0  0  0  0  0  0  0
  -31.4120   13.0410  -21.5350 C   0  0  0  0  0  0  0  0  0  0  0  0
  -31.4680   11.5890  -20.9700 C   0  0  0  0  0  0  0  0  0  0  0  0
  -32.7500   10.8500  -21.4110 C   0  0  0  0  0  0  0  0  0  0  0  0
  -30.2530   10.8080  -21.5000 C   0  0  0  0  0  0  0  0  0  0  0  0
  2  8  1  1  0  0  0
  2  1  1  0  0  0  0
  3  4  1  1  0  0  0
  3  2  1  0  0  0  0
  4  7  1  0  0  0  0
  5  4  1  0  0  0  0
  6  4  1  0  0  0  0
  7  1  1  0  0  0  0
  7 14  1  1  0  0  0
  8 12  1  0  0  0  0
  9 10  1  0  0  0  0
  9  8  2  0  0  0  0
 10 11  2  0  0  0  0
 11 12  1  0  0  0  0
 12 13  1  0  0  0  0
 14 15  1  0  0  0  0
 16 14  2  0  0  0  0
 17 23  1  6  0  0  0
 17 18  1  0  0  0  0
 17  3  1  0  0  0  0
 18 19  1  0  0  0  0
 20 18  1  0  0  0  0
 20 22  1  0  0  0  0
 21 20  2  0  0  0  0
 23 24  1  0  0  0  0
 25 24  1  0  0  0  0
 26 24  1  0  0  0  0
M  END
>  <MODEL>
1

>  <REMARK>
 VINA RESULT:      -5.8      0.000      0.000
  Name = BDB5199
                            x       y       z     vdW  Elec       q    Type
                         _______ _______ _______ _____ _____    ______ ____

>  <TORSDO>
F 6

>  <vina_score>
-5.8

$$$$
BDB5257
 OpenBabel12261618143D

 25 26  0  0  1  0  0  0  0  0999 V2000
  -30.6400   13.1200  -18.0200 C   0  0  0  0  0  0  0  0  0  0  0  0
  -31.8580   12.5290  -18.0310 C   0  0  0  0  0  0  0  0  0  0  0  0
  -32.7700   12.4820  -19.2780 C   0  0  0  0  0  0  0  0  0  0  0  0
  -31.9660   12.5820  -20.5760 C   0  0  1  0  0  0  0  0  0  0  0  0
  -31.0220   13.8370  -20.4410 C   0  0  2  0  0  0  0  0  0  0  0  0
  -30.0070   13.7700  -19.2260 C   0  0  2  0  0  0  0  0  0  0  0  0
  -28.6410   13.1100  -19.4850 N   0  0  0  0  0  0  0  0  0  0  0  0
  -28.8020   12.1160  -19.3190 H   0  0  0  0  0  0  0  0  0  0  0  0
  -28.2290   13.4560  -20.8570 C   0  0  0  0  0  0  0  0  0  0  0  0
  -26.9130   12.7290  -21.2180 C   0  0  0  0  0  0  0  0  0  0  0  0
  -25.8790   13.1060  -20.3060 O   0  0  0  0  0  0  0  0  0  0  0  0
  -26.2560   12.7270  -18.9850 C   0  0  0  0  0  0  0  0  0  0  0  0
  -27.5450   13.4630  -18.5960 C   0  0  0  0  0  0  0  0  0  0  0  0
  -31.9790   15.0310  -20.4580 N   0  0  0  0  0  0  0  0  0  0  0  0
  -32.9060   14.7960  -20.6920 H   0  0  0  0  0  0  0  0  0  0  0  0
  -31.7740   16.4630  -20.1900 C   0  0  0  0  0  0  0  0  0  0  0  0
  -32.7940   17.1620  -20.1400 O   0  0  0  0  0  0  0  0  0  0  0  0
  -30.4650   17.1780  -20.0180 C   0  0  0  0  0  0  0  0  0  0  0  0
  -31.3620   11.2780  -20.7990 N   0  0  0  0  0  0  0  0  0  0  0  0
  -31.7520   10.6050  -20.1400 H   0  0  0  0  0  0  0  0  0  0  0  0
  -31.5550   10.9730  -21.7530 H   0  0  0  0  0  0  0  0  0  0  0  0
  -30.3530   11.3430  -20.6620 H   0  0  0  0  0  0  0  0  0  0  0  0
  -32.3440   12.0090  -16.7610 C   0  0  0  0  0  0  0  0  0  0  0  0
  -31.8790   10.8210  -16.2990 O   0  0  0  0  0  0  0  0  0  0  0  0
  -33.2070   12.6230  -16.1340 O   0  0  0  0  0  0  0  0  0  0  0  0
  2  1  2  0  0  0  0
  2 23  1  0  0  0  0
  3  2  1  0  0  0  0
  4 19  1  1  0  0  0
  4  5  1  0  0  0  0
  4  3  1  0  0  0  0
  5 14  1  1  0  0  0
  5  6  1  0  0  0  0
  6  7  1  6  0  0  0
  6  1  1  0  0  0  0
  7  8  1  0  0  0  0
  7 13  1  0  0  0  0
  9  7  1  0  0  0  0
 10  9  1  0  0  0  0
 10 11  1  0  0  0  0
 11 12  1  0  0  0  0
 12 13  1  0  0  0  0
 14 16  1  0  0  0  0
 15 14  1  0  0  0  0
 16 17  2  0  0  0  0
 16 18  1  0  0  0  0
 19 22  1  0  0  0  0
 19 20  1  0  0  0  0
 21 19  1  0  0  0  0
 23 24  2  0  0  0  0
 23 25  1  0  0  0  0
M  END
>  <MODEL>
1

>  <REMARK>
 VINA RESULT:      -5.7      0.000      0.000
  Name = BDB5257
                            x       y       z     vdW  Elec       q    Type
                         _______ _______ _______ _____ _____    ______ ____

>  <TORSDO>
F 4

>  <vina_score>
-5.7

$$$$
BDB5204
 OpenBabel12261618103D

 23 23  0  0  1  0  0  0  0  0999 V2000
  -28.9440   14.8770  -19.4430 C   0  0  0  0  0  0  0  0  0  0  0  0
  -28.7310   13.3950  -19.2770 C   0  0  2  0  0  0  0  0  0  0  0  0
  -30.0660   13.0480  -18.6320 C   0  0  1  0  0  0  0  0  0  0  0  0
  -31.0740   13.7250  -19.4920 N   0  0  0  0  0  0  0  0  0  0  0  0
  -31.8670   14.0820  -18.9600 H   0  0  0  0  0  0  0  0  0  0  0  0
  -31.4610   13.0750  -20.1750 H   0  0  0  0  0  0  0  0  0  0  0  0
  -30.2990   14.8140  -20.1720 C   0  0  1  0  0  0  0  0  0  0  0  0
  -27.5730   13.0710  -18.3770 C   0  0  0  0  0  0  0  0  0  0  0  0
  -26.3590   12.8970  -18.8940 C   0  0  0  0  0  0  0  0  0  0  0  0
  -26.1480   13.0270  -20.3730 C   0  0  0  0  0  0  0  0  0  0  0  0
  -31.0130   16.1350  -20.1580 C   0  0  0  0  0  0  0  0  0  0  0  0
  -32.3540   16.1840  -20.3650 O   0  0  0  0  0  0  0  0  0  0  0  0
  -30.3780   17.1780  -19.9640 O   0  0  0  0  0  0  0  0  0  0  0  0
  -31.1150   11.9460  -19.1080 C   0  0  1  0  0  0  0  0  0  0  0  0
  -30.4150   11.2520  -20.2670 N   0  0  0  0  0  0  0  0  0  0  0  0
  -29.7820   10.6130  -19.8660 H   0  0  0  0  0  0  0  0  0  0  0  0
  -30.2760   11.1230  -21.6640 C   0  0  0  0  0  0  0  0  0  0  0  0
  -29.1660   11.2630  -22.1800 O   0  0  0  0  0  0  0  0  0  0  0  0
  -31.4660   10.8040  -22.5330 C   0  0  0  0  0  0  0  0  0  0  0  0
  -31.1410   10.8030  -17.9060 C   0  0  0  0  0  0  0  0  0  0  0  0
  -32.5640   11.4380  -17.8690 C   0  0  0  0  0  0  0  0  0  0  0  0
  -33.4420   10.9500  -19.0420 C   0  0  0  0  0  0  0  0  0  0  0  0
  -33.2490   11.0350  -16.5520 C   0  0  0  0  0  0  0  0  0  0  0  0
  1  2  1  0  0  0  0
  2  3  1  0  0  0  0
  2  8  1  1  0  0  0
  3  4  1  6  0  0  0
  4  5  1  0  0  0  0
  6  4  1  0  0  0  0
  7 11  1  1  0  0  0
  7  4  1  0  0  0  0
  7  1  1  0  0  0  0
  9  8  2  0  0  0  0
 10  9  1  0  0  0  0
 11 13  1  0  0  0  0
 12 11  2  0  0  0  0
 14 15  1  6  0  0  0
 14  3  1  0  0  0  0
 14 20  1  0  0  0  0
 15 16  1  0  0  0  0
 17 15  1  0  0  0  0
 18 17  2  0  0  0  0
 19 17  1  0  0  0  0
 20 21  1  0  0  0  0
 21 23  1  0  0  0  0
 22 21  1  0  0  0  0
M  END
>  <MODEL>
1

>  <REMARK>
 VINA RESULT:      -5.5      0.000      0.000
  Name = BDB5204
                            x       y       z     vdW  Elec       q    Type
                         _______ _______ _______ _____ _____    ______ ____

>  <TORSDO>
F 6

>  <vina_score>
-5.5

$$$$
BDB4983
 OpenBabel12261618143D

 22 22  0  0  1  0  0  0  0  0999 V2000
  -30.1870   12.6730  -19.9810 C   0  0  0  0  0  0  0  0  0  0  0  0
  -31.1770   12.3170  -20.8380 C   0  0  0  0  0  0  0  0  0  0  0  0
  -32.6700   12.5620  -20.5450 C   0  0  0  0  0  0  0  0  0  0  0  0
  -32.8900   13.6800  -19.5190 C   0  0  1  0  0  0  0  0  0  0  0  0
  -31.9720   13.3800  -18.2880 C   0  0  2  0  0  0  0  0  0  0  0  0
  -30.4490   13.3800  -18.6720 C   0  0  2  0  0  0  0  0  0  0  0  0
  -32.5380   12.1450  -17.6100 N   0  0  0  0  0  0  0  0  0  0  0  0
  -32.3080   11.3020  -18.0620 H   0  0  0  0  0  0  0  0  0  0  0  0
  -33.3610   11.9710  -16.4140 C   0  0  0  0  0  0  0  0  0  0  0  0
  -33.5870   10.8040  -16.0720 O   0  0  0  0  0  0  0  0  0  0  0  0
  -33.9890   13.0460  -15.5800 C   0  0  0  0  0  0  0  0  0  0  0  0
  -32.6710   14.9570  -20.1910 N   0  0  0  0  0  0  0  0  0  0  0  0
  -33.5420   15.4870  -20.2050 H   0  0  0  0  0  0  0  0  0  0  0  0
  -31.9580   15.4870  -19.6900 H   0  0  0  0  0  0  0  0  0  0  0  0
  -32.3600   14.7880  -21.1470 H   0  0  0  0  0  0  0  0  0  0  0  0
  -30.7850   11.5800  -22.0340 C   0  0  0  0  0  0  0  0  0  0  0  0
  -29.5340   11.7490  -22.5420 O   0  0  0  0  0  0  0  0  0  0  0  0
  -31.5910   10.8530  -22.6090 O   0  0  0  0  0  0  0  0  0  0  0  0
  -29.9420   14.7550  -18.7290 O   0  0  0  0  0  0  0  0  0  0  0  0
  -28.6730   14.9360  -19.3650 C   0  0  0  0  0  0  0  0  0  0  0  0
  -27.6040   14.8010  -18.2520 C   0  0  0  0  0  0  0  0  0  0  0  0
  -26.9220   13.4260  -18.3300 C   0  0  0  0  0  0  0  0  0  0  0  0
  1  6  1  0  0  0  0
  2  3  1  0  0  0  0
  2  1  2  0  0  0  0
  3  4  1  0  0  0  0
  4 12  1  6  0  0  0
  4  5  1  0  0  0  0
  5  7  1  6  0  0  0
  6 19  1  6  0  0  0
  6  5  1  0  0  0  0
  7  9  1  0  0  0  0
  8  7  1  0  0  0  0
  9 10  2  0  0  0  0
  9 11  1  0  0  0  0
 12 14  1  0  0  0  0
 13 12  1  0  0  0  0
 15 12  1  0  0  0  0
 16  2  1  0  0  0  0
 17 16  1  0  0  0  0
 18 16  2  0  0  0  0
 20 19  1  0  0  0  0
 20 21  1  0  0  0  0
 22 21  1  0  0  0  0
M  END
>  <MODEL>
1

>  <REMARK>
 VINA RESULT:      -5.5      0.000      0.000
  Name = BDB4983
                            x       y       z     vdW  Elec       q    Type
                         _______ _______ _______ _____ _____    ______ ____

>  <TORSDO>
F 6

>  <vina_score>
-5.5

$$$$
BDB4945
 OpenBabel12261618123D

 32 33  0  0  1  0  0  0  0  0999 V2000
  -33.6380   12.7310  -16.4300 C   0  0  0  0  0  0  0  0  0  0  0  0
  -34.3930   12.9440  -17.5130 C   0  0  0  0  0  0  0  0  0  0  0  0
  -33.7850   13.1680  -18.8490 C   0  0  1  0  0  0  0  0  0  0  0  0
  -32.4320   12.4800  -18.8910 C   0  0  2  0  0  0  0  0  0  0  0  0
  -31.6350   13.0700  -17.7430 C   0  0  1  0  0  0  0  0  0  0  0  0
  -32.2180   12.7120  -16.4700 O   0  0  0  0  0  0  0  0  0  0  0  0
  -31.7800   12.8050  -20.1670 N   0  0  0  0  0  0  0  0  0  0  0  0
  -31.2140   13.6110  -20.1830 H   0  0  0  0  0  0  0  0  0  0  0  0
  -31.8870   12.0640  -21.3950 C   0  0  0  0  0  0  0  0  0  0  0  0
  -31.2710   12.4770  -22.3840 O   0  0  0  0  0  0  0  0  0  0  0  0
  -32.7170   10.8030  -21.5390 C   0  0  0  0  0  0  0  0  0  0  0  0
  -34.6590   12.6450  -19.9080 N   0  0  0  0  0  0  0  0  0  0  0  0
  -34.0900   12.2120  -20.6360 H   0  0  0  0  0  0  0  0  0  0  0  0
  -35.2930   11.9500  -19.5140 H   0  0  0  0  0  0  0  0  0  0  0  0
  -35.2010   13.4110  -20.3110 H   0  0  0  0  0  0  0  0  0  0  0  0
  -34.3050   12.4670  -15.1530 C   0  0  0  0  0  0  0  0  0  0  0  0
  -34.6220   11.1930  -14.8030 O   0  0  0  0  0  0  0  0  0  0  0  0
  -34.5790   13.4040  -14.3940 O   0  0  0  0  0  0  0  0  0  0  0  0
  -30.1900   12.5670  -17.7810 C   0  0  0  0  0  0  0  0  0  0  0  0
  -29.9970   11.3720  -18.0350 O   0  0  0  0  0  0  0  0  0  0  0  0
  -29.0490   13.3880  -17.5250 N   0  0  0  0  0  0  0  0  0  0  0  0
  -29.1550   14.7790  -17.1320 C   0  0  0  0  0  0  0  0  0  0  0  0
  -28.8060   15.7070  -18.3200 C   0  0  0  0  0  0  0  0  0  0  0  0
  -29.9760   15.7160  -19.3190 C   0  0  0  0  0  0  0  0  0  0  0  0
  -27.7420   12.7870  -17.6550 C   0  0  0  0  0  0  0  0  0  0  0  0
  -26.7930   13.6860  -18.4750 C   0  0  0  0  0  0  0  0  0  0  0  0
  -27.1660   13.6280  -19.9270 C   0  0  0  0  0  0  0  0  0  0  0  0
  -27.8920   12.5460  -20.4130 C   0  0  0  0  0  0  0  0  0  0  0  0
  -28.2440   12.4940  -21.7560 C   0  0  0  0  0  0  0  0  0  0  0  0
  -27.8700   13.5220  -22.6130 C   0  0  0  0  0  0  0  0  0  0  0  0
  -27.1440   14.6030  -22.1270 C   0  0  0  0  0  0  0  0  0  0  0  0
  -26.7920   14.6550  -20.7820 C   0  0  0  0  0  0  0  0  0  0  0  0
  1 16  1  0  0  0  0
  2  1  2  0  0  0  0
  3 12  1  6  0  0  0
  3  2  1  0  0  0  0
  4  7  1  6  0  0  0
  4  3  1  0  0  0  0
  4  5  1  0  0  0  0
  5 19  1  1  0  0  0
  5  6  1  0  0  0  0
  6  1  1  0  0  0  0
  8  7  1  0  0  0  0
  9  7  1  0  0  0  0
 10  9  2  0  0  0  0
 11  9  1  0  0  0  0
 12 14  1  0  0  0  0
 13 12  1  0  0  0  0
 15 12  1  0  0  0  0
 16 17  2  0  0  0  0
 16 18  1  0  0  0  0
 19 21  1  0  0  0  0
 20 19  2  0  0  0  0
 21 22  1  0  0  0  0
 23 22  1  0  0  0  0
 24 23  1  0  0  0  0
 25 21  1  0  0  0  0
 26 25  1  0  0  0  0
 27 26  1  0  0  0  0
 28 27  1  0  0  0  0
 29 28  2  0  0  0  0
 30 31  2  0  0  0  0
 30 29  1  0  0  0  0
 31 32  1  0  0  0  0
 32 27  2  0  0  0  0
M  END
>  <MODEL>
1

>  <REMARK>
 VINA RESULT:      -5.3      0.000      0.000
  Name = BDB4945
                            x       y       z     vdW  Elec       q    Type
                         _______ _______ _______ _____ _____    ______ ____

>  <TORSDO>
F 9

>  <vina_score>
-5.3

$$$$
BDB5200
 OpenBabel12261618113D

 26 27  0  0  1  0  0  0  0  0999 V2000
  -33.7690   11.9920  -19.1500 C   0  0  0  0  0  0  0  0  0  0  0  0
  -33.1260   12.8530  -18.0940 C   0  0  2  0  0  0  0  0  0  0  0  0
  -31.6820   12.4110  -18.2940 C   0  0  1  0  0  0  0  0  0  0  0  0
  -31.4780   12.4840  -19.7650 N   0  0  0  0  0  0  0  0  0  0  0  0
  -30.8670   11.7460  -20.1140 H   0  0  0  0  0  0  0  0  0  0  0  0
  -31.0350   13.3640  -20.0260 H   0  0  0  0  0  0  0  0  0  0  0  0
  -32.8660   12.3970  -20.3300 C   0  0  1  0  0  0  0  0  0  0  0  0
  -33.6220   12.5370  -16.7060 C   0  0  0  0  0  0  0  0  0  0  0  0
  -34.1420   13.4150  -15.8760 N   0  0  0  0  0  0  0  0  0  0  0  0
  -34.4520   12.8080  -14.8020 N   0  0  0  0  0  0  0  0  0  0  0  0
  -34.8610   13.2370  -14.0150 H   0  0  0  0  0  0  0  0  0  0  0  0
  -34.1490   11.5130  -14.8860 C   0  0  0  0  0  0  0  0  0  0  0  0
  -33.5940   11.2900  -16.1360 C   0  0  0  0  0  0  0  0  0  0  0  0
  -32.9700   11.4380  -21.4800 C   0  0  0  0  0  0  0  0  0  0  0  0
  -31.9180   11.2730  -22.3240 O   0  0  0  0  0  0  0  0  0  0  0  0
  -34.0150   10.8030  -21.6620 O   0  0  0  0  0  0  0  0  0  0  0  0
  -30.4140   13.3370  -18.5620 C   0  0  1  0  0  0  0  0  0  0  0  0
  -31.0160   14.6940  -18.8950 N   0  0  0  0  0  0  0  0  0  0  0  0
  -31.5960   14.9340  -18.1370 H   0  0  0  0  0  0  0  0  0  0  0  0
  -31.1060   15.7590  -19.8150 C   0  0  0  0  0  0  0  0  0  0  0  0
  -32.2110   16.1070  -20.2360 O   0  0  0  0  0  0  0  0  0  0  0  0
  -29.8690   16.4840  -20.2820 C   0  0  0  0  0  0  0  0  0  0  0  0
  -29.7020   13.5620  -17.0790 C   0  0  0  0  0  0  0  0  0  0  0  0
  -28.6720   14.1400  -18.0960 C   0  0  0  0  0  0  0  0  0  0  0  0
  -27.8610   15.3070  -17.4930 C   0  0  0  0  0  0  0  0  0  0  0  0
  -27.6910   13.0220  -18.4910 C   0  0  0  0  0  0  0  0  0  0  0  0
  1  2  1  0  0  0  0
  2  8  1  1  0  0  0
  3  4  1  6  0  0  0
  3  2  1  0  0  0  0
  5  4  1  0  0  0  0
  6  4  1  0  0  0  0
  7 14  1  6  0  0  0
  7  4  1  0  0  0  0
  7  1  1  0  0  0  0
  8 13  1  0  0  0  0
  8  9  2  0  0  0  0
  9 10  1  0  0  0  0
 10 11  1  0  0  0  0
 12 10  1  0  0  0  0
 13 12  2  0  0  0  0
 15 14  2  0  0  0  0
 16 14  1  0  0  0  0
 17 18  1  1  0  0  0
 17  3  1  0  0  0  0
 17 23  1  0  0  0  0
 18 19  1  0  0  0  0
 20 18  1  0  0  0  0
 21 20  2  0  0  0  0
 22 20  1  0  0  0  0
 24 25  1  0  0  0  0
 24 23  1  0  0  0  0
 26 24  1  0  0  0  0
M  END
>  <MODEL>
1

>  <REMARK>
 VINA RESULT:      -5.3      0.000      0.000
  Name = BDB5200
                            x       y       z     vdW  Elec       q    Type
                         _______ _______ _______ _____ _____    ______ ____

>  <TORSDO>
F 6

>  <vina_score>
-5.3

$$$$
BDB5244
 OpenBabel12261618153D

 30 30  0  0  1  0  0  0  0  0999 V2000
  -29.1980   12.6250  -18.8380 C   0  0  2  0  0  0  0  0  0  0  0  0
  -28.9650   13.2030  -20.2190 C   0  0  2  0  0  0  0  0  0  0  0  0
  -29.6440   12.2940  -21.2330 C   0  0  0  0  0  0  0  0  0  0  0  0
  -31.0820   12.1110  -20.8340 C   0  0  0  0  0  0  0  0  0  0  0  0
  -31.4590   12.2440  -19.6210 N   0  0  0  0  0  0  0  0  0  0  0  0
  -30.6110   12.5330  -18.6130 N   0  0  0  0  0  0  0  0  0  0  0  0
  -31.1130   12.7010  -17.3170 C   0  0  0  0  0  0  0  0  0  0  0  0
  -30.3350   12.9080  -16.3790 O   0  0  0  0  0  0  0  0  0  0  0  0
  -28.5860   13.4790  -17.8230 N   0  0  0  0  0  0  0  0  0  0  0  0
  -28.0880   13.0380  -17.0950 H   0  0  0  0  0  0  0  0  0  0  0  0
  -28.6540   14.9040  -17.8090 C   0  0  0  0  0  0  0  0  0  0  0  0
  -28.1200   15.5150  -16.8760 O   0  0  0  0  0  0  0  0  0  0  0  0
  -29.3440   15.6980  -18.8940 C   0  0  0  0  0  0  0  0  0  0  0  0
  -32.0680   11.7620  -21.8560 C   0  0  0  0  0  0  0  0  0  0  0  0
  -33.2100   12.4890  -21.9740 O   0  0  0  0  0  0  0  0  0  0  0  0
  -31.8620   10.8060  -22.6120 O   0  0  0  0  0  0  0  0  0  0  0  0
  -27.5440   13.2860  -20.4970 N   0  0  0  0  0  0  0  0  0  0  0  0
  -26.9610   12.5520  -20.1950 H   0  0  0  0  0  0  0  0  0  0  0  0
  -26.9620   14.3750  -21.1850 C   0  0  0  0  0  0  0  0  0  0  0  0
  -27.6160   14.9450  -22.1130 N   0  0  0  0  0  0  0  0  0  0  0  0
  -27.2220   15.7050  -22.6000 H   0  0  0  0  0  0  0  0  0  0  0  0
  -28.5190   14.6270  -22.3470 H   0  0  0  0  0  0  0  0  0  0  0  0
  -25.6800   14.8400  -20.8650 N   0  0  0  0  0  0  0  0  0  0  0  0
  -25.5290   15.3250  -20.0210 H   0  0  0  0  0  0  0  0  0  0  0  0
  -24.9310   14.6840  -21.4840 H   0  0  0  0  0  0  0  0  0  0  0  0
  -32.5930   12.6220  -17.0570 C   0  0  0  0  0  0  0  0  0  0  0  0
  -32.9210   13.3200  -15.7170 C   0  0  0  0  0  0  0  0  0  0  0  0
  -34.2480   12.7750  -15.1480 C   0  0  0  0  0  0  0  0  0  0  0  0
  -33.0260   11.1420  -17.0050 C   0  0  0  0  0  0  0  0  0  0  0  0
  -33.8990   10.8080  -18.2320 C   0  0  0  0  0  0  0  0  0  0  0  0
  1  6  1  0  0  0  0
  1  9  1  1  0  0  0
  2 17  1  6  0  0  0
  2  1  1  0  0  0  0
  3  4  1  0  0  0  0
  3  2  1  0  0  0  0
  4  5  2  0  0  0  0
  5  6  1  0  0  0  0
  6  7  1  0  0  0  0
  7 26  1  0  0  0  0
  7  8  2  0  0  0  0
  9 11  1  0  0  0  0
  9 10  1  0  0  0  0
 11 12  2  0  0  0  0
 13 11  1  0  0  0  0
 14  4  1  0  0  0  0
 15 14  1  0  0  0  0
 16 14  2  0  0  0  0
 17 18  1  0  0  0  0
 19 23  1  0  0  0  0
 19 17  1  0  0  0  0
 20 19  2  0  0  0  0
 21 20  1  0  0  0  0
 22 20  1  0  0  0  0
 23 24  1  0  0  0  0
 25 23  1  0  0  0  0
 26 29  1  0  0  0  0
 26 27  1  0  0  0  0
 27 28  1  0  0  0  0
 30 29  1  0  0  0  0
M  END
>  <MODEL>
1

>  <REMARK>
 VINA RESULT:      -5.3      0.000      0.000
  Name = BDB5244
                            x       y       z     vdW  Elec       q    Type
                         _______ _______ _______ _____ _____    ______ ____

>  <TORSDO>
F 8

>  <vina_score>
-5.3

$$$$
BDB5015
 OpenBabel12261618123D

 25 25  0  0  1  0  0  0  0  0999 V2000
  -31.6150   13.4220  -19.0660 C   0  0  1  0  0  0  0  0  0  0  0  0
  -31.6080   14.0630  -20.5070 C   0  0  1  0  0  0  0  0  0  0  0  0
  -31.0440   15.5170  -20.5510 C   0  0  2  0  0  0  0  0  0  0  0  0
  -29.6180   15.4930  -20.0140 C   0  0  0  0  0  0  0  0  0  0  0  0
  -29.4700   14.6900  -18.6890 C   0  0  0  0  0  0  0  0  0  0  0  0
  -30.3610   13.7450  -18.2860 C   0  0  0  0  0  0  0  0  0  0  0  0
  -30.1420   13.0640  -17.1550 F   0  0  0  0  0  0  0  0  0  0  0  0
  -30.8840   13.2570  -21.5870 N   0  0  0  0  0  0  0  0  0  0  0  0
  -30.7760   13.7400  -22.4370 H   0  0  0  0  0  0  0  0  0  0  0  0
  -30.3180   11.9010  -21.6030 C   0  0  0  0  0  0  0  0  0  0  0  0
  -29.6170   11.6140  -22.5790 O   0  0  0  0  0  0  0  0  0  0  0  0
  -30.5630   10.8030  -20.6110 C   0  0  0  0  0  0  0  0  0  0  0  0
  -31.7650   16.5030  -19.7990 N   0  0  0  0  0  0  0  0  0  0  0  0
  -32.5140   16.8890  -20.3740 H   0  0  0  0  0  0  0  0  0  0  0  0
  -32.1640   16.0710  -18.9650 H   0  0  0  0  0  0  0  0  0  0  0  0
  -31.1300   17.2520  -19.5230 H   0  0  0  0  0  0  0  0  0  0  0  0
  -28.2570   14.9230  -17.8850 C   0  0  0  0  0  0  0  0  0  0  0  0
  -27.0980   14.2580  -18.1380 O   0  0  0  0  0  0  0  0  0  0  0  0
  -28.2790   15.7820  -16.9940 O   0  0  0  0  0  0  0  0  0  0  0  0
  -32.8170   13.7040  -18.2080 O   0  0  0  0  0  0  0  0  0  0  0  0
  -33.6660   12.6270  -17.7740 C   0  0  0  0  0  0  0  0  0  0  0  0
  -33.5410   11.4240  -18.7520 C   0  0  0  0  0  0  0  0  0  0  0  0
  -34.3060   11.6990  -20.0550 C   0  0  0  0  0  0  0  0  0  0  0  0
  -33.2580   12.1740  -16.3550 C   0  0  0  0  0  0  0  0  0  0  0  0
  -34.2900   12.6910  -15.3260 C   0  0  0  0  0  0  0  0  0  0  0  0
  1  6  1  0  0  0  0
  1 20  1  1  0  0  0
  2  8  1  6  0  0  0
  2  1  1  0  0  0  0
  3  2  1  0  0  0  0
  3  4  1  0  0  0  0
  3 13  1  1  0  0  0
  4  5  1  0  0  0  0
  5  6  2  0  0  0  0
  5 17  1  0  0  0  0
  6  7  1  0  0  0  0
  9  8  1  0  0  0  0
 10  8  1  0  0  0  0
 10 12  1  0  0  0  0
 11 10  2  0  0  0  0
 13 16  1  0  0  0  0
 13 15  1  0  0  0  0
 14 13  1  0  0  0  0
 17 19  1  0  0  0  0
 18 17  2  0  0  0  0
 20 21  1  0  0  0  0
 21 24  1  0  0  0  0
 22 21  1  0  0  0  0
 23 22  1  0  0  0  0
 24 25  1  0  0  0  0
M  END
>  <MODEL>
1

>  <REMARK>
 VINA RESULT:      -5.1      0.000      0.000
  Name = BDB5015
                            x       y       z     vdW  Elec       q    Type
                         _______ _______ _______ _____ _____    ______ ____

>  <TORSDO>
F 7

>  <vina_score>
-5.1

$$$$
BDB5195
 OpenBabel12261618113D

 24 24  0  0  1  0  0  0  0  0999 V2000
  -33.1650   11.8200  -18.8940 C   0  0  0  0  0  0  0  0  0  0  0  0
  -32.0450   11.9920  -19.8870 C   0  0  2  0  0  0  0  0  0  0  0  0
  -31.4160   13.2490  -19.3000 C   0  0  1  0  0  0  0  0  0  0  0  0
  -31.2970   12.9530  -17.8470 N   0  0  0  0  0  0  0  0  0  0  0  0
  -31.4520   13.7760  -17.2640 H   0  0  0  0  0  0  0  0  0  0  0  0
  -30.3600   12.6190  -17.6220 H   0  0  0  0  0  0  0  0  0  0  0  0
  -32.3170   11.8780  -17.6090 C   0  0  1  0  0  0  0  0  0  0  0  0
  -33.1530   12.1270  -16.3880 C   0  0  0  0  0  0  0  0  0  0  0  0
  -33.2240   13.3740  -15.8550 O   0  0  0  0  0  0  0  0  0  0  0  0
  -33.7730   11.1940  -15.8640 O   0  0  0  0  0  0  0  0  0  0  0  0
  -32.5380   12.2140  -21.2870 C   0  0  0  0  0  0  0  0  0  0  0  0
  -33.7420   12.4060  -21.4930 O   0  0  0  0  0  0  0  0  0  0  0  0
  -31.6370   12.2050  -22.3480 O   0  0  0  0  0  0  0  0  0  0  0  0
  -31.0290   10.9160  -22.4550 C   0  0  0  0  0  0  0  0  0  0  0  0
  -29.8930   13.4670  -18.8840 C   0  0  1  0  0  0  0  0  0  0  0  0
  -29.1100   12.9340  -20.0740 N   0  0  0  0  0  0  0  0  0  0  0  0
  -29.4840   12.0470  -20.2790 H   0  0  0  0  0  0  0  0  0  0  0  0
  -28.0820   13.1550  -21.0140 C   0  0  0  0  0  0  0  0  0  0  0  0
  -27.1670   12.3360  -21.1190 O   0  0  0  0  0  0  0  0  0  0  0  0
  -28.0930   14.3760  -21.8990 C   0  0  0  0  0  0  0  0  0  0  0  0
  -29.6440   15.1070  -18.9350 C   0  0  0  0  0  0  0  0  0  0  0  0
  -28.4920   14.5680  -18.0350 C   0  0  0  0  0  0  0  0  0  0  0  0
  -27.1450   15.2510  -18.3550 C   0  0  0  0  0  0  0  0  0  0  0  0
  -28.8420   14.8520  -16.5650 C   0  0  0  0  0  0  0  0  0  0  0  0
  1  7  1  0  0  0  0
  2 11  1  6  0  0  0
  2  3  1  0  0  0  0
  2  1  1  0  0  0  0
  3 15  1  0  0  0  0
  3  4  1  1  0  0  0
  4  6  1  0  0  0  0
  4  7  1  0  0  0  0
  4  5  1  0  0  0  0
  7  8  1  1  0  0  0
  8 10  2  0  0  0  0
  8  9  1  0  0  0  0
 12 11  2  0  0  0  0
 13 11  1  0  0  0  0
 14 13  1  0  0  0  0
 15 16  1  6  0  0  0
 17 16  1  0  0  0  0
 18 16  1  0  0  0  0
 19 18  2  0  0  0  0
 20 18  1  0  0  0  0
 21 15  1  0  0  0  0
 21 22  1  0  0  0  0
 22 24  1  0  0  0  0
 23 22  1  0  0  0  0
M  END
>  <MODEL>
1

>  <REMARK>
 VINA RESULT:      -5.1      0.000      0.000
  Name = BDB5195
                            x       y       z     vdW  Elec       q    Type
                         _______ _______ _______ _____ _____    ______ ____

>  <TORSDO>
F 7

>  <vina_score>
-5.1

$$$$
BDB5198
 OpenBabel12261618113D

 25 26  0  0  1  0  0  0  0  0999 V2000
  -33.8620   11.8570  -19.1340 C   0  0  0  0  0  0  0  0  0  0  0  0
  -33.2230   12.7550  -18.1070 C   0  0  2  0  0  0  0  0  0  0  0  0
  -31.7690   12.3680  -18.3450 C   0  0  1  0  0  0  0  0  0  0  0  0
  -31.6120   12.4310  -19.8230 N   0  0  0  0  0  0  0  0  0  0  0  0
  -30.9820   11.7140  -20.1810 H   0  0  0  0  0  0  0  0  0  0  0  0
  -31.2130   13.3260  -20.1060 H   0  0  0  0  0  0  0  0  0  0  0  0
  -33.0110   12.2830  -20.3440 C   0  0  1  0  0  0  0  0  0  0  0  0
  -33.6630   12.4380  -16.7050 C   0  0  0  0  0  0  0  0  0  0  0  0
  -33.6440   10.8920  -16.0880 S   0  0  0  0  0  0  0  0  0  0  0  0
  -34.2320   11.4270  -14.6120 C   0  0  0  0  0  0  0  0  0  0  0  0
  -34.4220   12.8080  -14.6640 C   0  0  0  0  0  0  0  0  0  0  0  0
  -34.0970   13.3430  -15.8420 N   0  0  0  0  0  0  0  0  0  0  0  0
  -33.1100   11.3060  -21.4810 C   0  0  0  0  0  0  0  0  0  0  0  0
  -32.0020   10.9810  -22.1950 O   0  0  0  0  0  0  0  0  0  0  0  0
  -34.2030   10.8030  -21.7680 O   0  0  0  0  0  0  0  0  0  0  0  0
  -30.5480   13.3420  -18.6610 C   0  0  1  0  0  0  0  0  0  0  0  0
  -31.2140   14.6650  -19.0050 N   0  0  0  0  0  0  0  0  0  0  0  0
  -31.9050   14.8140  -18.3200 H   0  0  0  0  0  0  0  0  0  0  0  0
  -31.2730   15.7730  -19.8750 C   0  0  0  0  0  0  0  0  0  0  0  0
  -32.3410   16.0600  -20.4210 O   0  0  0  0  0  0  0  0  0  0  0  0
  -30.0520   16.6180  -20.1360 C   0  0  0  0  0  0  0  0  0  0  0  0
  -29.8100   13.6240  -17.2020 C   0  0  0  0  0  0  0  0  0  0  0  0
  -28.7190   13.9690  -18.2600 C   0  0  0  0  0  0  0  0  0  0  0  0
  -27.8010   15.1160  -17.7870 C   0  0  0  0  0  0  0  0  0  0  0  0
  -27.8520   12.7200  -18.4970 C   0  0  0  0  0  0  0  0  0  0  0  0
  1  2  1  0  0  0  0
  2  8  1  1  0  0  0
  3  4  1  6  0  0  0
  3  2  1  0  0  0  0
  5  4  1  0  0  0  0
  6  4  1  0  0  0  0
  7 13  1  6  0  0  0
  7  4  1  0  0  0  0
  7  1  1  0  0  0  0
  8  9  1  0  0  0  0
  8 12  2  0  0  0  0
  9 10  1  0  0  0  0
 11 10  2  0  0  0  0
 12 11  1  0  0  0  0
 14 13  2  0  0  0  0
 15 13  1  0  0  0  0
 16 17  1  1  0  0  0
 16  3  1  0  0  0  0
 16 22  1  0  0  0  0
 17 18  1  0  0  0  0
 19 17  1  0  0  0  0
 20 19  2  0  0  0  0
 21 19  1  0  0  0  0
 23 24  1  0  0  0  0
 23 22  1  0  0  0  0
 25 23  1  0  0  0  0
M  END
>  <MODEL>
1

>  <REMARK>
 VINA RESULT:      -5.1      0.000      0.000
  Name = BDB5198
                            x       y       z     vdW  Elec       q    Type
                         _______ _______ _______ _____ _____    ______ ____

>  <TORSDO>
F 6

>  <vina_score>
-5.1

$$$$
BDB4937
 OpenBabel12261618123D

 25 25  0  0  1  0  0  0  0  0999 V2000
  -27.4610   13.7090  -19.9040 C   0  0  0  0  0  0  0  0  0  0  0  0
  -27.5870   14.5180  -18.8470 C   0  0  0  0  0  0  0  0  0  0  0  0
  -28.8970   14.7150  -18.1750 C   0  0  1  0  0  0  0  0  0  0  0  0
  -29.7470   13.4760  -18.3900 C   0  0  2  0  0  0  0  0  0  0  0  0
  -29.8450   13.3000  -19.8930 C   0  0  1  0  0  0  0  0  0  0  0  0
  -28.5530   12.9940  -20.4650 O   0  0  0  0  0  0  0  0  0  0  0  0
  -31.0830   13.7220  -17.8300 N   0  0  0  0  0  0  0  0  0  0  0  0
  -31.4630   14.6200  -17.9670 H   0  0  0  0  0  0  0  0  0  0  0  0
  -31.8920   12.7810  -17.1030 C   0  0  0  0  0  0  0  0  0  0  0  0
  -32.9990   13.1500  -16.6980 O   0  0  0  0  0  0  0  0  0  0  0  0
  -31.4560   11.3590  -16.8070 C   0  0  0  0  0  0  0  0  0  0  0  0
  -28.7070   14.9640  -16.7380 N   0  0  0  0  0  0  0  0  0  0  0  0
  -27.9420   14.3850  -16.3910 H   0  0  0  0  0  0  0  0  0  0  0  0
  -28.4830   15.9470  -16.5900 H   0  0  0  0  0  0  0  0  0  0  0  0
  -29.5650   14.7310  -16.2370 H   0  0  0  0  0  0  0  0  0  0  0  0
  -26.1310   13.5210  -20.4870 C   0  0  0  0  0  0  0  0  0  0  0  0
  -25.4810   14.5750  -21.0480 O   0  0  0  0  0  0  0  0  0  0  0  0
  -25.6000   12.4050  -20.4700 O   0  0  0  0  0  0  0  0  0  0  0  0
  -30.8180   12.1670  -20.2380 C   0  0  0  0  0  0  0  0  0  0  0  0
  -30.5100   11.0170  -19.9030 O   0  0  0  0  0  0  0  0  0  0  0  0
  -32.0470   12.3510  -20.9420 N   0  0  0  0  0  0  0  0  0  0  0  0
  -32.4500   13.6290  -21.4860 C   0  0  0  0  0  0  0  0  0  0  0  0
  -32.5900   14.6640  -20.3490 C   0  0  0  0  0  0  0  0  0  0  0  0
  -32.8860   11.2010  -21.1620 C   0  0  0  0  0  0  0  0  0  0  0  0
  -34.0350   11.1650  -20.1310 C   0  0  0  0  0  0  0  0  0  0  0  0
  1  2  2  0  0  0  0
  2  3  1  0  0  0  0
  3 12  1  1  0  0  0
  4  3  1  0  0  0  0
  4  7  1  6  0  0  0
  5 19  1  1  0  0  0
  5  4  1  0  0  0  0
  6  1  1  0  0  0  0
  6  5  1  0  0  0  0
  7  9  1  0  0  0  0
  8  7  1  0  0  0  0
  9 11  1  0  0  0  0
  9 10  2  0  0  0  0
 12 14  1  0  0  0  0
 12 13  1  0  0  0  0
 12 15  1  0  0  0  0
 16 18  1  0  0  0  0
 16  1  1  0  0  0  0
 17 16  2  0  0  0  0
 19 20  2  0  0  0  0
 21 19  1  0  0  0  0
 22 21  1  0  0  0  0
 22 23  1  0  0  0  0
 24 21  1  0  0  0  0
 24 25  1  0  0  0  0
M  END
>  <MODEL>
1

>  <REMARK>
 VINA RESULT:      -5.0      0.000      0.000
  Name = BDB4937
                            x       y       z     vdW  Elec       q    Type
                         _______ _______ _______ _____ _____    ______ ____

>  <TORSDO>
F 6

>  <vina_score>
-5.0

$$$$
BDB4932
 OpenBabel12261618133D

 28 28  0  0  1  0  0  0  0  0999 V2000
  -32.3720   13.0490  -17.3520 C   0  0  0  0  0  0  0  0  0  0  0  0
  -32.9470   13.4090  -18.5040 C   0  0  0  0  0  0  0  0  0  0  0  0
  -32.1380   13.8370  -19.6730 C   0  0  1  0  0  0  0  0  0  0  0  0
  -30.7700   13.1840  -19.5860 C   0  0  2  0  0  0  0  0  0  0  0  0
  -30.1960   13.6090  -18.2480 C   0  0  1  0  0  0  0  0  0  0  0  0
  -30.9650   13.0590  -17.1550 O   0  0  0  0  0  0  0  0  0  0  0  0
  -29.9320   13.7030  -20.6740 N   0  0  0  0  0  0  0  0  0  0  0  0
  -29.8320   14.6820  -20.7290 H   0  0  0  0  0  0  0  0  0  0  0  0
  -29.2430   12.9260  -21.6690 C   0  0  0  0  0  0  0  0  0  0  0  0
  -28.5760   13.5230  -22.5210 O   0  0  0  0  0  0  0  0  0  0  0  0
  -29.2930   11.4110  -21.7270 C   0  0  0  0  0  0  0  0  0  0  0  0
  -28.7460   13.1420  -18.1150 C   0  0  0  0  0  0  0  0  0  0  0  0
  -28.5230   11.9290  -18.0760 O   0  0  0  0  0  0  0  0  0  0  0  0
  -27.6400   14.0400  -18.0220 N   0  0  0  0  0  0  0  0  0  0  0  0
  -27.8000   15.4740  -18.0120 C   0  0  0  0  0  0  0  0  0  0  0  0
  -26.3180   13.4930  -17.9130 C   0  0  0  0  0  0  0  0  0  0  0  0
  -33.2270   12.5900  -16.2560 C   0  0  0  0  0  0  0  0  0  0  0  0
  -33.5360   11.2720  -16.1420 O   0  0  0  0  0  0  0  0  0  0  0  0
  -33.6690   13.4020  -15.4340 O   0  0  0  0  0  0  0  0  0  0  0  0
  -32.7970   13.4660  -20.9110 N   0  0  0  0  0  0  0  0  0  0  0  0
  -32.7260   14.0730  -21.6830 H   0  0  0  0  0  0  0  0  0  0  0  0
  -33.5370   12.2700  -21.0550 C   0  0  0  0  0  0  0  0  0  0  0  0
  -34.8020   12.3050  -20.9480 N   0  0  0  0  0  0  0  0  0  0  0  0
  -35.3270   11.4790  -21.0470 H   0  0  0  0  0  0  0  0  0  0  0  0
  -35.2570   13.1600  -20.7670 H   0  0  0  0  0  0  0  0  0  0  0  0
  -32.9050   11.0460  -21.3130 N   0  0  0  0  0  0  0  0  0  0  0  0
  -32.5260   10.5210  -20.5720 H   0  0  0  0  0  0  0  0  0  0  0  0
  -32.8390   10.7110  -22.2360 H   0  0  0  0  0  0  0  0  0  0  0  0
  1  6  1  0  0  0  0
  1 17  1  0  0  0  0
  2  1  2  0  0  0  0
  3 20  1  6  0  0  0
  3  4  1  0  0  0  0
  3  2  1  0  0  0  0
  4  7  1  6  0  0  0
  4  5  1  0  0  0  0
  5 12  1  1  0  0  0
  5  6  1  0  0  0  0
  8  7  1  0  0  0  0
  9  7  1  0  0  0  0
 10  9  2  0  0  0  0
 11  9  1  0  0  0  0
 12 13  2  0  0  0  0
 12 14  1  0  0  0  0
 14 15  1  0  0  0  0
 14 16  1  0  0  0  0
 17 18  2  0  0  0  0
 17 19  1  0  0  0  0
 21 20  1  0  0  0  0
 22 23  1  0  0  0  0
 22 20  1  0  0  0  0
 23 25  1  0  0  0  0
 24 23  1  0  0  0  0
 26 22  2  0  0  0  0
 26 27  1  0  0  0  0
 28 26  1  0  0  0  0
M  END
>  <MODEL>
1

>  <REMARK>
 VINA RESULT:      -5.0      0.000      0.000
  Name = BDB4932
                            x       y       z     vdW  Elec       q    Type
                         _______ _______ _______ _____ _____    ______ ____

>  <TORSDO>
F 6

>  <vina_score>
-5.0

$$$$
BDB4942
 OpenBabel12261618113D

 30 30  0  0  1  0  0  0  0  0999 V2000
  -32.9130   12.8730  -17.0620 C   0  0  0  0  0  0  0  0  0  0  0  0
  -33.6020   13.0680  -18.1920 C   0  0  0  0  0  0  0  0  0  0  0  0
  -32.9180   13.3900  -19.4700 C   0  0  1  0  0  0  0  0  0  0  0  0
  -31.5150   12.8120  -19.4320 C   0  0  2  0  0  0  0  0  0  0  0  0
  -30.8540   13.4180  -18.2090 C   0  0  1  0  0  0  0  0  0  0  0  0
  -31.4970   12.9680  -16.9960 O   0  0  0  0  0  0  0  0  0  0  0  0
  -30.8010   13.2350  -20.6440 N   0  0  0  0  0  0  0  0  0  0  0  0
  -30.8040   14.1990  -20.8480 H   0  0  0  0  0  0  0  0  0  0  0  0
  -30.0970   12.3820  -21.5640 C   0  0  0  0  0  0  0  0  0  0  0  0
  -29.5470   12.9020  -22.5410 O   0  0  0  0  0  0  0  0  0  0  0  0
  -29.9960   10.8780  -21.3970 C   0  0  0  0  0  0  0  0  0  0  0  0
  -33.6460   12.5100  -15.8480 C   0  0  0  0  0  0  0  0  0  0  0  0
  -34.0460   11.2260  -15.6550 O   0  0  0  0  0  0  0  0  0  0  0  0
  -33.9030   13.3720  -15.0000 O   0  0  0  0  0  0  0  0  0  0  0  0
  -29.3710   13.0310  -18.1550 C   0  0  0  0  0  0  0  0  0  0  0  0
  -29.0890   11.8280  -18.0890 O   0  0  0  0  0  0  0  0  0  0  0  0
  -28.2960   13.9710  -18.1510 N   0  0  0  0  0  0  0  0  0  0  0  0
  -28.5100   15.4000  -18.1020 C   0  0  0  0  0  0  0  0  0  0  0  0
  -28.9890   15.9070  -19.4800 C   0  0  0  0  0  0  0  0  0  0  0  0
  -26.9470   13.4640  -18.1390 C   0  0  0  0  0  0  0  0  0  0  0  0
  -26.4790   13.1420  -19.5750 C   0  0  0  0  0  0  0  0  0  0  0  0
  -33.6580   12.8460  -20.5930 N   0  0  0  0  0  0  0  0  0  0  0  0
  -34.0010   13.4660  -21.2770 H   0  0  0  0  0  0  0  0  0  0  0  0
  -33.9090   11.4630  -20.7460 C   0  0  0  0  0  0  0  0  0  0  0  0
  -33.2490   10.8030  -21.6070 N   0  0  0  0  0  0  0  0  0  0  0  0
  -33.4150    9.8400  -21.7220 H   0  0  0  0  0  0  0  0  0  0  0  0
  -32.5700   11.2550  -22.1590 H   0  0  0  0  0  0  0  0  0  0  0  0
  -34.8710   10.8040  -19.9680 N   0  0  0  0  0  0  0  0  0  0  0  0
  -35.6750   11.2860  -19.6660 H   0  0  0  0  0  0  0  0  0  0  0  0
  -34.7440    9.8600  -19.7250 H   0  0  0  0  0  0  0  0  0  0  0  0
  1  6  1  0  0  0  0
  1 12  1  0  0  0  0
  2  1  2  0  0  0  0
  3 22  1  6  0  0  0
  3  4  1  0  0  0  0
  3  2  1  0  0  0  0
  4  7  1  6  0  0  0
  4  5  1  0  0  0  0
  5 15  1  1  0  0  0
  5  6  1  0  0  0  0
  8  7  1  0  0  0  0
  9 11  1  0  0  0  0
  9  7  1  0  0  0  0
 10  9  2  0  0  0  0
 12 13  2  0  0  0  0
 12 14  1  0  0  0  0
 15 17  1  0  0  0  0
 15 16  2  0  0  0  0
 17 20  1  0  0  0  0
 17 18  1  0  0  0  0
 19 18  1  0  0  0  0
 21 20  1  0  0  0  0
 23 22  1  0  0  0  0
 24 22  1  0  0  0  0
 24 28  1  0  0  0  0
 25 24  2  0  0  0  0
 26 25  1  0  0  0  0
 27 25  1  0  0  0  0
 28 30  1  0  0  0  0
 28 29  1  0  0  0  0
M  END
>  <MODEL>
1

>  <REMARK>
 VINA RESULT:      -5.0      0.000      0.000
  Name = BDB4942
                            x       y       z     vdW  Elec       q    Type
                         _______ _______ _______ _____ _____    ______ ____

>  <TORSDO>
F 8

>  <vina_score>
-5.0

$$$$
BDB5003
 OpenBabel12261618123D

 30 31  0  0  1  0  0  0  0  0999 V2000
  -32.9950   13.3940  -16.6880 C   0  0  0  0  0  0  0  0  0  0  0  0
  -33.4580   12.2430  -16.1630 C   0  0  0  0  0  0  0  0  0  0  0  0
  -33.0880   10.8250  -16.7020 C   0  0  0  0  0  0  0  0  0  0  0  0
  -31.8270   10.8220  -17.5610 C   0  0  1  0  0  0  0  0  0  0  0  0
  -31.8630   12.0390  -18.5310 C   0  0  2  0  0  0  0  0  0  0  0  0
  -31.9880   13.4630  -17.8000 C   0  0  2  0  0  0  0  0  0  0  0  0
  -32.9250   11.7310  -19.6000 N   0  0  0  0  0  0  0  0  0  0  0  0
  -33.3090   10.8270  -19.5260 H   0  0  0  0  0  0  0  0  0  0  0  0
  -33.4850   12.5200  -20.7140 C   0  0  0  0  0  0  0  0  0  0  0  0
  -34.5450   12.1050  -21.1970 O   0  0  0  0  0  0  0  0  0  0  0  0
  -32.8610   13.6990  -21.4040 C   0  0  0  0  0  0  0  0  0  0  0  0
  -30.7400   10.8040  -16.6850 N   0  0  0  0  0  0  0  0  0  0  0  0
  -30.8570   11.5360  -15.9840 H   0  0  0  0  0  0  0  0  0  0  0  0
  -30.6890    9.8960  -16.2250 H   0  0  0  0  0  0  0  0  0  0  0  0
  -29.8800   10.9690  -17.2090 H   0  0  0  0  0  0  0  0  0  0  0  0
  -34.4580   12.3470  -15.1130 C   0  0  0  0  0  0  0  0  0  0  0  0
  -35.3000   11.3150  -14.8710 O   0  0  0  0  0  0  0  0  0  0  0  0
  -34.5690   13.4010  -14.4750 O   0  0  0  0  0  0  0  0  0  0  0  0
  -30.7280   14.1710  -17.2540 O   0  0  0  0  0  0  0  0  0  0  0  0
  -29.5730   14.4500  -18.1160 C   0  0  1  0  0  0  0  0  0  0  0  0
  -29.5510   15.9360  -18.6030 C   0  0  0  0  0  0  0  0  0  0  0  0
  -30.0880   16.0640  -20.0370 C   0  0  0  0  0  0  0  0  0  0  0  0
  -28.2410   14.2620  -17.4040 C   0  0  0  0  0  0  0  0  0  0  0  0
  -27.6180   13.0620  -18.1560 C   0  0  0  0  0  0  0  0  0  0  0  0
  -27.6980   13.2100  -19.6290 C   0  0  0  0  0  0  0  0  0  0  0  0
  -28.6210   12.4170  -20.3320 C   0  0  0  0  0  0  0  0  0  0  0  0
  -28.7540   12.5690  -21.6960 C   0  0  0  0  0  0  0  0  0  0  0  0
  -27.9690   13.5030  -22.3740 C   0  0  0  0  0  0  0  0  0  0  0  0
  -27.0580   14.2800  -21.6790 C   0  0  0  0  0  0  0  0  0  0  0  0
  -26.9310   14.1340  -20.2940 C   0  0  0  0  0  0  0  0  0  0  0  0
  1  2  2  0  0  0  0
  2 16  1  0  0  0  0
  3  2  1  0  0  0  0
  4  3  1  0  0  0  0
  4 12  1  1  0  0  0
  5  7  1  6  0  0  0
  5  6  1  0  0  0  0
  5  4  1  0  0  0  0
  6 19  1  1  0  0  0
  6  1  1  0  0  0  0
  7  8  1  0  0  0  0
  9  7  1  0  0  0  0
 10  9  2  0  0  0  0
 11  9  1  0  0  0  0
 12 14  1  0  0  0  0
 12 13  1  0  0  0  0
 15 12  1  0  0  0  0
 16 17  2  0  0  0  0
 16 18  1  0  0  0  0
 20 21  1  1  0  0  0
 20 23  1  0  0  0  0
 20 19  1  0  0  0  0
 22 21  1  0  0  0  0
 24 23  1  0  0  0  0
 25 24  1  0  0  0  0
 26 25  2  0  0  0  0
 27 26  1  0  0  0  0
 28 27  2  0  0  0  0
 28 29  1  0  0  0  0
 29 30  2  0  0  0  0
 30 25  1  0  0  0  0
M  END
>  <MODEL>
1

>  <REMARK>
 VINA RESULT:      -4.6      0.000      0.000
  Name = BDB5003
                            x       y       z     vdW  Elec       q    Type
                         _______ _______ _______ _____ _____    ______ ____

>  <TORSDO>
F 9

>  <vina_score>
-4.6

$$$$
BDB4997
 OpenBabel12261618123D

 29 29  0  0  1  0  0  0  0  0999 V2000
  -30.4840   13.8370  -19.2980 C   0  0  0  0  0  0  0  0  0  0  0  0
  -29.9710   14.8230  -20.0630 C   0  0  0  0  0  0  0  0  0  0  0  0
  -28.6750   14.6780  -20.9010 C   0  0  0  0  0  0  0  0  0  0  0  0
  -28.3300   13.2210  -21.2250 C   0  0  1  0  0  0  0  0  0  0  0  0
  -28.4730   12.3720  -19.9140 C   0  0  2  0  0  0  0  0  0  0  0  0
  -29.9200   12.4440  -19.2270 C   0  0  2  0  0  0  0  0  0  0  0  0
  -27.2900   12.7740  -19.0230 N   0  0  0  0  0  0  0  0  0  0  0  0
  -26.4420   12.3360  -19.2690 H   0  0  0  0  0  0  0  0  0  0  0  0
  -27.1730   13.6850  -17.8740 C   0  0  0  0  0  0  0  0  0  0  0  0
  -26.0250   13.9740  -17.5190 O   0  0  0  0  0  0  0  0  0  0  0  0
  -28.2860   14.2340  -17.0310 C   0  0  0  0  0  0  0  0  0  0  0  0
  -29.1380   12.8260  -22.3280 N   0  0  0  0  0  0  0  0  0  0  0  0
  -28.5400   12.5390  -23.1020 H   0  0  0  0  0  0  0  0  0  0  0  0
  -29.7340   12.0470  -22.0500 H   0  0  0  0  0  0  0  0  0  0  0  0
  -29.7200   13.6110  -22.6210 H   0  0  0  0  0  0  0  0  0  0  0  0
  -30.6340   16.1180  -19.9930 C   0  0  0  0  0  0  0  0  0  0  0  0
  -31.9880   16.1850  -19.9650 O   0  0  0  0  0  0  0  0  0  0  0  0
  -29.9620   17.1530  -19.9870 O   0  0  0  0  0  0  0  0  0  0  0  0
  -31.0330   11.4900  -19.6610 O   0  0  0  0  0  0  0  0  0  0  0  0
  -32.4320   11.8620  -19.5380 C   0  0  1  0  0  0  0  0  0  0  0  0
  -33.0960   11.9900  -20.9390 C   0  0  0  0  0  0  0  0  0  0  0  0
  -33.0630   13.4520  -21.4260 C   0  0  0  0  0  0  0  0  0  0  0  0
  -33.2490   10.8030  -18.7800 C   0  0  0  0  0  0  0  0  0  0  0  0
  -33.1880   11.2560  -17.3010 C   0  0  0  0  0  0  0  0  0  0  0  0
  -33.5230   12.7360  -17.0940 C   0  0  0  0  0  0  0  0  0  0  0  0
  -33.6680   12.9340  -15.5690 C   0  0  0  0  0  0  0  0  0  0  0  0
  -34.2180   11.6720  -14.8890 C   0  0  0  0  0  0  0  0  0  0  0  0
  -35.4370   12.0730  -14.0330 C   0  0  0  0  0  0  0  0  0  0  0  0
  -36.1130   10.8130  -13.4660 C   0  0  0  0  0  0  0  0  0  0  0  0
  1  6  1  0  0  0  0
  2 16  1  0  0  0  0
  2  1  2  0  0  0  0
  3  2  1  0  0  0  0
  4 12  1  6  0  0  0
  4  3  1  0  0  0  0
  4  5  1  0  0  0  0
  5  6  1  0  0  0  0
  5  7  1  1  0  0  0
  6 19  1  6  0  0  0
  7  9  1  0  0  0  0
  8  7  1  0  0  0  0
  9 10  2  0  0  0  0
  9 11  1  0  0  0  0
 12 14  1  0  0  0  0
 13 12  1  0  0  0  0
 15 12  1  0  0  0  0
 16 18  2  0  0  0  0
 16 17  1  0  0  0  0
 19 20  1  0  0  0  0
 20 21  1  6  0  0  0
 20 23  1  0  0  0  0
 22 21  1  0  0  0  0
 23 24  1  0  0  0  0
 24 25  1  0  0  0  0
 25 26  1  0  0  0  0
 26 27  1  0  0  0  0
 27 28  1  0  0  0  0
 28 29  1  0  0  0  0
M  END
>  <MODEL>
1

>  <REMARK>
 VINA RESULT:      -4.0      0.000      0.000
  Name = BDB4997
                            x       y       z     vdW  Elec       q    Type
                         _______ _______ _______ _____ _____    ______ ____

>  <TORSDO>
F 12

>  <vina_score>
-4.0

$$$$
BDB5007
 OpenBabel12261618153D

 34 36  0  0  1  0  0  0  0  0999 V2000
  -29.7520   13.2550  -20.2550 C   0  0  0  0  0  0  0  0  0  0  0  0
  -29.7670   14.5930  -20.2570 C   0  0  0  0  0  0  0  0  0  0  0  0
  -28.5050   15.4400  -20.5210 C   0  0  0  0  0  0  0  0  0  0  0  0
  -27.4040   14.6240  -21.1960 C   0  0  1  0  0  0  0  0  0  0  0  0
  -27.2260   13.2610  -20.4260 C   0  0  2  0  0  0  0  0  0  0  0  0
  -28.5330   12.4520  -20.5780 C   0  0  2  0  0  0  0  0  0  0  0  0
  -26.6390   13.5090  -19.0480 N   0  0  0  0  0  0  0  0  0  0  0  0
  -25.6540   13.5160  -19.0330 H   0  0  0  0  0  0  0  0  0  0  0  0
  -27.2470   13.7370  -17.7330 C   0  0  0  0  0  0  0  0  0  0  0  0
  -26.4760   14.0760  -16.8290 O   0  0  0  0  0  0  0  0  0  0  0  0
  -28.6810   13.5480  -17.3430 C   0  0  0  0  0  0  0  0  0  0  0  0
  -27.7900   14.4890  -22.6120 N   0  0  0  0  0  0  0  0  0  0  0  0
  -27.6710   15.3860  -23.0830 H   0  0  0  0  0  0  0  0  0  0  0  0
  -27.1990   13.7890  -23.0610 H   0  0  0  0  0  0  0  0  0  0  0  0
  -28.7660   14.1990  -22.6720 H   0  0  0  0  0  0  0  0  0  0  0  0
  -31.0000   15.2530  -19.8620 C   0  0  0  0  0  0  0  0  0  0  0  0
  -32.0870   14.5160  -19.5400 O   0  0  0  0  0  0  0  0  0  0  0  0
  -31.0740   16.4880  -19.8980 O   0  0  0  0  0  0  0  0  0  0  0  0
  -28.5520   12.1540  -22.0040 O   0  0  0  0  0  0  0  0  0  0  0  0
  -29.4900   11.1570  -22.4120 C   0  0  0  0  0  0  0  0  0  0  0  0
  -30.9360   11.7880  -22.5100 C   0  0  0  0  0  0  0  0  0  0  0  0
  -32.1600   10.8030  -22.3260 C   0  0  0  0  0  0  0  0  0  0  0  0
  -32.6530   11.0170  -20.9000 C   0  0  0  0  0  0  0  0  0  0  0  0
  -33.9390   11.4680  -20.6060 C   0  0  0  0  0  0  0  0  0  0  0  0
  -34.3070   11.7130  -19.2860 C   0  0  0  0  0  0  0  0  0  0  0  0
  -33.3770   11.5040  -18.2560 C   0  0  0  0  0  0  0  0  0  0  0  0
  -32.1150   11.0440  -18.5530 C   0  0  0  0  0  0  0  0  0  0  0  0
  -31.7480   10.8030  -19.8710 C   0  0  0  0  0  0  0  0  0  0  0  0
  -33.7170   11.7970  -16.8640 C   0  0  0  0  0  0  0  0  0  0  0  0
  -34.3360   10.8670  -16.0560 C   0  0  0  0  0  0  0  0  0  0  0  0
  -34.6700   11.1950  -14.7430 C   0  0  0  0  0  0  0  0  0  0  0  0
  -34.3770   12.4600  -14.2480 C   0  0  0  0  0  0  0  0  0  0  0  0
  -33.7500   13.3980  -15.0600 C   0  0  0  0  0  0  0  0  0  0  0  0
  -33.4210   13.0740  -16.3660 C   0  0  0  0  0  0  0  0  0  0  0  0
  2  1  2  0  0  0  0
  2 16  1  0  0  0  0
  3  2  1  0  0  0  0
  4 12  1  6  0  0  0
  4  3  1  0  0  0  0
  4  5  1  0  0  0  0
  5  7  1  1  0  0  0
  6 19  1  6  0  0  0
  6  5  1  0  0  0  0
  6  1  1  0  0  0  0
  7  8  1  0  0  0  0
  7  9  1  0  0  0  0
  9 11  1  0  0  0  0
  9 10  2  0  0  0  0
 13 12  1  0  0  0  0
 14 12  1  0  0  0  0
 15 12  1  0  0  0  0
 16 17  1  0  0  0  0
 18 16  2  0  0  0  0
 20 19  1  0  0  0  0
 21 20  1  0  0  0  0
 21 22  1  0  0  0  0
 22 23  1  0  0  0  0
 23 24  2  0  0  0  0
 23 28  1  0  0  0  0
 24 25  1  0  0  0  0
 25 26  2  0  0  0  0
 26 29  1  0  0  0  0
 27 26  1  0  0  0  0
 28 27  2  0  0  0  0
 29 34  2  0  0  0  0
 29 30  1  0  0  0  0
 30 31  2  0  0  0  0
 31 32  1  0  0  0  0
 33 32  2  0  0  0  0
 34 33  1  0  0  0  0
M  END
>  <MODEL>
1

>  <REMARK>
 VINA RESULT:      -3.2      0.000      0.000
  Name = BDB5007
                            x       y       z     vdW  Elec       q    Type
                         _______ _______ _______ _____ _____    ______ ____

>  <TORSDO>
F 9

>  <vina_score>
-3.2

$$$$
BDB4948
 OpenBabel12261618163D

 33 33  0  0  1  0  0  0  0  0999 V2000
  -33.4890   12.2700  -16.8540 C   0  0  0  0  0  0  0  0  0  0  0  0
  -34.2470   11.9490  -17.9090 C   0  0  0  0  0  0  0  0  0  0  0  0
  -33.6640   11.8160  -19.2690 C   0  0  1  0  0  0  0  0  0  0  0  0
  -32.2010   11.4300  -19.1370 C   0  0  2  0  0  0  0  0  0  0  0  0
  -31.5630   12.5190  -18.2960 C   0  0  1  0  0  0  0  0  0  0  0  0
  -32.0930   12.5140  -16.9520 O   0  0  0  0  0  0  0  0  0  0  0  0
  -31.5980   11.4180  -20.4760 N   0  0  0  0  0  0  0  0  0  0  0  0
  -31.0050   10.6600  -20.6890 H   0  0  0  0  0  0  0  0  0  0  0  0
  -31.7860   12.4020  -21.5080 C   0  0  0  0  0  0  0  0  0  0  0  0
  -31.2010   12.2420  -22.5850 O   0  0  0  0  0  0  0  0  0  0  0  0
  -32.6650   13.6270  -21.3420 C   0  0  0  0  0  0  0  0  0  0  0  0
  -34.3940   10.8030  -20.0450 N   0  0  0  0  0  0  0  0  0  0  0  0
  -35.3510   10.7340  -19.6990 H   0  0  0  0  0  0  0  0  0  0  0  0
  -34.4070   11.0730  -21.0280 H   0  0  0  0  0  0  0  0  0  0  0  0
  -33.9300    9.9000  -19.9460 H   0  0  0  0  0  0  0  0  0  0  0  0
  -34.1190   12.3360  -15.5340 C   0  0  0  0  0  0  0  0  0  0  0  0
  -34.6600   11.2180  -14.9830 O   0  0  0  0  0  0  0  0  0  0  0  0
  -34.1600   13.4100  -14.9220 O   0  0  0  0  0  0  0  0  0  0  0  0
  -30.0430   12.3220  -18.2280 C   0  0  0  0  0  0  0  0  0  0  0  0
  -29.5910   11.2060  -18.4990 O   0  0  0  0  0  0  0  0  0  0  0  0
  -29.1180   13.3450  -17.8480 N   0  0  0  0  0  0  0  0  0  0  0  0
  -29.5390   14.6550  -17.4000 C   0  0  0  0  0  0  0  0  0  0  0  0
  -28.3570   15.3980  -16.7320 C   0  0  0  0  0  0  0  0  0  0  0  0
  -27.4940   16.0650  -17.8160 C   0  0  0  0  0  0  0  0  0  0  0  0
  -27.7080   13.0310  -17.8840 C   0  0  0  0  0  0  0  0  0  0  0  0
  -27.3500   12.3000  -19.1930 C   0  0  0  0  0  0  0  0  0  0  0  0
  -26.8230   13.3040  -20.2290 C   0  0  0  0  0  0  0  0  0  0  0  0
  -27.6310   13.1410  -21.5260 C   0  0  0  0  0  0  0  0  0  0  0  0
  -28.1270   14.5140  -22.0080 C   0  0  0  0  0  0  0  0  0  0  0  0
  -28.4220   15.3980  -20.7850 C   0  0  0  0  0  0  0  0  0  0  0  0
  -29.9390   15.4720  -20.5540 C   0  0  0  0  0  0  0  0  0  0  0  0
  -30.3200   16.9030  -20.1360 C   0  0  0  0  0  0  0  0  0  0  0  0
  -31.8470   17.0740  -20.2190 C   0  0  0  0  0  0  0  0  0  0  0  0
  1 16  1  0  0  0  0
  2  1  2  0  0  0  0
  3 12  1  6  0  0  0
  3  4  1  0  0  0  0
  3  2  1  0  0  0  0
  4  7  1  6  0  0  0
  4  5  1  0  0  0  0
  5 19  1  1  0  0  0
  5  6  1  0  0  0  0
  6  1  1  0  0  0  0
  8  7  1  0  0  0  0
  9 11  1  0  0  0  0
  9  7  1  0  0  0  0
 10  9  2  0  0  0  0
 12 15  1  0  0  0  0
 12 13  1  0  0  0  0
 14 12  1  0  0  0  0
 16 17  2  0  0  0  0
 16 18  1  0  0  0  0
 19 21  1  0  0  0  0
 20 19  2  0  0  0  0
 21 22  1  0  0  0  0
 22 23  1  0  0  0  0
 24 23  1  0  0  0  0
 25 21  1  0  0  0  0
 26 25  1  0  0  0  0
 27 26  1  0  0  0  0
 28 27  1  0  0  0  0
 29 28  1  0  0  0  0
 29 30  1  0  0  0  0
 30 31  1  0  0  0  0
 31 32  1  0  0  0  0
 33 32  1  0  0  0  0
M  END
>  <MODEL>
1

>  <REMARK>
 VINA RESULT:      -3.1      0.000      0.000
  Name = BDB4948
                            x       y       z     vdW  Elec       q    Type
                         _______ _______ _______ _____ _____    ______ ____

>  <TORSDO>
F 14

>  <vina_score>
-3.1

$$$$
BDB4952
 OpenBabel12261618133D

 31 32  0  0  1  0  0  0  0  0999 V2000
  -33.7140   12.6680  -16.7170 C   0  0  0  0  0  0  0  0  0  0  0  0
  -34.2990   11.9350  -17.6700 C   0  0  0  0  0  0  0  0  0  0  0  0
  -33.9390   12.0960  -19.1020 C   0  0  1  0  0  0  0  0  0  0  0  0
  -32.5110   12.6030  -19.1920 C   0  0  2  0  0  0  0  0  0  0  0  0
  -32.4830   13.8960  -18.3990 C   0  0  1  0  0  0  0  0  0  0  0  0
  -32.7240   13.6490  -16.9960 O   0  0  0  0  0  0  0  0  0  0  0  0
  -32.1990   12.8770  -20.6010 N   0  0  0  0  0  0  0  0  0  0  0  0
  -32.6430   13.6550  -21.0110 H   0  0  0  0  0  0  0  0  0  0  0  0
  -31.3100   12.1220  -21.4420 C   0  0  0  0  0  0  0  0  0  0  0  0
  -31.1580   12.4880  -22.6120 O   0  0  0  0  0  0  0  0  0  0  0  0
  -30.5490   10.8980  -20.9680 C   0  0  0  0  0  0  0  0  0  0  0  0
  -34.0750   10.8170  -19.8150 N   0  0  0  0  0  0  0  0  0  0  0  0
  -34.1680   10.9940  -20.8150 H   0  0  0  0  0  0  0  0  0  0  0  0
  -33.2480   10.2450  -19.6470 H   0  0  0  0  0  0  0  0  0  0  0  0
  -34.9040   10.3270  -19.4780 H   0  0  0  0  0  0  0  0  0  0  0  0
  -34.0800   12.4230  -15.3210 C   0  0  0  0  0  0  0  0  0  0  0  0
  -34.3470   11.1590  -14.9010 O   0  0  0  0  0  0  0  0  0  0  0  0
  -34.1480   13.3670  -14.5250 O   0  0  0  0  0  0  0  0  0  0  0  0
  -31.1240   14.5880  -18.5520 C   0  0  0  0  0  0  0  0  0  0  0  0
  -31.0320   15.5060  -19.3730 O   0  0  0  0  0  0  0  0  0  0  0  0
  -29.9510   14.2350  -17.8110 N   0  0  0  0  0  0  0  0  0  0  0  0
  -29.9030   13.1020  -16.9050 C   0  0  0  0  0  0  0  0  0  0  0  0
  -29.8270   11.7730  -17.6990 C   0  0  0  0  0  0  0  0  0  0  0  0
  -28.7690   15.0450  -18.0000 C   0  0  0  0  0  0  0  0  0  0  0  0
  -27.5580   14.1860  -18.4220 C   0  0  0  0  0  0  0  0  0  0  0  0
  -27.6360   13.8880  -19.8910 C   0  0  0  0  0  0  0  0  0  0  0  0
  -27.8230   14.9250  -20.7980 C   0  0  0  0  0  0  0  0  0  0  0  0
  -27.8920   14.6530  -22.1580 C   0  0  0  0  0  0  0  0  0  0  0  0
  -27.7730   13.3450  -22.6130 C   0  0  0  0  0  0  0  0  0  0  0  0
  -27.5860   12.3080  -21.7070 C   0  0  0  0  0  0  0  0  0  0  0  0
  -27.5180   12.5810  -20.3450 C   0  0  0  0  0  0  0  0  0  0  0  0
  1 16  1  0  0  0  0
  2  1  2  0  0  0  0
  3 12  1  6  0  0  0
  3  2  1  0  0  0  0
  4  7  1  6  0  0  0
  4  3  1  0  0  0  0
  4  5  1  0  0  0  0
  5 19  1  1  0  0  0
  5  6  1  0  0  0  0
  6  1  1  0  0  0  0
  8  7  1  0  0  0  0
  9 11  1  0  0  0  0
  9  7  1  0  0  0  0
 10  9  2  0  0  0  0
 12 14  1  0  0  0  0
 12 15  1  0  0  0  0
 13 12  1  0  0  0  0
 16 17  2  0  0  0  0
 16 18  1  0  0  0  0
 19 21  1  0  0  0  0
 20 19  2  0  0  0  0
 21 22  1  0  0  0  0
 23 22  1  0  0  0  0
 24 21  1  0  0  0  0
 25 24  1  0  0  0  0
 26 25  1  0  0  0  0
 27 26  2  0  0  0  0
 28 27  1  0  0  0  0
 29 28  2  0  0  0  0
 29 30  1  0  0  0  0
 30 31  2  0  0  0  0
 31 26  1  0  0  0  0
M  END
>  <MODEL>
1

>  <REMARK>
 VINA RESULT:      -2.4      0.000      0.000
  Name = BDB4952
                            x       y       z     vdW  Elec       q    Type
                         _______ _______ _______ _____ _____    ______ ____

>  <TORSDO>
F 8

>  <vina_score>
-2.4

$$$$
BDB4965
 OpenBabel12261618153D

 34 35  0  0  1  0  0  0  0  0999 V2000
  -31.4540   11.1940  -20.4160 C   0  0  0  0  0  0  0  0  0  0  0  0
  -32.6080   10.8030  -19.8650 C   0  0  0  0  0  0  0  0  0  0  0  0
  -32.9000   11.0390  -18.4280 C   0  0  1  0  0  0  0  0  0  0  0  0
  -32.1180   12.2560  -17.9650 C   0  0  2  0  0  0  0  0  0  0  0  0
  -30.6620   11.9440  -18.2570 C   0  0  1  0  0  0  0  0  0  0  0  0
  -30.4280   11.8450  -19.6790 O   0  0  0  0  0  0  0  0  0  0  0  0
  -32.3110   12.4150  -16.5170 N   0  0  0  0  0  0  0  0  0  0  0  0
  -31.5480   12.1830  -15.9390 H   0  0  0  0  0  0  0  0  0  0  0  0
  -33.5050   12.8750  -15.8600 C   0  0  0  0  0  0  0  0  0  0  0  0
  -33.5020   12.9500  -14.6260 O   0  0  0  0  0  0  0  0  0  0  0  0
  -34.7670   13.2710  -16.6020 C   0  0  0  0  0  0  0  0  0  0  0  0
  -34.3400   11.2470  -18.2210 N   0  0  0  0  0  0  0  0  0  0  0  0
  -34.4990   12.1870  -17.8580 H   0  0  0  0  0  0  0  0  0  0  0  0
  -34.8300   11.1370  -19.1080 H   0  0  0  0  0  0  0  0  0  0  0  0
  -34.6890   10.5610  -17.5510 H   0  0  0  0  0  0  0  0  0  0  0  0
  -31.2530   10.9740  -21.8490 C   0  0  0  0  0  0  0  0  0  0  0  0
  -29.9970   10.8030  -22.3400 O   0  0  0  0  0  0  0  0  0  0  0  0
  -32.2250   10.9440  -22.6120 O   0  0  0  0  0  0  0  0  0  0  0  0
  -29.7560   13.0370  -17.6830 C   0  0  0  0  0  0  0  0  0  0  0  0
  -28.7340   12.6870  -17.0810 O   0  0  0  0  0  0  0  0  0  0  0  0
  -30.0260   14.4370  -17.7850 N   0  0  0  0  0  0  0  0  0  0  0  0
  -31.2350   14.9610  -18.3880 C   0  0  0  0  0  0  0  0  0  0  0  0
  -31.1370   14.9090  -19.9320 C   0  0  0  0  0  0  0  0  0  0  0  0
  -32.5160   15.2170  -20.5400 C   0  0  0  0  0  0  0  0  0  0  0  0
  -29.0490   15.3530  -17.2440 C   0  0  0  0  0  0  0  0  0  0  0  0
  -28.1640   15.9460  -18.3600 C   0  0  0  0  0  0  0  0  0  0  0  0
  -27.4690   14.8410  -19.1000 C   0  0  0  0  0  0  0  0  0  0  0  0
  -26.5090   14.0720  -18.4530 C   0  0  0  0  0  0  0  0  0  0  0  0
  -25.8680   13.0440  -19.1350 C   0  0  0  0  0  0  0  0  0  0  0  0
  -26.1890   12.7850  -20.4620 C   0  0  0  0  0  0  0  0  0  0  0  0
  -27.1500   13.5530  -21.1080 C   0  0  0  0  0  0  0  0  0  0  0  0
  -27.7900   14.5820  -20.4270 C   0  0  0  0  0  0  0  0  0  0  0  0
  -27.4720   13.2920  -22.4450 O   0  0  0  0  0  0  0  0  0  0  0  0
  -27.8970   11.9320  -22.6130 C   0  0  0  0  0  0  0  0  0  0  0  0
  1  2  2  0  0  0  0
  1  6  1  0  0  0  0
  2  3  1  0  0  0  0
  3 12  1  6  0  0  0
  3  4  1  0  0  0  0
  4  7  1  1  0  0  0
  5  4  1  0  0  0  0
  5 19  1  6  0  0  0
  6  5  1  0  0  0  0
  7  8  1  0  0  0  0
  7  9  1  0  0  0  0
  9 10  2  0  0  0  0
 11  9  1  0  0  0  0
 12 13  1  0  0  0  0
 12 15  1  0  0  0  0
 14 12  1  0  0  0  0
 16  1  1  0  0  0  0
 17 16  1  0  0  0  0
 18 16  2  0  0  0  0
 19 20  2  0  0  0  0
 21 19  1  0  0  0  0
 21 25  1  0  0  0  0
 22 21  1  0  0  0  0
 23 22  1  0  0  0  0
 24 23  1  0  0  0  0
 26 25  1  0  0  0  0
 27 28  1  0  0  0  0
 27 26  1  0  0  0  0
 29 28  2  0  0  0  0
 30 29  1  0  0  0  0
 31 30  2  0  0  0  0
 31 32  1  0  0  0  0
 32 27  2  0  0  0  0
 33 31  1  0  0  0  0
 34 33  1  0  0  0  0
M  END
>  <MODEL>
1

>  <REMARK>
 VINA RESULT:      -1.5      0.000      0.000
  Name = BDB4965
                            x       y       z     vdW  Elec       q    Type
                         _______ _______ _______ _____ _____    ______ ____

>  <TORSDO>
F 10

>  <vina_score>
-1.5

$$$$
BDB4946
 OpenBabel12261618153D

 37 38  0  0  1  0  0  0  0  0999 V2000
  -27.6880   13.2190  -21.0310 C   0  0  0  0  0  0  0  0  0  0  0  0
  -27.5540   14.3560  -20.3390 C   0  0  0  0  0  0  0  0  0  0  0  0
  -28.7310   15.1870  -19.9790 C   0  0  1  0  0  0  0  0  0  0  0  0
  -29.9530   14.2900  -19.8910 C   0  0  2  0  0  0  0  0  0  0  0  0
  -30.0650   13.6140  -21.2440 C   0  0  1  0  0  0  0  0  0  0  0  0
  -28.9460   12.7310  -21.4770 O   0  0  0  0  0  0  0  0  0  0  0  0
  -31.1350   15.1300  -19.6550 N   0  0  0  0  0  0  0  0  0  0  0  0
  -31.8420   14.7520  -19.0830 H   0  0  0  0  0  0  0  0  0  0  0  0
  -31.3620   16.4510  -20.1770 C   0  0  0  0  0  0  0  0  0  0  0  0
  -32.4170   17.0240  -19.8810 O   0  0  0  0  0  0  0  0  0  0  0  0
  -30.3760   17.1770  -21.0720 C   0  0  0  0  0  0  0  0  0  0  0  0
  -26.4910   12.4230  -21.3090 C   0  0  0  0  0  0  0  0  0  0  0  0
  -25.3470   12.6530  -20.6140 O   0  0  0  0  0  0  0  0  0  0  0  0
  -26.5220   11.5430  -22.1770 O   0  0  0  0  0  0  0  0  0  0  0  0
  -31.3600   12.8030  -21.3310 C   0  0  0  0  0  0  0  0  0  0  0  0
  -32.3380   13.3260  -21.8770 O   0  0  0  0  0  0  0  0  0  0  0  0
  -31.5150   11.4830  -20.8040 N   0  0  0  0  0  0  0  0  0  0  0  0
  -30.4690   10.8040  -20.0670 C   0  0  0  0  0  0  0  0  0  0  0  0
  -30.5570   11.1470  -18.5610 C   0  0  0  0  0  0  0  0  0  0  0  0
  -29.1690   11.5810  -18.0560 C   0  0  0  0  0  0  0  0  0  0  0  0
  -32.7810   10.8190  -21.0120 C   0  0  0  0  0  0  0  0  0  0  0  0
  -33.9330   11.5900  -20.3340 C   0  0  0  0  0  0  0  0  0  0  0  0
  -33.5970   11.8430  -18.8940 C   0  0  0  0  0  0  0  0  0  0  0  0
  -33.2410   13.1220  -18.4790 C   0  0  0  0  0  0  0  0  0  0  0  0
  -32.9360   13.3590  -17.1450 C   0  0  0  0  0  0  0  0  0  0  0  0
  -32.9870   12.3180  -16.2250 C   0  0  0  0  0  0  0  0  0  0  0  0
  -33.3430   11.0410  -16.6390 C   0  0  0  0  0  0  0  0  0  0  0  0
  -33.6480   10.8040  -17.9750 C   0  0  0  0  0  0  0  0  0  0  0  0
  -28.5080   15.8620  -18.7140 N   0  0  0  0  0  0  0  0  0  0  0  0
  -28.4980   16.8470  -18.7010 H   0  0  0  0  0  0  0  0  0  0  0  0
  -28.3050   15.1670  -17.5010 C   0  0  0  0  0  0  0  0  0  0  0  0
  -27.1320   14.7930  -17.1880 N   0  0  0  0  0  0  0  0  0  0  0  0
  -26.9780   14.3090  -16.3450 H   0  0  0  0  0  0  0  0  0  0  0  0
  -26.3760   14.9900  -17.7880 H   0  0  0  0  0  0  0  0  0  0  0  0
  -29.3690   14.8790  -16.6350 N   0  0  0  0  0  0  0  0  0  0  0  0
  -29.7780   13.9840  -16.6380 H   0  0  0  0  0  0  0  0  0  0  0  0
  -29.7070   15.5720  -16.0240 H   0  0  0  0  0  0  0  0  0  0  0  0
  1  2  2  0  0  0  0
  2  3  1  0  0  0  0
  3  4  1  0  0  0  0
  3 29  1  1  0  0  0
  4  7  1  6  0  0  0
  5 15  1  1  0  0  0
  5  4  1  0  0  0  0
  6  5  1  0  0  0  0
  6  1  1  0  0  0  0
  7  8  1  0  0  0  0
  9 10  2  0  0  0  0
  9  7  1  0  0  0  0
 11  9  1  0  0  0  0
 12  1  1  0  0  0  0
 12 13  1  0  0  0  0
 14 12  2  0  0  0  0
 15 17  1  0  0  0  0
 16 15  2  0  0  0  0
 17 18  1  0  0  0  0
 18 19  1  0  0  0  0
 19 20  1  0  0  0  0
 21 17  1  0  0  0  0
 21 22  1  0  0  0  0
 22 23  1  0  0  0  0
 23 24  2  0  0  0  0
 23 28  1  0  0  0  0
 24 25  1  0  0  0  0
 25 26  2  0  0  0  0
 27 26  1  0  0  0  0
 28 27  2  0  0  0  0
 29 30  1  0  0  0  0
 29 31  1  0  0  0  0
 31 32  2  0  0  0  0
 31 35  1  0  0  0  0
 32 33  1  0  0  0  0
 34 32  1  0  0  0  0
 35 37  1  0  0  0  0
 36 35  1  0  0  0  0
M  END
>  <MODEL>
1

>  <REMARK>
 VINA RESULT:      -1.4      0.000      0.000
  Name = BDB4946
                            x       y       z     vdW  Elec       q    Type
                         _______ _______ _______ _____ _____    ______ ____

>  <TORSDO>
F 11

>  <vina_score>
-1.4

$$$$
BDB4968
 OpenBabel12261618143D

 34 35  0  0  1  0  0  0  0  0999 V2000
  -31.9350   11.4040  -20.3380 C   0  0  0  0  0  0  0  0  0  0  0  0
  -33.0270   10.8070  -19.8470 C   0  0  0  0  0  0  0  0  0  0  0  0
  -33.3180   10.8030  -18.3900 C   0  0  1  0  0  0  0  0  0  0  0  0
  -32.6730   12.0250  -17.7600 C   0  0  2  0  0  0  0  0  0  0  0  0
  -31.1970   11.9300  -18.0950 C   0  0  1  0  0  0  0  0  0  0  0  0
  -30.9790   12.0610  -19.5180 O   0  0  0  0  0  0  0  0  0  0  0  0
  -32.8580   11.9550  -16.3050 N   0  0  0  0  0  0  0  0  0  0  0  0
  -32.1920   11.4360  -15.7970 H   0  0  0  0  0  0  0  0  0  0  0  0
  -33.9160   12.5670  -15.5470 C   0  0  0  0  0  0  0  0  0  0  0  0
  -33.9260   12.4090  -14.3210 O   0  0  0  0  0  0  0  0  0  0  0  0
  -35.0190   13.3980  -16.1730 C   0  0  0  0  0  0  0  0  0  0  0  0
  -34.7680   10.8090  -18.1540 N   0  0  0  0  0  0  0  0  0  0  0  0
  -35.1360    9.8660  -18.2760 H   0  0  0  0  0  0  0  0  0  0  0  0
  -34.9570   11.1270  -17.2040 H   0  0  0  0  0  0  0  0  0  0  0  0
  -35.2190   11.4380  -18.8200 H   0  0  0  0  0  0  0  0  0  0  0  0
  -31.7350   11.4130  -21.7890 C   0  0  0  0  0  0  0  0  0  0  0  0
  -32.6370   10.8040  -22.6020 O   0  0  0  0  0  0  0  0  0  0  0  0
  -30.7460   11.9750  -22.2730 O   0  0  0  0  0  0  0  0  0  0  0  0
  -30.4140   13.0260  -17.3750 C   0  0  0  0  0  0  0  0  0  0  0  0
  -30.0370   12.8070  -16.2190 O   0  0  0  0  0  0  0  0  0  0  0  0
  -30.1110   14.3000  -17.9470 N   0  0  0  0  0  0  0  0  0  0  0  0
  -30.5050   14.6720  -19.2970 C   0  0  0  0  0  0  0  0  0  0  0  0
  -31.9830   15.1310  -19.3460 C   0  0  0  0  0  0  0  0  0  0  0  0
  -32.1470   16.1940  -20.4490 C   0  0  0  0  0  0  0  0  0  0  0  0
  -29.3500   15.2280  -17.1410 C   0  0  0  0  0  0  0  0  0  0  0  0
  -28.1950   15.8700  -17.9380 C   0  0  0  0  0  0  0  0  0  0  0  0
  -27.4540   14.8140  -18.7060 C   0  0  0  0  0  0  0  0  0  0  0  0
  -26.6610   13.8970  -18.0270 C   0  0  0  0  0  0  0  0  0  0  0  0
  -25.9680   12.9210  -18.7350 C   0  0  0  0  0  0  0  0  0  0  0  0
  -26.0700   12.8630  -20.1200 C   0  0  0  0  0  0  0  0  0  0  0  0
  -25.2170   11.6590  -20.9960 Cl  0  0  0  0  0  0  0  0  0  0  0  0
  -26.8640   13.7810  -20.7980 C   0  0  0  0  0  0  0  0  0  0  0  0
  -27.5560   14.7560  -20.0900 C   0  0  0  0  0  0  0  0  0  0  0  0
  -28.5360   15.8900  -20.9280 Cl  0  0  0  0  0  0  0  0  0  0  0  0
  1  2  2  0  0  0  0
  1  6  1  0  0  0  0
  2  3  1  0  0  0  0
  3 12  1  6  0  0  0
  3  4  1  0  0  0  0
  4  7  1  1  0  0  0
  5  4  1  0  0  0  0
  5 19  1  1  0  0  0
  6  5  1  0  0  0  0
  7  8  1  0  0  0  0
  7  9  1  0  0  0  0
  9 10  2  0  0  0  0
 11  9  1  0  0  0  0
 12 14  1  0  0  0  0
 13 12  1  0  0  0  0
 15 12  1  0  0  0  0
 16  1  1  0  0  0  0
 17 16  2  0  0  0  0
 18 16  1  0  0  0  0
 19 20  2  0  0  0  0
 21 19  1  0  0  0  0
 21 25  1  0  0  0  0
 22 21  1  0  0  0  0
 23 22  1  0  0  0  0
 24 23  1  0  0  0  0
 26 25  1  0  0  0  0
 27 28  1  0  0  0  0
 27 26  1  0  0  0  0
 29 28  2  0  0  0  0
 30 29  1  0  0  0  0
 31 30  1  0  0  0  0
 32 30  2  0  0  0  0
 32 33  1  0  0  0  0
 33 27  2  0  0  0  0
 34 33  1  0  0  0  0
M  END
>  <MODEL>
1

>  <REMARK>
 VINA RESULT:       0.7      0.000      0.000
  Name = BDB4968
                            x       y       z     vdW  Elec       q    Type
                         _______ _______ _______ _____ _____    ______ ____

>  <TORSDO>
F 9

>  <vina_score>
0.7

$$$$
BDB4972
 OpenBabel12261618153D

 38 40  0  0  1  0  0  0  0  0999 V2000
  -30.6320   11.6390  -20.2500 C   0  0  0  0  0  0  0  0  0  0  0  0
  -30.2380   10.8520  -19.3820 O   0  0  0  0  0  0  0  0  0  0  0  0
  -32.0270   11.6540  -20.5570 N   0  0  0  0  0  0  0  0  0  0  0  0
  -27.2160   12.9630  -20.8220 C   0  0  0  0  0  0  0  0  0  0  0  0
  -27.4250   14.2340  -21.1830 C   0  0  0  0  0  0  0  0  0  0  0  0
  -28.7970   14.7670  -21.3820 C   0  0  1  0  0  0  0  0  0  0  0  0
  -29.7590   13.9710  -20.5180 C   0  0  2  0  0  0  0  0  0  0  0  0
  -29.5920   12.5240  -20.9430 C   0  0  1  0  0  0  0  0  0  0  0  0
  -28.2720   12.0360  -20.6120 O   0  0  0  0  0  0  0  0  0  0  0  0
  -31.1280   14.4180  -20.8080 N   0  0  0  0  0  0  0  0  0  0  0  0
  -31.7240   13.7680  -21.2470 H   0  0  0  0  0  0  0  0  0  0  0  0
  -31.6850   15.7110  -20.5130 C   0  0  0  0  0  0  0  0  0  0  0  0
  -32.8610   15.9270  -20.8250 O   0  0  0  0  0  0  0  0  0  0  0  0
  -30.9040   16.8230  -19.8400 C   0  0  0  0  0  0  0  0  0  0  0  0
  -28.8520   16.1930  -21.0290 N   0  0  0  0  0  0  0  0  0  0  0  0
  -29.8160   16.4550  -20.8250 H   0  0  0  0  0  0  0  0  0  0  0  0
  -28.2720   16.3630  -20.2080 H   0  0  0  0  0  0  0  0  0  0  0  0
  -28.5070   16.7500  -21.8110 H   0  0  0  0  0  0  0  0  0  0  0  0
  -25.8400   12.5170  -20.5950 C   0  0  0  0  0  0  0  0  0  0  0  0
  -25.2470   11.6700  -21.4770 O   0  0  0  0  0  0  0  0  0  0  0  0
  -25.2180   12.9110  -19.6020 O   0  0  0  0  0  0  0  0  0  0  0  0
  -32.5900   12.4700  -21.6150 C   0  0  0  0  0  0  0  0  0  0  0  0
  -34.1030   12.6940  -21.3800 C   0  0  0  0  0  0  0  0  0  0  0  0
  -34.8340   11.3410  -21.4410 C   0  0  0  0  0  0  0  0  0  0  0  0
  -32.8970   10.8030  -19.7800 C   0  0  0  0  0  0  0  0  0  0  0  0
  -33.8870   11.6370  -18.9390 C   0  0  0  0  0  0  0  0  0  0  0  0
  -33.1520   12.3330  -17.8310 C   0  0  0  0  0  0  0  0  0  0  0  0
  -33.7720   12.5220  -16.6010 C   0  0  0  0  0  0  0  0  0  0  0  0
  -33.0910   13.1620  -15.5720 C   0  0  0  0  0  0  0  0  0  0  0  0
  -31.7920   13.6100  -15.7720 C   0  0  0  0  0  0  0  0  0  0  0  0
  -31.1730   13.4210  -17.0030 C   0  0  0  0  0  0  0  0  0  0  0  0
  -31.8540   12.7820  -18.0320 C   0  0  0  0  0  0  0  0  0  0  0  0
  -29.8020   13.8960  -17.2130 C   0  0  0  0  0  0  0  0  0  0  0  0
  -29.5450   15.2590  -17.3190 C   0  0  0  0  0  0  0  0  0  0  0  0
  -28.2450   15.7080  -17.5180 C   0  0  0  0  0  0  0  0  0  0  0  0
  -27.2010   14.7940  -17.6110 C   0  0  0  0  0  0  0  0  0  0  0  0
  -27.4570   13.4330  -17.5050 C   0  0  0  0  0  0  0  0  0  0  0  0
  -28.7590   12.9840  -17.3070 C   0  0  0  0  0  0  0  0  0  0  0  0
  1  2  2  0  0  0  0
  3  1  1  0  0  0  0
  3 25  1  0  0  0  0
  4  9  1  0  0  0  0
  4 19  1  0  0  0  0
  5  4  2  0  0  0  0
  6  5  1  0  0  0  0
  6 15  1  1  0  0  0
  6  7  1  0  0  0  0
  7 10  1  6  0  0  0
  8  9  1  0  0  0  0
  8  7  1  0  0  0  0
  8  1  1  1  0  0  0
 10 12  1  0  0  0  0
 11 10  1  0  0  0  0
 12 14  1  0  0  0  0
 13 12  2  0  0  0  0
 15 16  1  0  0  0  0
 15 17  1  0  0  0  0
 18 15  1  0  0  0  0
 19 21  1  0  0  0  0
 20 19  2  0  0  0  0
 22 23  1  0  0  0  0
 22  3  1  0  0  0  0
 24 23  1  0  0  0  0
 25 26  1  0  0  0  0
 26 27  1  0  0  0  0
 27 28  1  0  0  0  0
 28 29  2  0  0  0  0
 30 29  1  0  0  0  0
 31 30  2  0  0  0  0
 32 27  2  0  0  0  0
 32 31  1  0  0  0  0
 33 31  1  0  0  0  0
 34 33  2  0  0  0  0
 35 34  1  0  0  0  0
 36 35  2  0  0  0  0
 36 37  1  0  0  0  0
 37 38  2  0  0  0  0
 38 33  1  0  0  0  0
M  END
>  <MODEL>
1

>  <REMARK>
 VINA RESULT:       1.4      0.000      0.000
  Name = BDB4972
                            x       y       z     vdW  Elec       q    Type
                         _______ _______ _______ _____ _____    ______ ____

>  <TORSDO>
F 10

>  <vina_score>
1.4

$$$$
