BDB5244
 OpenBabel01091714593D

 30 30  0  0  1  0  0  0  0  0999 V2000
   10.2130   12.2050   -0.5530 C   0  0  2  0  0  0  0  0  0  0  0  0
    8.8260   12.7400   -0.8460 C   0  0  2  0  0  0  0  0  0  0  0  0
    7.8140   11.6840   -0.4250 C   0  0  0  0  0  0  0  0  0  0  0  0
    8.0790   11.2990    1.0040 C   0  0  0  0  0  0  0  0  0  0  0  0
    9.2370   11.4350    1.5270 N   0  0  0  0  0  0  0  0  0  0  0  0
   10.3020   11.9050    0.8460 N   0  0  0  0  0  0  0  0  0  0  0  0
   11.5270   12.0600    1.5060 C   0  0  0  0  0  0  0  0  0  0  0  0
   12.5210   12.4340    0.8740 O   0  0  0  0  0  0  0  0  0  0  0  0
   11.2240   13.1950   -0.9170 N   0  0  0  0  0  0  0  0  0  0  0  0
   11.9730   12.8970   -1.4820 H   0  0  0  0  0  0  0  0  0  0  0  0
   11.2030   14.5640   -0.5140 C   0  0  0  0  0  0  0  0  0  0  0  0
   12.1350   15.2990   -0.8610 O   0  0  0  0  0  0  0  0  0  0  0  0
   10.0830   15.1550    0.3110 C   0  0  0  0  0  0  0  0  0  0  0  0
    6.9900   10.7480    1.8090 C   0  0  0  0  0  0  0  0  0  0  0  0
    5.7030   10.8880    1.3970 O   0  0  0  0  0  0  0  0  0  0  0  0
    7.2410   10.1540    2.8640 O   0  0  0  0  0  0  0  0  0  0  0  0
    8.6850   13.0280   -2.2600 N   0  0  0  0  0  0  0  0  0  0  0  0
    8.8390   12.3020   -2.9070 H   0  0  0  0  0  0  0  0  0  0  0  0
    8.3360   14.3090   -2.7480 C   0  0  0  0  0  0  0  0  0  0  0  0
    7.4420   14.9800   -2.1450 N   0  0  0  0  0  0  0  0  0  0  0  0
    7.1900   15.8730   -2.4750 H   0  0  0  0  0  0  0  0  0  0  0  0
    7.0000   14.6080   -1.3470 H   0  0  0  0  0  0  0  0  0  0  0  0
    8.9550   14.8530   -3.8800 N   0  0  0  0  0  0  0  0  0  0  0  0
    9.4940   14.2780   -4.4710 H   0  0  0  0  0  0  0  0  0  0  0  0
    8.8520   15.8090   -4.0850 H   0  0  0  0  0  0  0  0  0  0  0  0
   11.6430   11.7640    2.9760 C   0  0  0  0  0  0  0  0  0  0  0  0
   11.0360   12.9320    3.7890 C   0  0  0  0  0  0  0  0  0  0  0  0
    9.7820   12.4520    4.5490 C   0  0  0  0  0  0  0  0  0  0  0  0
   13.1300   11.5760    3.3460 C   0  0  0  0  0  0  0  0  0  0  0  0
   13.6650   12.8520    4.0280 C   0  0  0  0  0  0  0  0  0  0  0  0
  1  9  1  1  0  0  0
  1  6  1  0  0  0  0
  2 17  1  6  0  0  0
  2  1  1  0  0  0  0
  2  3  1  0  0  0  0
  3  4  1  0  0  0  0
  4  5  2  0  0  0  0
  4 14  1  0  0  0  0
  6  7  1  0  0  0  0
  6  5  1  0  0  0  0
  7 26  1  0  0  0  0
  8  7  2  0  0  0  0
  9 11  1  0  0  0  0
 10  9  1  0  0  0  0
 11 13  1  0  0  0  0
 12 11  2  0  0  0  0
 14 16  1  0  0  0  0
 15 14  2  0  0  0  0
 18 17  1  0  0  0  0
 19 17  1  0  0  0  0
 19 20  1  0  0  0  0
 20 22  1  0  0  0  0
 21 20  1  0  0  0  0
 23 19  2  0  0  0  0
 24 23  1  0  0  0  0
 25 23  1  0  0  0  0
 26 29  1  0  0  0  0
 26 27  1  0  0  0  0
 27 28  1  0  0  0  0
 29 30  1  0  0  0  0
M  END
>  <MODEL>
1

>  <REMARK>
 VINA RESULT:      -7.7      0.000      0.000
  Name = BDB5244
                            x       y       z     vdW  Elec       q    Type
                         _______ _______ _______ _____ _____    ______ ____

>  <TORSDO>
F 8

>  <vina_score>
-7.7

$$$$
BDB4942
 OpenBabel01091714563D

 30 30  0  0  1  0  0  0  0  0999 V2000
    7.3130   11.4050    0.3370 C   0  0  0  0  0  0  0  0  0  0  0  0
    7.3260   11.9900   -0.8660 C   0  0  0  0  0  0  0  0  0  0  0  0
    8.5410   12.6700   -1.3840 C   0  0  1  0  0  0  0  0  0  0  0  0
    9.7640   12.0360   -0.7450 C   0  0  2  0  0  0  0  0  0  0  0  0
    9.5670   12.1780    0.7520 C   0  0  1  0  0  0  0  0  0  0  0  0
    8.4390   11.3970    1.2030 O   0  0  0  0  0  0  0  0  0  0  0  0
   10.9540   12.7880   -1.1640 N   0  0  0  0  0  0  0  0  0  0  0  0
   11.6260   12.2980   -1.6920 H   0  0  0  0  0  0  0  0  0  0  0  0
   11.2360   14.1690   -0.8810 C   0  0  0  0  0  0  0  0  0  0  0  0
   12.2890   14.6530   -1.3090 O   0  0  0  0  0  0  0  0  0  0  0  0
   10.3070   15.0640   -0.0820 C   0  0  0  0  0  0  0  0  0  0  0  0
    6.0970   10.7100    0.7650 C   0  0  0  0  0  0  0  0  0  0  0  0
    5.9180   10.3990    2.0750 O   0  0  0  0  0  0  0  0  0  0  0  0
    5.2350   10.4050   -0.0670 O   0  0  0  0  0  0  0  0  0  0  0  0
   10.8210   11.7150    1.5030 C   0  0  0  0  0  0  0  0  0  0  0  0
   11.5210   10.8420    0.9770 O   0  0  0  0  0  0  0  0  0  0  0  0
   11.2190   12.2110    2.7820 N   0  0  0  0  0  0  0  0  0  0  0  0
   10.4150   13.1420    3.5420 C   0  0  0  0  0  0  0  0  0  0  0  0
    9.4560   12.3690    4.4740 C   0  0  0  0  0  0  0  0  0  0  0  0
   12.4450   11.7160    3.3540 C   0  0  0  0  0  0  0  0  0  0  0  0
   13.3650   12.8890    3.7570 C   0  0  0  0  0  0  0  0  0  0  0  0
    8.6090   12.5570   -2.8280 N   0  0  0  0  0  0  0  0  0  0  0  0
    8.2290   11.7560   -3.2570 H   0  0  0  0  0  0  0  0  0  0  0  0
    9.1980   13.5480   -3.6460 C   0  0  0  0  0  0  0  0  0  0  0  0
   10.0870   13.2110   -4.4880 N   0  0  0  0  0  0  0  0  0  0  0  0
   10.5040   13.8920   -5.0630 H   0  0  0  0  0  0  0  0  0  0  0  0
   10.3580   12.2680   -4.5670 H   0  0  0  0  0  0  0  0  0  0  0  0
    8.8240   14.8950   -3.5470 N   0  0  0  0  0  0  0  0  0  0  0  0
    8.3460   15.3300   -4.2890 H   0  0  0  0  0  0  0  0  0  0  0  0
    9.0390   15.4070   -2.7340 H   0  0  0  0  0  0  0  0  0  0  0  0
  1 12  1  0  0  0  0
  1  6  1  0  0  0  0
  2  1  2  0  0  0  0
  3 22  1  6  0  0  0
  3  2  1  0  0  0  0
  3  4  1  0  0  0  0
  4  7  1  6  0  0  0
  4  5  1  0  0  0  0
  5  6  1  0  0  0  0
  5 15  1  1  0  0  0
  7  9  1  0  0  0  0
  8  7  1  0  0  0  0
  9 11  1  0  0  0  0
 10  9  2  0  0  0  0
 12 13  1  0  0  0  0
 14 12  2  0  0  0  0
 15 17  1  0  0  0  0
 16 15  2  0  0  0  0
 17 20  1  0  0  0  0
 17 18  1  0  0  0  0
 18 19  1  0  0  0  0
 20 21  1  0  0  0  0
 23 22  1  0  0  0  0
 24 28  1  0  0  0  0
 24 22  1  0  0  0  0
 25 24  2  0  0  0  0
 26 25  1  0  0  0  0
 27 25  1  0  0  0  0
 28 30  1  0  0  0  0
 29 28  1  0  0  0  0
M  END
>  <MODEL>
1

>  <REMARK>
 VINA RESULT:      -7.5      0.000      0.000
  Name = BDB4942
                            x       y       z     vdW  Elec       q    Type
                         _______ _______ _______ _____ _____    ______ ____

>  <TORSDO>
F 8

>  <vina_score>
-7.5

$$$$
BDB4934
 OpenBabel01091714563D

 32 32  0  0  1  0  0  0  0  0999 V2000
   10.5160   12.7640   -0.3220 C   0  0  2  0  0  0  0  0  0  0  0  0
    9.1280   12.9570   -0.9050 C   0  0  2  0  0  0  0  0  0  0  0  0
    8.1660   12.1460   -0.1160 C   0  0  0  0  0  0  0  0  0  0  0  0
    8.3920   11.8510    1.1690 C   0  0  0  0  0  0  0  0  0  0  0  0
    9.5470   12.2910    1.8730 O   0  0  0  0  0  0  0  0  0  0  0  0
   10.4190   13.1770    1.1350 C   0  0  1  0  0  0  0  0  0  0  0  0
   11.4500   13.6500   -1.0280 N   0  0  0  0  0  0  0  0  0  0  0  0
   12.1760   13.2180   -1.5330 H   0  0  0  0  0  0  0  0  0  0  0  0
   11.4080   15.0880   -1.0560 C   0  0  0  0  0  0  0  0  0  0  0  0
   12.2740   15.6870   -1.7030 O   0  0  0  0  0  0  0  0  0  0  0  0
   10.3560   15.9080   -0.3350 C   0  0  0  0  0  0  0  0  0  0  0  0
    7.4230   11.0130    1.8750 C   0  0  0  0  0  0  0  0  0  0  0  0
    6.1070   11.0680    1.5400 O   0  0  0  0  0  0  0  0  0  0  0  0
    7.8000   10.2560    2.7770 O   0  0  0  0  0  0  0  0  0  0  0  0
    9.1060   12.5550   -2.2990 N   0  0  0  0  0  0  0  0  0  0  0  0
    9.0850   11.5940   -2.5110 H   0  0  0  0  0  0  0  0  0  0  0  0
    9.1120   13.4850   -3.3620 C   0  0  0  0  0  0  0  0  0  0  0  0
    9.6450   13.1590   -4.4690 N   0  0  0  0  0  0  0  0  0  0  0  0
    9.6550   13.7990   -5.2180 H   0  0  0  0  0  0  0  0  0  0  0  0
   10.0450   12.2670   -4.5780 H   0  0  0  0  0  0  0  0  0  0  0  0
    8.5460   14.7590   -3.2230 N   0  0  0  0  0  0  0  0  0  0  0  0
    7.9150   14.9400   -2.4900 H   0  0  0  0  0  0  0  0  0  0  0  0
    8.7800   15.4740   -3.8590 H   0  0  0  0  0  0  0  0  0  0  0  0
   11.8180   13.1590    1.7890 C   0  0  2  0  0  0  0  0  0  0  0  0
   12.6550   12.2430    1.0800 O   0  0  0  0  0  0  0  0  0  0  0  0
   12.1230   11.4950    0.7660 H   0  0  0  0  0  0  0  0  0  0  0  0
   11.7180   12.7140    3.2650 C   0  0  2  0  0  0  0  0  0  0  0  0
   11.1420   13.7570    4.0560 O   0  0  0  0  0  0  0  0  0  0  0  0
   10.2700   13.9890    3.6980 H   0  0  0  0  0  0  0  0  0  0  0  0
   13.1270   12.3990    3.7960 C   0  0  0  0  0  0  0  0  0  0  0  0
   13.9660   13.5450    3.6280 O   0  0  0  0  0  0  0  0  0  0  0  0
   13.4830   14.3400    3.9020 H   0  0  0  0  0  0  0  0  0  0  0  0
  1  7  1  6  0  0  0
  1  6  1  0  0  0  0
  2 15  1  6  0  0  0
  2  1  1  0  0  0  0
  2  3  1  0  0  0  0
  3  4  2  0  0  0  0
  4  5  1  0  0  0  0
  4 12  1  0  0  0  0
  6 24  1  0  0  0  0
  6  5  1  1  0  0  0
  8  7  1  0  0  0  0
  9  7  1  0  0  0  0
  9 11  1  0  0  0  0
 10  9  2  0  0  0  0
 12 14  1  0  0  0  0
 13 12  2  0  0  0  0
 16 15  1  0  0  0  0
 17 21  1  0  0  0  0
 17 15  1  0  0  0  0
 18 17  2  0  0  0  0
 19 18  1  0  0  0  0
 20 18  1  0  0  0  0
 21 22  1  0  0  0  0
 23 21  1  0  0  0  0
 24 25  1  6  0  0  0
 24 27  1  0  0  0  0
 26 25  1  0  0  0  0
 27 30  1  1  0  0  0
 27 28  1  0  0  0  0
 29 28  1  0  0  0  0
 31 30  1  0  0  0  0
 31 32  1  0  0  0  0
M  END
>  <MODEL>
1

>  <REMARK>
 VINA RESULT:      -7.4      0.000      0.000
  Name = BDB4934
                            x       y       z     vdW  Elec       q    Type
                         _______ _______ _______ _____ _____    ______ ____

>  <TORSDO>
F 11

>  <vina_score>
-7.4

$$$$
BDB4932
 OpenBabel01091714583D

 28 28  0  0  1  0  0  0  0  0999 V2000
    7.4090   11.4390    0.3820 C   0  0  0  0  0  0  0  0  0  0  0  0
    7.4180   11.9960   -0.8340 C   0  0  0  0  0  0  0  0  0  0  0  0
    8.6260   12.6780   -1.3640 C   0  0  1  0  0  0  0  0  0  0  0  0
    9.8550   12.0750   -0.7070 C   0  0  2  0  0  0  0  0  0  0  0  0
    9.6520   12.2510    0.7860 C   0  0  1  0  0  0  0  0  0  0  0  0
    8.5320   11.4660    1.2520 O   0  0  0  0  0  0  0  0  0  0  0  0
   11.0370   12.8330   -1.1400 N   0  0  0  0  0  0  0  0  0  0  0  0
   11.7200   12.3370   -1.6490 H   0  0  0  0  0  0  0  0  0  0  0  0
   11.2960   14.2260   -0.8950 C   0  0  0  0  0  0  0  0  0  0  0  0
   12.3460   14.7120   -1.3310 O   0  0  0  0  0  0  0  0  0  0  0  0
   10.3490   15.1290   -0.1290 C   0  0  0  0  0  0  0  0  0  0  0  0
   10.9060   11.8250    1.5510 C   0  0  0  0  0  0  0  0  0  0  0  0
   11.5680   10.8810    1.1100 O   0  0  0  0  0  0  0  0  0  0  0  0
   11.3400   12.4570    2.7550 N   0  0  0  0  0  0  0  0  0  0  0  0
   10.6110   13.5370    3.3750 C   0  0  0  0  0  0  0  0  0  0  0  0
   12.5400   11.9850    3.3840 C   0  0  0  0  0  0  0  0  0  0  0  0
    6.2010   10.7390    0.8230 C   0  0  0  0  0  0  0  0  0  0  0  0
    5.2350   10.4180   -0.0780 O   0  0  0  0  0  0  0  0  0  0  0  0
    6.0590   10.4410    2.0140 O   0  0  0  0  0  0  0  0  0  0  0  0
    8.7000   12.5330   -2.8050 N   0  0  0  0  0  0  0  0  0  0  0  0
    8.3480   11.7090   -3.2140 H   0  0  0  0  0  0  0  0  0  0  0  0
    9.2580   13.5230   -3.6460 C   0  0  0  0  0  0  0  0  0  0  0  0
   10.1360   13.1890   -4.5010 N   0  0  0  0  0  0  0  0  0  0  0  0
   10.5310   13.8690   -5.0930 H   0  0  0  0  0  0  0  0  0  0  0  0
   10.4210   12.2490   -4.5730 H   0  0  0  0  0  0  0  0  0  0  0  0
    8.8640   14.8640   -3.5570 N   0  0  0  0  0  0  0  0  0  0  0  0
    9.4090   15.5670   -3.9800 H   0  0  0  0  0  0  0  0  0  0  0  0
    8.0420   15.1040   -3.0720 H   0  0  0  0  0  0  0  0  0  0  0  0
  1 17  1  0  0  0  0
  1  6  1  0  0  0  0
  2  1  2  0  0  0  0
  3 20  1  6  0  0  0
  3  2  1  0  0  0  0
  3  4  1  0  0  0  0
  4  7  1  6  0  0  0
  4  5  1  0  0  0  0
  5  6  1  0  0  0  0
  5 12  1  1  0  0  0
  7  9  1  0  0  0  0
  8  7  1  0  0  0  0
  9 11  1  0  0  0  0
 10  9  2  0  0  0  0
 12 14  1  0  0  0  0
 13 12  2  0  0  0  0
 14 15  1  0  0  0  0
 14 16  1  0  0  0  0
 17 19  1  0  0  0  0
 18 17  2  0  0  0  0
 21 20  1  0  0  0  0
 22 26  1  0  0  0  0
 22 20  1  0  0  0  0
 23 22  2  0  0  0  0
 24 23  1  0  0  0  0
 25 23  1  0  0  0  0
 26 28  1  0  0  0  0
 27 26  1  0  0  0  0
M  END
>  <MODEL>
1

>  <REMARK>
 VINA RESULT:      -7.4      0.000      0.000
  Name = BDB4932
                            x       y       z     vdW  Elec       q    Type
                         _______ _______ _______ _____ _____    ______ ____

>  <TORSDO>
F 6

>  <vina_score>
-7.4

$$$$
BDB5015
 OpenBabel01091714573D

 25 25  0  0  1  0  0  0  0  0999 V2000
    9.6380   13.0440   -0.1000 C   0  0  1  0  0  0  0  0  0  0  0  0
   10.3310   13.0260    1.3170 C   0  0  1  0  0  0  0  0  0  0  0  0
    9.3300   13.1010    2.5120 C   0  0  2  0  0  0  0  0  0  0  0  0
    8.3760   11.9160    2.4120 C   0  0  0  0  0  0  0  0  0  0  0  0
    7.7970   11.7080    0.9830 C   0  0  0  0  0  0  0  0  0  0  0  0
    8.3860   12.1990   -0.1400 C   0  0  0  0  0  0  0  0  0  0  0  0
    7.8500   11.9400   -1.3390 F   0  0  0  0  0  0  0  0  0  0  0  0
   11.2710   11.8490    1.5800 N   0  0  0  0  0  0  0  0  0  0  0  0
   10.9740   11.0050    1.1710 H   0  0  0  0  0  0  0  0  0  0  0  0
   12.5330   11.7330    2.3230 C   0  0  0  0  0  0  0  0  0  0  0  0
   13.1560   10.6750    2.1790 O   0  0  0  0  0  0  0  0  0  0  0  0
   13.1080   12.7180    3.2980 C   0  0  0  0  0  0  0  0  0  0  0  0
    8.5270   14.2860    2.5970 N   0  0  0  0  0  0  0  0  0  0  0  0
    8.9100   15.0020    1.9790 H   0  0  0  0  0  0  0  0  0  0  0  0
    7.5700   14.0710    2.3150 H   0  0  0  0  0  0  0  0  0  0  0  0
    8.5290   14.6310    3.5570 H   0  0  0  0  0  0  0  0  0  0  0  0
    6.5930   10.8680    0.8540 C   0  0  0  0  0  0  0  0  0  0  0  0
    5.6000   10.9020    1.7820 O   0  0  0  0  0  0  0  0  0  0  0  0
    6.4590   10.1540   -0.1490 O   0  0  0  0  0  0  0  0  0  0  0  0
    9.3430   14.3960   -0.6890 O   0  0  0  0  0  0  0  0  0  0  0  0
    9.8820   14.7600   -1.9720 C   0  0  0  0  0  0  0  0  0  0  0  0
   11.2450   14.0480   -2.1980 C   0  0  0  0  0  0  0  0  0  0  0  0
   12.3770   14.7920   -1.4720 C   0  0  0  0  0  0  0  0  0  0  0  0
    8.9010   14.3500   -3.0920 C   0  0  0  0  0  0  0  0  0  0  0  0
    9.4800   13.1540   -3.8810 C   0  0  0  0  0  0  0  0  0  0  0  0
  1 20  1  1  0  0  0
  1  2  1  0  0  0  0
  2  8  1  1  0  0  0
  2  3  1  0  0  0  0
  3 13  1  6  0  0  0
  4  3  1  0  0  0  0
  5  4  1  0  0  0  0
  6  1  1  0  0  0  0
  6  5  2  0  0  0  0
  7  6  1  0  0  0  0
  8 10  1  0  0  0  0
  9  8  1  0  0  0  0
 10 12  1  0  0  0  0
 11 10  2  0  0  0  0
 13 16  1  0  0  0  0
 14 13  1  0  0  0  0
 15 13  1  0  0  0  0
 17  5  1  0  0  0  0
 17 18  1  0  0  0  0
 19 17  2  0  0  0  0
 21 20  1  0  0  0  0
 22 21  1  0  0  0  0
 22 23  1  0  0  0  0
 24 21  1  0  0  0  0
 25 24  1  0  0  0  0
M  END
>  <MODEL>
1

>  <REMARK>
 VINA RESULT:      -6.9      0.000      0.000
  Name = BDB5015
                            x       y       z     vdW  Elec       q    Type
                         _______ _______ _______ _____ _____    ______ ____

>  <TORSDO>
F 7

>  <vina_score>
-6.9

$$$$
BDB5232
 OpenBabel01091714573D

 26 26  0  0  1  0  0  0  0  0999 V2000
    8.0930   12.1260    0.1000 C   0  0  0  0  0  0  0  0  0  0  0  0
    7.6420   11.6220    1.2730 C   0  0  0  0  0  0  0  0  0  0  0  0
    8.3720   11.8110    2.6270 C   0  0  0  0  0  0  0  0  0  0  0  0
    9.2510   13.0570    2.6300 C   0  0  1  0  0  0  0  0  0  0  0  0
   10.1370   13.0090    1.3260 C   0  0  2  0  0  0  0  0  0  0  0  0
    9.3340   12.9870   -0.0400 C   0  0  2  0  0  0  0  0  0  0  0  0
   11.1230   11.8580    1.5420 N   0  0  0  0  0  0  0  0  0  0  0  0
   10.8220   11.0020    1.1620 H   0  0  0  0  0  0  0  0  0  0  0  0
   12.4320   11.7870    2.2060 C   0  0  0  0  0  0  0  0  0  0  0  0
   13.0550   10.7270    2.0720 O   0  0  0  0  0  0  0  0  0  0  0  0
   13.0730   12.8300    3.0730 C   0  0  0  0  0  0  0  0  0  0  0  0
    8.3640   14.1940    2.8370 N   0  0  0  0  0  0  0  0  0  0  0  0
    8.7420   15.0110    2.3580 H   0  0  0  0  0  0  0  0  0  0  0  0
    7.4400   13.9760    2.4630 H   0  0  0  0  0  0  0  0  0  0  0  0
    8.2890   14.3900    3.8350 H   0  0  0  0  0  0  0  0  0  0  0  0
    6.4600   10.7720    1.2150 C   0  0  0  0  0  0  0  0  0  0  0  0
    5.8640   10.5260    0.0210 O   0  0  0  0  0  0  0  0  0  0  0  0
    5.9820   10.3120    2.2530 O   0  0  0  0  0  0  0  0  0  0  0  0
    9.0060   14.4010   -0.6190 N   0  0  0  0  0  0  0  0  0  0  0  0
    8.1660   14.6600   -0.1020 H   0  0  0  0  0  0  0  0  0  0  0  0
   10.1150   15.3870   -0.3840 C   0  0  0  0  0  0  0  0  0  0  0  0
   11.1420   15.4920   -1.5390 C   0  0  0  0  0  0  0  0  0  0  0  0
   12.3890   14.6610   -1.1880 C   0  0  0  0  0  0  0  0  0  0  0  0
    8.6860   14.4360   -2.0300 C   0  0  0  0  0  0  0  0  0  0  0  0
    8.6740   13.0500   -2.6820 C   0  0  0  0  0  0  0  0  0  0  0  0
    9.4980   13.1280   -3.9830 C   0  0  0  0  0  0  0  0  0  0  0  0
  1  2  2  0  0  0  0
  2  3  1  0  0  0  0
  3  4  1  0  0  0  0
  4 12  1  6  0  0  0
  5  7  1  1  0  0  0
  5  4  1  0  0  0  0
  6 19  1  1  0  0  0
  6  1  1  0  0  0  0
  6  5  1  0  0  0  0
  7  9  1  0  0  0  0
  8  7  1  0  0  0  0
  9 11  1  0  0  0  0
 10  9  2  0  0  0  0
 12 15  1  0  0  0  0
 13 12  1  0  0  0  0
 14 12  1  0  0  0  0
 16  2  1  0  0  0  0
 16 18  1  0  0  0  0
 17 16  2  0  0  0  0
 19 21  1  0  0  0  0
 19 20  1  0  0  0  0
 22 23  1  0  0  0  0
 22 21  1  0  0  0  0
 24 19  1  0  0  0  0
 25 24  1  0  0  0  0
 26 25  1  0  0  0  0
M  END
>  <MODEL>
1

>  <REMARK>
 VINA RESULT:      -6.9      0.000      0.000
  Name = BDB5232
                            x       y       z     vdW  Elec       q    Type
                         _______ _______ _______ _____ _____    ______ ____

>  <TORSDO>
F 8

>  <vina_score>
-6.9

$$$$
BDB5021
 OpenBabel01091714583D

 27 28  0  0  1  0  0  0  0  0999 V2000
    7.7050   11.2620   -0.4710 C   0  0  0  0  0  0  0  0  0  0  0  0
    7.7080   10.3540    0.8100 C   0  0  1  0  0  0  0  0  0  0  0  0
    8.5530   11.1680    1.8300 C   0  0  0  0  0  0  0  0  0  0  0  0
    8.1680   12.5920    1.4540 C   0  0  2  0  0  0  0  0  0  0  0  0
    8.4710   12.5200   -0.0220 C   0  0  2  0  0  0  0  0  0  0  0  0
    6.2960   10.3390    1.3280 C   0  0  0  0  0  0  0  0  0  0  0  0
    6.0820   10.1530    2.5310 O   0  0  0  0  0  0  0  0  0  0  0  0
    5.2580   10.5320    0.4740 O   0  0  0  0  0  0  0  0  0  0  0  0
    8.0820   13.7070   -0.7580 N   0  0  0  0  0  0  0  0  0  0  0  0
    7.6330   14.4360   -0.2730 H   0  0  0  0  0  0  0  0  0  0  0  0
    8.3220   13.8590   -2.1430 C   0  0  0  0  0  0  0  0  0  0  0  0
    8.3270   15.0260   -2.6460 N   0  0  0  0  0  0  0  0  0  0  0  0
    8.4920   15.1440   -3.6100 H   0  0  0  0  0  0  0  0  0  0  0  0
    8.1660   15.8100   -2.0740 H   0  0  0  0  0  0  0  0  0  0  0  0
    8.5520   12.7540   -2.9720 N   0  0  0  0  0  0  0  0  0  0  0  0
    8.5300   12.8600   -3.9510 H   0  0  0  0  0  0  0  0  0  0  0  0
    8.7370   11.8710   -2.5760 H   0  0  0  0  0  0  0  0  0  0  0  0
    9.2500   13.7360    1.0920 C   0  0  1  0  0  0  0  0  0  0  0  0
    9.5310   14.4320    2.5340 N   0  0  0  0  0  0  0  0  0  0  0  0
    9.6230   14.0960    3.4550 H   0  0  0  0  0  0  0  0  0  0  0  0
    9.5930   15.7460    1.9230 C   0  0  0  0  0  0  0  0  0  0  0  0
    9.5010   16.7310    2.6670 O   0  0  0  0  0  0  0  0  0  0  0  0
    9.7340   15.9970    0.4360 C   0  0  0  0  0  0  0  0  0  0  0  0
   10.6600   12.8730    0.8350 C   0  0  0  0  0  0  0  0  0  0  0  0
   11.9440   13.3680    0.1420 C   0  0  0  0  0  0  0  0  0  0  0  0
   11.7660   13.3000   -1.3840 C   0  0  0  0  0  0  0  0  0  0  0  0
   11.9950   14.6970   -1.9890 C   0  0  0  0  0  0  0  0  0  0  0  0
  1  5  1  0  0  0  0
  1  2  1  0  0  0  0
  2  6  1  1  0  0  0
  2  3  1  0  0  0  0
  4  3  1  1  0  0  0
  5  9  1  6  0  0  0
  5 18  1  0  0  0  0
  5  4  1  0  0  0  0
  6  7  1  0  0  0  0
  8  6  2  0  0  0  0
  9 10  1  0  0  0  0
 11  9  1  0  0  0  0
 12 11  1  0  0  0  0
 12 14  1  0  0  0  0
 13 12  1  0  0  0  0
 15 17  1  0  0  0  0
 15 11  2  0  0  0  0
 16 15  1  0  0  0  0
 18 24  1  1  0  0  0
 18  4  1  0  0  0  0
 18 19  1  0  0  0  0
 19 20  1  0  0  0  0
 21 19  1  0  0  0  0
 21 22  2  0  0  0  0
 23 21  1  0  0  0  0
 25 24  1  0  0  0  0
 26 25  1  0  0  0  0
 27 26  1  0  0  0  0
M  END
>  <MODEL>
1

>  <REMARK>
 VINA RESULT:      -6.8      0.000      0.000
  Name = BDB5021
                            x       y       z     vdW  Elec       q    Type
                         _______ _______ _______ _____ _____    ______ ____

>  <TORSDO>
F 9

>  <vina_score>
-6.8

$$$$
BDB5023
 OpenBabel01091714563D

 28 28  0  0  1  0  0  0  0  0999 V2000
    7.5620   10.7940   -0.0420 C   0  0  0  0  0  0  0  0  0  0  0  0
    8.2850   10.1540    1.1960 C   0  0  1  0  0  0  0  0  0  0  0  0
    9.4910   11.1030    1.4420 C   0  0  0  0  0  0  0  0  0  0  0  0
    8.8880   12.4460    1.0540 C   0  0  2  0  0  0  0  0  0  0  0  0
    8.3780   12.0710   -0.3140 C   0  0  2  0  0  0  0  0  0  0  0  0
    7.3560   10.3190    2.3680 C   0  0  0  0  0  0  0  0  0  0  0  0
    6.1490   10.5030    2.1780 O   0  0  0  0  0  0  0  0  0  0  0  0
    7.8450   10.2660    3.6340 O   0  0  0  0  0  0  0  0  0  0  0  0
    7.5960   13.1110   -0.9530 N   0  0  0  0  0  0  0  0  0  0  0  0
    6.7700   13.4170   -0.5140 H   0  0  0  0  0  0  0  0  0  0  0  0
    7.9710   13.7050   -2.1800 C   0  0  0  0  0  0  0  0  0  0  0  0
    7.8160   14.9560   -2.3370 N   0  0  0  0  0  0  0  0  0  0  0  0
    8.0730   15.3800   -3.1880 H   0  0  0  0  0  0  0  0  0  0  0  0
    7.4380   15.5000   -1.6090 H   0  0  0  0  0  0  0  0  0  0  0  0
    8.5090   12.9440   -3.2260 N   0  0  0  0  0  0  0  0  0  0  0  0
    9.3580   12.4620   -3.0980 H   0  0  0  0  0  0  0  0  0  0  0  0
    8.0370   12.8900   -4.0890 H   0  0  0  0  0  0  0  0  0  0  0  0
    9.9690   13.5810    0.9770 C   0  0  1  0  0  0  0  0  0  0  0  0
    9.7790   14.5160    2.0540 N   0  0  0  0  0  0  0  0  0  0  0  0
    9.7240   14.1830    2.9780 H   0  0  0  0  0  0  0  0  0  0  0  0
    9.6700   15.8980    1.8130 C   0  0  0  0  0  0  0  0  0  0  0  0
    9.5410   16.6740    2.7630 O   0  0  0  0  0  0  0  0  0  0  0  0
    9.6960   16.4370    0.4070 C   0  0  0  0  0  0  0  0  0  0  0  0
   11.4760   13.0800    0.8540 C   0  0  0  0  0  0  0  0  0  0  0  0
   12.3230   13.7360   -0.2820 C   0  0  0  0  0  0  0  0  0  0  0  0
   11.6860   13.5180   -1.6710 C   0  0  0  0  0  0  0  0  0  0  0  0
   12.1870   13.2950    2.2060 C   0  0  0  0  0  0  0  0  0  0  0  0
   12.7470   11.9530    2.7190 C   0  0  0  0  0  0  0  0  0  0  0  0
  1  2  1  0  0  0  0
  2  3  1  0  0  0  0
  2  6  1  1  0  0  0
  4  3  1  6  0  0  0
  5  9  1  1  0  0  0
  5  1  1  0  0  0  0
  5  4  1  0  0  0  0
  6  8  1  0  0  0  0
  7  6  2  0  0  0  0
  9 10  1  0  0  0  0
 11  9  1  0  0  0  0
 12 11  1  0  0  0  0
 12 14  1  0  0  0  0
 13 12  1  0  0  0  0
 15 16  1  0  0  0  0
 15 11  2  0  0  0  0
 17 15  1  0  0  0  0
 18 24  1  1  0  0  0
 18  4  1  0  0  0  0
 18 19  1  0  0  0  0
 19 20  1  0  0  0  0
 21 19  1  0  0  0  0
 21 22  2  0  0  0  0
 23 21  1  0  0  0  0
 24 27  1  0  0  0  0
 25 24  1  0  0  0  0
 26 25  1  0  0  0  0
 27 28  1  0  0  0  0
M  END
>  <MODEL>
1

>  <REMARK>
 VINA RESULT:      -6.7      0.000      0.000
  Name = BDB5023
                            x       y       z     vdW  Elec       q    Type
                         _______ _______ _______ _____ _____    ______ ____

>  <TORSDO>
F 9

>  <vina_score>
-6.7

$$$$
BDB5234
 OpenBabel01091714573D

 26 26  0  0  1  0  0  0  0  0999 V2000
    8.2460   12.2930    0.0650 C   0  0  0  0  0  0  0  0  0  0  0  0
    7.6850   11.7240    1.1550 C   0  0  0  0  0  0  0  0  0  0  0  0
    8.2860   11.8280    2.5660 C   0  0  0  0  0  0  0  0  0  0  0  0
    9.2010   13.0400    2.7250 C   0  0  1  0  0  0  0  0  0  0  0  0
   10.1930   13.0880    1.5220 C   0  0  2  0  0  0  0  0  0  0  0  0
    9.4800   13.1560    0.0940 C   0  0  2  0  0  0  0  0  0  0  0  0
   11.1490   11.9020    1.7350 N   0  0  0  0  0  0  0  0  0  0  0  0
   10.8180   11.0540    1.3600 H   0  0  0  0  0  0  0  0  0  0  0  0
   12.4640   11.7880    2.3950 C   0  0  0  0  0  0  0  0  0  0  0  0
   13.0830   10.7360    2.2020 O   0  0  0  0  0  0  0  0  0  0  0  0
   13.1010   12.7720    3.3340 C   0  0  0  0  0  0  0  0  0  0  0  0
    8.3770   14.1700    2.8540 N   0  0  0  0  0  0  0  0  0  0  0  0
    8.2480   14.6020    1.9400 H   0  0  0  0  0  0  0  0  0  0  0  0
    7.4700   13.8870    3.2280 H   0  0  0  0  0  0  0  0  0  0  0  0
    8.8130   14.8370    3.4890 H   0  0  0  0  0  0  0  0  0  0  0  0
    6.5120   10.8910    0.9290 C   0  0  0  0  0  0  0  0  0  0  0  0
    6.4170   10.1570   -0.2100 O   0  0  0  0  0  0  0  0  0  0  0  0
    5.5970   10.8780    1.7510 O   0  0  0  0  0  0  0  0  0  0  0  0
    9.0580   14.5020   -0.6080 N   0  0  0  0  0  0  0  0  0  0  0  0
    8.0710   14.3280   -0.8010 H   0  0  0  0  0  0  0  0  0  0  0  0
    9.3300   15.2480    0.0310 H   0  0  0  0  0  0  0  0  0  0  0  0
    9.5640   14.9190   -1.9770 C   0  0  0  0  0  0  0  0  0  0  0  0
   11.0200   14.4490   -2.3080 C   0  0  0  0  0  0  0  0  0  0  0  0
   12.0840   15.2270   -1.5050 C   0  0  0  0  0  0  0  0  0  0  0  0
    8.6570   14.2820   -3.0510 C   0  0  0  0  0  0  0  0  0  0  0  0
    9.4280   13.1590   -3.7880 C   0  0  0  0  0  0  0  0  0  0  0  0
  1  6  1  0  0  0  0
  1  2  2  0  0  0  0
  2  3  1  0  0  0  0
  3  4  1  0  0  0  0
  4 12  1  6  0  0  0
  5  7  1  6  0  0  0
  5  4  1  0  0  0  0
  6 19  1  1  0  0  0
  6  5  1  0  0  0  0
  7  9  1  0  0  0  0
  8  7  1  0  0  0  0
  9 11  1  0  0  0  0
 10  9  2  0  0  0  0
 12 14  1  0  0  0  0
 12 15  1  0  0  0  0
 13 12  1  0  0  0  0
 16  2  1  0  0  0  0
 16 18  1  0  0  0  0
 17 16  2  0  0  0  0
 19 21  1  0  0  0  0
 20 19  1  0  0  0  0
 22 19  1  0  0  0  0
 23 22  1  0  0  0  0
 23 24  1  0  0  0  0
 25 22  1  0  0  0  0
 26 25  1  0  0  0  0
M  END
>  <MODEL>
1

>  <REMARK>
 VINA RESULT:      -6.7      0.000      0.000
  Name = BDB5234
                            x       y       z     vdW  Elec       q    Type
                         _______ _______ _______ _____ _____    ______ ____

>  <TORSDO>
F 7

>  <vina_score>
-6.7

$$$$
BDB5024
 OpenBabel01091714573D

 30 30  0  0  1  0  0  0  0  0999 V2000
   10.3920   12.8310    4.3250 C   0  0  0  0  0  0  0  0  0  0  0  0
    8.9370   12.3540    3.9990 C   0  0  1  0  0  0  0  0  0  0  0  0
    8.6510   12.9940    2.6260 C   0  0  2  0  0  0  0  0  0  0  0  0
   10.0010   12.7720    1.8870 C   0  0  2  0  0  0  0  0  0  0  0  0
   10.9030   13.4380    2.9690 C   0  0  2  0  0  0  0  0  0  0  0  0
    8.9450   10.8290    3.9140 C   0  0  0  0  0  0  0  0  0  0  0  0
    9.9100   10.1540    4.2860 O   0  0  0  0  0  0  0  0  0  0  0  0
    7.9000   10.2030    3.3160 O   0  0  0  0  0  0  0  0  0  0  0  0
    8.4120   14.3940    2.8160 O   0  0  0  0  0  0  0  0  0  0  0  0
    8.3290   14.5810    3.7640 H   0  0  0  0  0  0  0  0  0  0  0  0
   12.3660   13.3270    2.8020 N   0  0  0  0  0  0  0  0  0  0  0  0
   12.7990   13.8760    2.1090 H   0  0  0  0  0  0  0  0  0  0  0  0
   13.1980   12.4490    3.6080 C   0  0  0  0  0  0  0  0  0  0  0  0
   14.0460   12.9740    4.3940 N   0  0  0  0  0  0  0  0  0  0  0  0
   14.6280   12.4010    4.9460 H   0  0  0  0  0  0  0  0  0  0  0  0
   14.1240   13.9540    4.4530 H   0  0  0  0  0  0  0  0  0  0  0  0
   13.1160   11.0160    3.5500 N   0  0  0  0  0  0  0  0  0  0  0  0
   12.2640   10.5630    3.7450 H   0  0  0  0  0  0  0  0  0  0  0  0
   13.9120   10.4870    3.3140 H   0  0  0  0  0  0  0  0  0  0  0  0
    9.9980   13.3630    0.4040 C   0  0  1  0  0  0  0  0  0  0  0  0
    8.6360   13.5300   -0.0700 N   0  0  0  0  0  0  0  0  0  0  0  0
    7.9400   13.7930    0.5750 H   0  0  0  0  0  0  0  0  0  0  0  0
    8.2740   13.3280   -1.4240 C   0  0  0  0  0  0  0  0  0  0  0  0
    9.2870   12.9460   -2.4750 C   0  0  0  0  0  0  0  0  0  0  0  0
    7.0920   13.4740   -1.7550 O   0  0  0  0  0  0  0  0  0  0  0  0
   10.8300   14.7240    0.1970 C   0  0  0  0  0  0  0  0  0  0  0  0
   12.0260   14.6650   -0.7910 C   0  0  0  0  0  0  0  0  0  0  0  0
   11.7580   15.4400   -2.0980 C   0  0  0  0  0  0  0  0  0  0  0  0
    9.8900   15.8770   -0.2510 C   0  0  0  0  0  0  0  0  0  0  0  0
    9.6440   16.8860    0.8920 C   0  0  0  0  0  0  0  0  0  0  0  0
  2  6  1  6  0  0  0
  2  1  1  0  0  0  0
  3  9  1  1  0  0  0
  3  2  1  0  0  0  0
  4 20  1  6  0  0  0
  4  3  1  0  0  0  0
  4  5  1  0  0  0  0
  5 11  1  6  0  0  0
  5  1  1  0  0  0  0
  6  7  1  0  0  0  0
  8  6  2  0  0  0  0
  9 10  1  0  0  0  0
 11 13  1  0  0  0  0
 12 11  1  0  0  0  0
 13 14  1  0  0  0  0
 14 16  1  0  0  0  0
 14 15  1  0  0  0  0
 17 13  2  0  0  0  0
 17 18  1  0  0  0  0
 19 17  1  0  0  0  0
 20 21  1  1  0  0  0
 21 22  1  0  0  0  0
 23 21  1  0  0  0  0
 24 23  1  0  0  0  0
 25 23  2  0  0  0  0
 26 20  1  0  0  0  0
 27 26  1  0  0  0  0
 28 27  1  0  0  0  0
 29 26  1  0  0  0  0
 29 30  1  0  0  0  0
M  END
>  <MODEL>
1

>  <REMARK>
 VINA RESULT:      -6.6      0.000      0.000
  Name = BDB5024
                            x       y       z     vdW  Elec       q    Type
                         _______ _______ _______ _____ _____    ______ ____

>  <TORSDO>
F 10

>  <vina_score>
-6.6

$$$$
BDB5200
 OpenBabel01091714553D

 26 27  0  0  1  0  0  0  0  0999 V2000
    8.7660   10.9180    2.3440 C   0  0  0  0  0  0  0  0  0  0  0  0
    9.9530   11.8440    2.3010 C   0  0  2  0  0  0  0  0  0  0  0  0
   10.1100   11.9370    0.7890 C   0  0  1  0  0  0  0  0  0  0  0  0
    8.7340   12.2110    0.2950 N   0  0  0  0  0  0  0  0  0  0  0  0
    8.5410   11.7590   -0.5980 H   0  0  0  0  0  0  0  0  0  0  0  0
    8.5970   13.2100    0.1430 H   0  0  0  0  0  0  0  0  0  0  0  0
    7.8460   11.7120    1.3970 C   0  0  1  0  0  0  0  0  0  0  0  0
   11.1750   11.2520    2.9560 C   0  0  0  0  0  0  0  0  0  0  0  0
   11.1560   10.4690    4.0140 N   0  0  0  0  0  0  0  0  0  0  0  0
   12.3560   10.1540    4.2940 N   0  0  0  0  0  0  0  0  0  0  0  0
   12.6210    9.5740    5.0450 H   0  0  0  0  0  0  0  0  0  0  0  0
   13.2050   10.7150    3.4340 C   0  0  0  0  0  0  0  0  0  0  0  0
   12.4620   11.4540    2.5270 C   0  0  0  0  0  0  0  0  0  0  0  0
    6.6990   10.8850    0.8930 C   0  0  0  0  0  0  0  0  0  0  0  0
    5.5380   10.8360    1.5960 O   0  0  0  0  0  0  0  0  0  0  0  0
    6.8150   10.2450   -0.1580 O   0  0  0  0  0  0  0  0  0  0  0  0
   10.1680   13.2600   -0.0980 C   0  0  1  0  0  0  0  0  0  0  0  0
   10.2410   14.3840    0.9240 N   0  0  0  0  0  0  0  0  0  0  0  0
   10.9890   14.1640    1.5260 H   0  0  0  0  0  0  0  0  0  0  0  0
    9.7070   15.6040    1.3860 C   0  0  0  0  0  0  0  0  0  0  0  0
    9.3360   15.6990    2.5580 O   0  0  0  0  0  0  0  0  0  0  0  0
    9.5950   16.7960    0.4700 C   0  0  0  0  0  0  0  0  0  0  0  0
   11.6680   13.2580   -0.8080 C   0  0  0  0  0  0  0  0  0  0  0  0
   10.7920   14.1310   -1.7560 C   0  0  0  0  0  0  0  0  0  0  0  0
   11.5510   15.3790   -2.2550 C   0  0  0  0  0  0  0  0  0  0  0  0
   10.3960   13.2850   -2.9790 C   0  0  0  0  0  0  0  0  0  0  0  0
  2  1  1  0  0  0  0
  2  8  1  1  0  0  0
  3  4  1  6  0  0  0
  3  2  1  0  0  0  0
  4  7  1  0  0  0  0
  5  4  1  0  0  0  0
  6  4  1  0  0  0  0
  7 14  1  6  0  0  0
  7  1  1  0  0  0  0
  8  9  2  0  0  0  0
  9 10  1  0  0  0  0
 10 11  1  0  0  0  0
 12 10  1  0  0  0  0
 13  8  1  0  0  0  0
 13 12  2  0  0  0  0
 14 15  1  0  0  0  0
 16 14  2  0  0  0  0
 17 23  1  6  0  0  0
 17  3  1  0  0  0  0
 17 18  1  0  0  0  0
 18 20  1  0  0  0  0
 18 19  1  0  0  0  0
 20 21  2  0  0  0  0
 22 20  1  0  0  0  0
 24 23  1  0  0  0  0
 25 24  1  0  0  0  0
 26 24  1  0  0  0  0
M  END
>  <MODEL>
1

>  <REMARK>
 VINA RESULT:      -6.6      0.000      0.000
  Name = BDB5200
                            x       y       z     vdW  Elec       q    Type
                         _______ _______ _______ _____ _____    ______ ____

>  <TORSDO>
F 6

>  <vina_score>
-6.6

$$$$
BDB5009
 OpenBabel01091714573D

 27 27  0  0  1  0  0  0  0  0999 V2000
    9.3980   13.8320    0.3250 C   0  0  0  0  0  0  0  0  0  0  0  0
    9.6420   14.3720    1.5350 C   0  0  0  0  0  0  0  0  0  0  0  0
    9.9290   13.5470    2.7670 C   0  0  0  0  0  0  0  0  0  0  0  0
   10.2580   12.1150    2.4630 C   0  0  1  0  0  0  0  0  0  0  0  0
    9.2950   11.5420    1.3430 C   0  0  2  0  0  0  0  0  0  0  0  0
    9.5230   12.3550    0.0580 C   0  0  2  0  0  0  0  0  0  0  0  0
    7.7980   11.3970    1.7440 N   0  0  0  0  0  0  0  0  0  0  0  0
    7.5990   11.7800    2.6290 H   0  0  0  0  0  0  0  0  0  0  0  0
    6.6000   10.8060    1.0850 C   0  0  0  0  0  0  0  0  0  0  0  0
    5.5480   10.8500    1.7320 O   0  0  0  0  0  0  0  0  0  0  0  0
    6.4970   10.1540   -0.2570 C   0  0  0  0  0  0  0  0  0  0  0  0
    9.6010   15.8100    1.6980 C   0  0  0  0  0  0  0  0  0  0  0  0
    9.7240   16.6070    0.6060 O   0  0  0  0  0  0  0  0  0  0  0  0
    9.3980   16.3040    2.8100 O   0  0  0  0  0  0  0  0  0  0  0  0
   11.7840   11.9650    2.2440 N   0  0  0  0  0  0  0  0  0  0  0  0
   12.0470   11.9030    1.2980 H   0  0  0  0  0  0  0  0  0  0  0  0
   12.9490   11.8950    3.2150 C   0  0  0  0  0  0  0  0  0  0  0  0
   13.5250   12.9830    3.4910 N   0  0  0  0  0  0  0  0  0  0  0  0
   14.2880   12.9930    4.1120 H   0  0  0  0  0  0  0  0  0  0  0  0
   13.2100   13.8230    3.0860 H   0  0  0  0  0  0  0  0  0  0  0  0
   13.4980   10.7320    3.8690 N   0  0  0  0  0  0  0  0  0  0  0  0
   13.9010   10.0100    3.3330 H   0  0  0  0  0  0  0  0  0  0  0  0
   13.4710   10.6600    4.8500 H   0  0  0  0  0  0  0  0  0  0  0  0
   10.8850   12.1610   -0.4250 O   0  0  0  0  0  0  0  0  0  0  0  0
   11.2010   13.0190   -1.5460 C   0  0  0  0  0  0  0  0  0  0  0  0
   12.3620   13.9990   -1.1950 C   0  0  0  0  0  0  0  0  0  0  0  0
   12.0390   15.4450   -1.6250 C   0  0  0  0  0  0  0  0  0  0  0  0
  1  2  2  0  0  0  0
  2 12  1  0  0  0  0
  2  3  1  0  0  0  0
  4 15  1  6  0  0  0
  4  3  1  0  0  0  0
  5  7  1  1  0  0  0
  5  4  1  0  0  0  0
  6 24  1  1  0  0  0
  6  1  1  0  0  0  0
  6  5  1  0  0  0  0
  7  8  1  0  0  0  0
  9 10  2  0  0  0  0
  9  7  1  0  0  0  0
 11  9  1  0  0  0  0
 12 14  1  0  0  0  0
 13 12  2  0  0  0  0
 15 17  1  0  0  0  0
 16 15  1  0  0  0  0
 17 18  2  0  0  0  0
 17 21  1  0  0  0  0
 18 19  1  0  0  0  0
 20 18  1  0  0  0  0
 21 23  1  0  0  0  0
 22 21  1  0  0  0  0
 25 26  1  0  0  0  0
 25 24  1  0  0  0  0
 27 26  1  0  0  0  0
M  END
>  <MODEL>
1

>  <REMARK>
 VINA RESULT:      -6.5      0.000      0.000
  Name = BDB5009
                            x       y       z     vdW  Elec       q    Type
                         _______ _______ _______ _____ _____    ______ ____

>  <TORSDO>
F 8

>  <vina_score>
-6.5

$$$$
BDB5008
 OpenBabel01091714583D

 25 25  0  0  1  0  0  0  0  0999 V2000
   10.8680   13.8760    1.7200 C   0  0  0  0  0  0  0  0  0  0  0  0
   11.3970   12.6660    1.4350 C   0  0  0  0  0  0  0  0  0  0  0  0
   10.7910   11.7090    0.4290 C   0  0  0  0  0  0  0  0  0  0  0  0
    9.8280   12.3790   -0.5310 C   0  0  1  0  0  0  0  0  0  0  0  0
    8.8560   13.3380    0.2980 C   0  0  2  0  0  0  0  0  0  0  0  0
    9.6450   14.4390    1.0200 C   0  0  2  0  0  0  0  0  0  0  0  0
    7.8920   12.5780    1.2250 N   0  0  0  0  0  0  0  0  0  0  0  0
    7.7580   13.0160    2.0950 H   0  0  0  0  0  0  0  0  0  0  0  0
    7.1260   11.3210    1.0710 C   0  0  0  0  0  0  0  0  0  0  0  0
    6.6190   10.8660    2.1010 O   0  0  0  0  0  0  0  0  0  0  0  0
    6.8550   10.5470   -0.1800 C   0  0  0  0  0  0  0  0  0  0  0  0
   12.5740   12.2180    2.1640 C   0  0  0  0  0  0  0  0  0  0  0  0
   13.1840   13.0600    3.0400 O   0  0  0  0  0  0  0  0  0  0  0  0
   13.0220   11.0810    1.9830 O   0  0  0  0  0  0  0  0  0  0  0  0
   10.5700   12.9400   -1.7910 N   0  0  0  0  0  0  0  0  0  0  0  0
   11.5460   12.8130   -1.7680 H   0  0  0  0  0  0  0  0  0  0  0  0
   10.0730   13.6390   -3.0360 C   0  0  0  0  0  0  0  0  0  0  0  0
    9.9010   14.8990   -2.9690 N   0  0  0  0  0  0  0  0  0  0  0  0
    9.5830   15.3940   -3.7570 H   0  0  0  0  0  0  0  0  0  0  0  0
   10.0880   15.3760   -2.1280 H   0  0  0  0  0  0  0  0  0  0  0  0
    9.7720   13.0430   -4.3060 N   0  0  0  0  0  0  0  0  0  0  0  0
    8.8620   12.7160   -4.4940 H   0  0  0  0  0  0  0  0  0  0  0  0
   10.4760   12.9600   -4.9900 H   0  0  0  0  0  0  0  0  0  0  0  0
   10.0650   15.4270    0.0850 O   0  0  0  0  0  0  0  0  0  0  0  0
   10.2880   16.2450    0.5570 H   0  0  0  0  0  0  0  0  0  0  0  0
  2  1  2  0  0  0  0
  2 12  1  0  0  0  0
  3  2  1  0  0  0  0
  4 15  1  6  0  0  0
  4  5  1  0  0  0  0
  4  3  1  0  0  0  0
  5  6  1  0  0  0  0
  5  7  1  1  0  0  0
  6 24  1  6  0  0  0
  6  1  1  0  0  0  0
  7  8  1  0  0  0  0
  9  7  1  0  0  0  0
  9 10  2  0  0  0  0
 11  9  1  0  0  0  0
 12 13  1  0  0  0  0
 14 12  2  0  0  0  0
 15 16  1  0  0  0  0
 17 18  1  0  0  0  0
 17 15  1  0  0  0  0
 18 20  1  0  0  0  0
 19 18  1  0  0  0  0
 21 17  2  0  0  0  0
 22 21  1  0  0  0  0
 23 21  1  0  0  0  0
 24 25  1  0  0  0  0
M  END
>  <MODEL>
1

>  <REMARK>
 VINA RESULT:      -6.5      0.000      0.000
  Name = BDB5008
                            x       y       z     vdW  Elec       q    Type
                         _______ _______ _______ _____ _____    ______ ____

>  <TORSDO>
F 6

>  <vina_score>
-6.5

$$$$
BDB5228
 OpenBabel01091714593D

 29 30  0  0  1  0  0  0  0  0999 V2000
    7.8620   11.7930    1.5400 C   0  0  0  0  0  0  0  0  0  0  0  0
    7.7890   11.7510    0.1920 C   0  0  0  0  0  0  0  0  0  0  0  0
    8.8840   12.3290   -0.7670 C   0  0  0  0  0  0  0  0  0  0  0  0
   10.2250   12.5280   -0.0740 C   0  0  1  0  0  0  0  0  0  0  0  0
    9.9680   13.1910    1.3050 C   0  0  2  0  0  0  0  0  0  0  0  0
    9.0480   12.3220    2.2870 C   0  0  2  0  0  0  0  0  0  0  0  0
    9.5050   14.6440    1.0630 N   0  0  0  0  0  0  0  0  0  0  0  0
    8.7030   14.8890    1.5790 H   0  0  0  0  0  0  0  0  0  0  0  0
   10.0170   15.7520    0.2150 C   0  0  0  0  0  0  0  0  0  0  0  0
    9.4850   16.8540    0.3860 O   0  0  0  0  0  0  0  0  0  0  0  0
   11.0500   15.6910   -0.8710 C   0  0  0  0  0  0  0  0  0  0  0  0
   10.8450   11.2590   -0.0200 N   0  0  0  0  0  0  0  0  0  0  0  0
   11.3020   11.0650   -0.9100 H   0  0  0  0  0  0  0  0  0  0  0  0
   11.5390   11.2510    0.7270 H   0  0  0  0  0  0  0  0  0  0  0  0
   10.1410   10.5440    0.1620 H   0  0  0  0  0  0  0  0  0  0  0  0
    6.5520   11.2640   -0.3900 C   0  0  0  0  0  0  0  0  0  0  0  0
    5.6660   10.5840    0.3770 O   0  0  0  0  0  0  0  0  0  0  0  0
    6.3480   11.4030   -1.6010 O   0  0  0  0  0  0  0  0  0  0  0  0
    9.6900   11.1060    3.0380 N   0  0  0  0  0  0  0  0  0  0  0  0
   10.0750   10.5900    2.2480 H   0  0  0  0  0  0  0  0  0  0  0  0
    8.6970   10.2390    3.7050 C   0  0  0  0  0  0  0  0  0  0  0  0
   10.9440   11.3120    3.8300 C   0  0  0  0  0  0  0  0  0  0  0  0
   12.2250   10.7710    3.1300 C   0  0  0  0  0  0  0  0  0  0  0  0
   13.4640   11.2060    3.9200 C   0  0  0  0  0  0  0  0  0  0  0  0
   14.3130   10.2490    4.4820 C   0  0  0  0  0  0  0  0  0  0  0  0
   15.4190   10.6480    5.2190 C   0  0  0  0  0  0  0  0  0  0  0  0
   15.6850   12.0030    5.4140 C   0  0  0  0  0  0  0  0  0  0  0  0
   14.8450   12.9540    4.8600 C   0  0  0  0  0  0  0  0  0  0  0  0
   13.7410   12.5480    4.1120 C   0  0  0  0  0  0  0  0  0  0  0  0
  1  6  1  0  0  0  0
  2  1  2  0  0  0  0
  3  4  1  0  0  0  0
  3  2  1  0  0  0  0
  4 12  1  1  0  0  0
  4  5  1  0  0  0  0
  5  7  1  6  0  0  0
  5  6  1  0  0  0  0
  6 19  1  6  0  0  0
  7  8  1  0  0  0  0
  9 10  2  0  0  0  0
  9  7  1  0  0  0  0
 11  9  1  0  0  0  0
 12 15  1  0  0  0  0
 12 14  1  0  0  0  0
 13 12  1  0  0  0  0
 16  2  1  0  0  0  0
 16 17  1  0  0  0  0
 18 16  2  0  0  0  0
 19 21  1  0  0  0  0
 19 22  1  0  0  0  0
 20 19  1  0  0  0  0
 23 22  1  0  0  0  0
 23 24  1  0  0  0  0
 24 29  2  0  0  0  0
 24 25  1  0  0  0  0
 25 26  2  0  0  0  0
 26 27  1  0  0  0  0
 28 27  2  0  0  0  0
 29 28  1  0  0  0  0
M  END
>  <MODEL>
1

>  <REMARK>
 VINA RESULT:      -6.5      0.000      0.000
  Name = BDB5228
                            x       y       z     vdW  Elec       q    Type
                         _______ _______ _______ _____ _____    ______ ____

>  <TORSDO>
F 7

>  <vina_score>
-6.5

$$$$
BDB5219
 OpenBabel01091714593D

 24 24  0  0  1  0  0  0  0  0999 V2000
    8.4480   12.3260    0.0530 C   0  0  0  0  0  0  0  0  0  0  0  0
    7.8120   11.7890    1.1210 C   0  0  0  0  0  0  0  0  0  0  0  0
    8.2780   11.9900    2.5760 C   0  0  0  0  0  0  0  0  0  0  0  0
    9.1920   13.2140    2.7540 C   0  0  1  0  0  0  0  0  0  0  0  0
   10.2690   13.1310    1.6380 C   0  0  2  0  0  0  0  0  0  0  0  0
    9.6690   13.2020    0.1860 C   0  0  2  0  0  0  0  0  0  0  0  0
    8.3700   14.4170    2.7820 N   0  0  0  0  0  0  0  0  0  0  0  0
    7.4320   14.1800    3.1080 H   0  0  0  0  0  0  0  0  0  0  0  0
    8.7870   15.0990    3.4150 H   0  0  0  0  0  0  0  0  0  0  0  0
    8.3140   14.8120    1.8430 H   0  0  0  0  0  0  0  0  0  0  0  0
    6.6920   10.8980    0.8530 C   0  0  0  0  0  0  0  0  0  0  0  0
    5.6520   10.8530    1.7280 O   0  0  0  0  0  0  0  0  0  0  0  0
    6.7110   10.1540   -0.1240 O   0  0  0  0  0  0  0  0  0  0  0  0
   11.0230   11.8780    1.9290 N   0  0  0  0  0  0  0  0  0  0  0  0
   12.3990   11.6910    2.2710 C   0  0  0  0  0  0  0  0  0  0  0  0
   13.1170   10.8470    1.7340 O   0  0  0  0  0  0  0  0  0  0  0  0
   12.9830   12.5360    3.3590 C   0  0  0  0  0  0  0  0  0  0  0  0
   13.8620   11.7820    4.1090 F   0  0  0  0  0  0  0  0  0  0  0  0
   11.9660   12.9950    4.1680 F   0  0  0  0  0  0  0  0  0  0  0  0
   13.6480   13.6120    2.8040 F   0  0  0  0  0  0  0  0  0  0  0  0
    9.3660   14.5760   -0.2470 O   0  0  0  0  0  0  0  0  0  0  0  0
   10.4350   15.5170   -0.1450 C   0  0  0  0  0  0  0  0  0  0  0  0
   11.2440   15.4500   -1.4610 C   0  0  0  0  0  0  0  0  0  0  0  0
   12.5680   14.7020   -1.2260 C   0  0  0  0  0  0  0  0  0  0  0  0
  1  6  1  0  0  0  0
  1  2  2  0  0  0  0
  2  3  1  0  0  0  0
  3  4  1  0  0  0  0
  4  7  1  6  0  0  0
  5 14  1  6  0  0  0
  5  4  1  0  0  0  0
  6 21  1  1  0  0  0
  6  5  1  0  0  0  0
  7  8  1  0  0  0  0
  7  9  1  0  0  0  0
 10  7  1  0  0  0  0
 11  2  1  0  0  0  0
 11 12  1  0  0  0  0
 13 11  2  0  0  0  0
 14 15  1  0  0  0  0
 15 17  1  0  0  0  0
 16 15  2  0  0  0  0
 17 18  1  0  0  0  0
 17 19  1  0  0  0  0
 20 17  1  0  0  0  0
 21 22  1  0  0  0  0
 23 24  1  0  0  0  0
 23 22  1  0  0  0  0
M  END
>  <MODEL>
1

>  <REMARK>
 VINA RESULT:      -6.5      0.000      0.000
  Name = BDB5219
                            x       y       z     vdW  Elec       q    Type
                         _______ _______ _______ _____ _____    ______ ____

>  <TORSDO>
F 8

>  <vina_score>
-6.5

$$$$
BDB5003
 OpenBabel01091714573D

 30 31  0  0  1  0  0  0  0  0999 V2000
   10.6280   12.5030    1.5400 C   0  0  0  0  0  0  0  0  0  0  0  0
   11.2850   12.4650    2.7150 C   0  0  0  0  0  0  0  0  0  0  0  0
   10.6120   12.7130    4.1010 C   0  0  0  0  0  0  0  0  0  0  0  0
    9.0950   12.5500    4.0680 C   0  0  1  0  0  0  0  0  0  0  0  0
    8.5330   13.2470    2.7940 C   0  0  2  0  0  0  0  0  0  0  0  0
    9.1430   12.6950    1.4160 C   0  0  2  0  0  0  0  0  0  0  0  0
    8.6440   14.7640    3.0240 N   0  0  0  0  0  0  0  0  0  0  0  0
    8.1530   15.0790    3.8170 H   0  0  0  0  0  0  0  0  0  0  0  0
    9.3400   15.8410    2.2930 C   0  0  0  0  0  0  0  0  0  0  0  0
    9.4950   16.9030    2.9060 O   0  0  0  0  0  0  0  0  0  0  0  0
    9.7790   15.8360    0.8570 C   0  0  0  0  0  0  0  0  0  0  0  0
    8.8320   11.1830    4.1510 N   0  0  0  0  0  0  0  0  0  0  0  0
    8.9840   10.7510    3.2390 H   0  0  0  0  0  0  0  0  0  0  0  0
    9.4530   10.7580    4.8380 H   0  0  0  0  0  0  0  0  0  0  0  0
    7.8620   11.0410    4.4360 H   0  0  0  0  0  0  0  0  0  0  0  0
   12.7290   12.3060    2.6620 C   0  0  0  0  0  0  0  0  0  0  0  0
   13.5270   13.0810    3.4350 O   0  0  0  0  0  0  0  0  0  0  0  0
   13.2290   11.4950    1.8730 O   0  0  0  0  0  0  0  0  0  0  0  0
    8.5560   11.4260    0.7560 O   0  0  0  0  0  0  0  0  0  0  0  0
    7.9450   11.4710   -0.5770 C   0  0  1  0  0  0  0  0  0  0  0  0
    6.4630   10.9710   -0.5610 C   0  0  0  0  0  0  0  0  0  0  0  0
    6.0910   10.3650    0.8010 C   0  0  0  0  0  0  0  0  0  0  0  0
    7.8650   12.8800   -1.1470 C   0  0  0  0  0  0  0  0  0  0  0  0
    8.8220   12.8120   -2.3620 C   0  0  0  0  0  0  0  0  0  0  0  0
   10.1080   13.5080   -2.1120 C   0  0  0  0  0  0  0  0  0  0  0  0
   10.1910   14.8820   -2.3970 C   0  0  0  0  0  0  0  0  0  0  0  0
   11.3570   15.5660   -2.1280 C   0  0  0  0  0  0  0  0  0  0  0  0
   12.4510   14.8930   -1.5810 C   0  0  0  0  0  0  0  0  0  0  0  0
   12.3670   13.5400   -1.3050 C   0  0  0  0  0  0  0  0  0  0  0  0
   11.1810   12.8470   -1.5680 C   0  0  0  0  0  0  0  0  0  0  0  0
  1  2  2  0  0  0  0
  2  3  1  0  0  0  0
  4  3  1  0  0  0  0
  4 12  1  6  0  0  0
  5  7  1  1  0  0  0
  5  4  1  0  0  0  0
  6 19  1  1  0  0  0
  6  1  1  0  0  0  0
  6  5  1  0  0  0  0
  7  8  1  0  0  0  0
  9 10  2  0  0  0  0
  9  7  1  0  0  0  0
 11  9  1  0  0  0  0
 12 15  1  0  0  0  0
 12 14  1  0  0  0  0
 13 12  1  0  0  0  0
 16  2  1  0  0  0  0
 16 17  1  0  0  0  0
 18 16  2  0  0  0  0
 20 23  1  1  0  0  0
 20 21  1  0  0  0  0
 20 19  1  0  0  0  0
 21 22  1  0  0  0  0
 24 25  1  0  0  0  0
 24 23  1  0  0  0  0
 25 30  2  0  0  0  0
 26 27  2  0  0  0  0
 26 25  1  0  0  0  0
 27 28  1  0  0  0  0
 28 29  2  0  0  0  0
 30 29  1  0  0  0  0
M  END
>  <MODEL>
1

>  <REMARK>
 VINA RESULT:      -6.5      0.000      0.000
  Name = BDB5003
                            x       y       z     vdW  Elec       q    Type
                         _______ _______ _______ _____ _____    ______ ____

>  <TORSDO>
F 9

>  <vina_score>
-6.5

$$$$
BDB5013
 OpenBabel01091714563D

 29 29  0  0  1  0  0  0  0  0999 V2000
    9.0930   11.5880    0.3490 C   0  0  0  0  0  0  0  0  0  0  0  0
    8.3200   11.5800    1.4610 C   0  0  0  0  0  0  0  0  0  0  0  0
    8.7270   12.2330    2.7600 C   0  0  0  0  0  0  0  0  0  0  0  0
    9.7270   13.3190    2.5530 C   0  0  1  0  0  0  0  0  0  0  0  0
   10.9150   12.7450    1.6290 C   0  0  2  0  0  0  0  0  0  0  0  0
   10.4310   12.3140    0.2330 C   0  0  2  0  0  0  0  0  0  0  0  0
   11.6980   11.6230    2.3530 N   0  0  0  0  0  0  0  0  0  0  0  0
   11.3900   10.7190    2.1140 H   0  0  0  0  0  0  0  0  0  0  0  0
   12.8170   11.6180    3.3350 C   0  0  0  0  0  0  0  0  0  0  0  0
   13.1750   10.5080    3.7430 O   0  0  0  0  0  0  0  0  0  0  0  0
   13.5590   12.7870    3.9160 C   0  0  0  0  0  0  0  0  0  0  0  0
    7.0530   10.8670    1.4540 C   0  0  0  0  0  0  0  0  0  0  0  0
    6.2640   10.9170    0.3470 O   0  0  0  0  0  0  0  0  0  0  0  0
    6.7000   10.2160    2.4400 O   0  0  0  0  0  0  0  0  0  0  0  0
    8.9360   14.6300    2.2630 N   0  0  0  0  0  0  0  0  0  0  0  0
    7.9930   14.5930    2.5400 H   0  0  0  0  0  0  0  0  0  0  0  0
    9.3410   15.9500    1.6380 C   0  0  0  0  0  0  0  0  0  0  0  0
    9.6290   16.8990    2.4440 N   0  0  0  0  0  0  0  0  0  0  0  0
    9.9020   17.7770    2.0920 H   0  0  0  0  0  0  0  0  0  0  0  0
    9.5780   16.7520    3.4160 H   0  0  0  0  0  0  0  0  0  0  0  0
    9.4550   16.2930    0.2460 N   0  0  0  0  0  0  0  0  0  0  0  0
    9.0820   15.6950   -0.4410 H   0  0  0  0  0  0  0  0  0  0  0  0
    9.9060   17.1270   -0.0200 H   0  0  0  0  0  0  0  0  0  0  0  0
   10.3890   13.4000   -0.8200 O   0  0  0  0  0  0  0  0  0  0  0  0
   10.8460   13.1750   -2.1830 C   0  0  0  0  0  0  0  0  0  0  0  0
    9.6140   13.3030   -3.1770 C   0  0  0  0  0  0  0  0  0  0  0  0
    8.5000   14.2760   -2.7100 C   0  0  0  0  0  0  0  0  0  0  0  0
   11.9370   14.2780   -2.4790 C   0  0  0  0  0  0  0  0  0  0  0  0
   12.3600   15.1200   -1.2420 C   0  0  0  0  0  0  0  0  0  0  0  0
  1  2  2  0  0  0  0
  2  3  1  0  0  0  0
  4 15  1  6  0  0  0
  4  3  1  0  0  0  0
  5  7  1  1  0  0  0
  5  4  1  0  0  0  0
  6 24  1  6  0  0  0
  6  1  1  0  0  0  0
  6  5  1  0  0  0  0
  7  9  1  0  0  0  0
  8  7  1  0  0  0  0
  9 10  2  0  0  0  0
  9 11  1  0  0  0  0
 12  2  1  0  0  0  0
 12 14  1  0  0  0  0
 13 12  2  0  0  0  0
 15 16  1  0  0  0  0
 17 15  1  0  0  0  0
 17 18  1  0  0  0  0
 18 20  1  0  0  0  0
 19 18  1  0  0  0  0
 21 17  2  0  0  0  0
 22 21  1  0  0  0  0
 23 21  1  0  0  0  0
 25 24  1  0  0  0  0
 26 27  1  0  0  0  0
 26 25  1  0  0  0  0
 28 25  1  0  0  0  0
 28 29  1  0  0  0  0
M  END
>  <MODEL>
1

>  <REMARK>
 VINA RESULT:      -6.5      0.000      0.000
  Name = BDB5013
                            x       y       z     vdW  Elec       q    Type
                         _______ _______ _______ _____ _____    ______ ____

>  <TORSDO>
F 9

>  <vina_score>
-6.5

$$$$
BDB4945
 OpenBabel01091714583D

 32 33  0  0  1  0  0  0  0  0999 V2000
    8.6870   12.7760   -1.6030 C   0  0  0  0  0  0  0  0  0  0  0  0
    7.5610   12.2330   -1.1270 C   0  0  0  0  0  0  0  0  0  0  0  0
    7.5730   11.3480    0.0660 C   0  0  1  0  0  0  0  0  0  0  0  0
    8.7610   11.7170    0.9360 C   0  0  2  0  0  0  0  0  0  0  0  0
    9.9820   11.5730    0.0480 C   0  0  1  0  0  0  0  0  0  0  0  0
    9.9620   12.5440   -1.0220 O   0  0  0  0  0  0  0  0  0  0  0  0
    8.8410   10.7620    2.0500 N   0  0  0  0  0  0  0  0  0  0  0  0
    8.8010    9.8060    1.8180 H   0  0  0  0  0  0  0  0  0  0  0  0
    8.9700   11.0850    3.4450 C   0  0  0  0  0  0  0  0  0  0  0  0
    9.0230   10.1560    4.2590 O   0  0  0  0  0  0  0  0  0  0  0  0
    9.0450   12.5060    3.9700 C   0  0  0  0  0  0  0  0  0  0  0  0
    6.3200   11.4850    0.8220 N   0  0  0  0  0  0  0  0  0  0  0  0
    5.6810   12.0950    0.3130 H   0  0  0  0  0  0  0  0  0  0  0  0
    5.8920   10.5680    0.9410 H   0  0  0  0  0  0  0  0  0  0  0  0
    6.5190   11.8900    1.7380 H   0  0  0  0  0  0  0  0  0  0  0  0
    8.5960   13.6790   -2.7520 C   0  0  0  0  0  0  0  0  0  0  0  0
    9.4790   13.5630   -3.7790 O   0  0  0  0  0  0  0  0  0  0  0  0
    7.7180   14.5490   -2.7870 O   0  0  0  0  0  0  0  0  0  0  0  0
   11.2630   11.7650    0.8640 C   0  0  0  0  0  0  0  0  0  0  0  0
   11.7370   10.7790    1.4390 O   0  0  0  0  0  0  0  0  0  0  0  0
   11.9350   13.0170    1.0170 N   0  0  0  0  0  0  0  0  0  0  0  0
   11.4240   14.2550    0.4640 C   0  0  0  0  0  0  0  0  0  0  0  0
   12.2920   14.7130   -0.7320 C   0  0  0  0  0  0  0  0  0  0  0  0
   11.5170   15.7610   -1.5510 C   0  0  0  0  0  0  0  0  0  0  0  0
   13.1660   13.0320    1.7720 C   0  0  0  0  0  0  0  0  0  0  0  0
   12.8920   13.1720    3.2840 C   0  0  0  0  0  0  0  0  0  0  0  0
   13.8610   12.3260    4.0560 C   0  0  0  0  0  0  0  0  0  0  0  0
   14.7510   12.9250    4.9420 C   0  0  0  0  0  0  0  0  0  0  0  0
   15.6450   12.1420    5.6620 C   0  0  0  0  0  0  0  0  0  0  0  0
   15.6490   10.7620    5.4980 C   0  0  0  0  0  0  0  0  0  0  0  0
   14.7600   10.1640    4.6140 C   0  0  0  0  0  0  0  0  0  0  0  0
   13.8650   10.9480    3.8930 C   0  0  0  0  0  0  0  0  0  0  0  0
  1  2  2  0  0  0  0
  1  6  1  0  0  0  0
  2  3  1  0  0  0  0
  3 12  1  1  0  0  0
  3  4  1  0  0  0  0
  4  7  1  1  0  0  0
  5 19  1  1  0  0  0
  5  4  1  0  0  0  0
  6  5  1  0  0  0  0
  7  9  1  0  0  0  0
  8  7  1  0  0  0  0
  9 11  1  0  0  0  0
  9 10  2  0  0  0  0
 12 14  1  0  0  0  0
 12 15  1  0  0  0  0
 13 12  1  0  0  0  0
 16  1  1  0  0  0  0
 17 16  2  0  0  0  0
 18 16  1  0  0  0  0
 19 21  1  0  0  0  0
 19 20  2  0  0  0  0
 21 25  1  0  0  0  0
 22 21  1  0  0  0  0
 23 22  1  0  0  0  0
 24 23  1  0  0  0  0
 25 26  1  0  0  0  0
 26 27  1  0  0  0  0
 27 28  1  0  0  0  0
 28 29  2  0  0  0  0
 30 29  1  0  0  0  0
 31 30  2  0  0  0  0
 32 27  2  0  0  0  0
 32 31  1  0  0  0  0
M  END
>  <MODEL>
1

>  <REMARK>
 VINA RESULT:      -6.4      0.000      0.000
  Name = BDB4945
                            x       y       z     vdW  Elec       q    Type
                         _______ _______ _______ _____ _____    ______ ____

>  <TORSDO>
F 9

>  <vina_score>
-6.4

$$$$
BDB5222
 OpenBabel01091714583D

 24 24  0  0  1  0  0  0  0  0999 V2000
    9.5010   13.8540    0.1720 C   0  0  0  0  0  0  0  0  0  0  0  0
    9.6550   14.3530    1.4100 C   0  0  0  0  0  0  0  0  0  0  0  0
    9.8580   13.4630    2.6490 C   0  0  0  0  0  0  0  0  0  0  0  0
   10.3130   12.0430    2.2870 C   0  0  1  0  0  0  0  0  0  0  0  0
    9.3980   11.4950    1.1440 C   0  0  2  0  0  0  0  0  0  0  0  0
    9.5900   12.3800   -0.1410 C   0  0  2  0  0  0  0  0  0  0  0  0
    7.9730   11.2780    1.6720 N   0  0  0  0  0  0  0  0  0  0  0  0
    7.8660   11.5090    2.6230 H   0  0  0  0  0  0  0  0  0  0  0  0
    6.7340   10.7930    1.0410 C   0  0  0  0  0  0  0  0  0  0  0  0
    5.7060   10.8760    1.7220 O   0  0  0  0  0  0  0  0  0  0  0  0
    6.5830   10.1540   -0.3040 C   0  0  0  0  0  0  0  0  0  0  0  0
    9.5530   15.7950    1.5880 C   0  0  0  0  0  0  0  0  0  0  0  0
    9.7140   16.6210    0.5260 O   0  0  0  0  0  0  0  0  0  0  0  0
    9.3220   16.2620    2.7090 O   0  0  0  0  0  0  0  0  0  0  0  0
   11.7760   12.0710    1.9630 N   0  0  0  0  0  0  0  0  0  0  0  0
   12.1510   11.4240    1.3240 H   0  0  0  0  0  0  0  0  0  0  0  0
   12.6330   13.0440    2.5880 C   0  0  0  0  0  0  0  0  0  0  0  0
   13.2560   12.7690    3.6550 N   0  0  0  0  0  0  0  0  0  0  0  0
   13.8400   13.4440    4.0720 H   0  0  0  0  0  0  0  0  0  0  0  0
   13.1560   11.8820    4.0690 H   0  0  0  0  0  0  0  0  0  0  0  0
   10.9200   12.1920   -0.7200 O   0  0  0  0  0  0  0  0  0  0  0  0
   11.1530   13.0930   -1.8250 C   0  0  0  0  0  0  0  0  0  0  0  0
   12.3970   13.9890   -1.5720 C   0  0  0  0  0  0  0  0  0  0  0  0
   12.0340   15.4810   -1.6040 C   0  0  0  0  0  0  0  0  0  0  0  0
  1  2  2  0  0  0  0
  2 12  1  0  0  0  0
  2  3  1  0  0  0  0
  4 15  1  6  0  0  0
  4  3  1  0  0  0  0
  5  7  1  1  0  0  0
  5  4  1  0  0  0  0
  6 21  1  1  0  0  0
  6  1  1  0  0  0  0
  6  5  1  0  0  0  0
  7  8  1  0  0  0  0
  9  7  1  0  0  0  0
  9 10  2  0  0  0  0
 11  9  1  0  0  0  0
 12 14  1  0  0  0  0
 13 12  2  0  0  0  0
 15 17  1  0  0  0  0
 16 15  1  0  0  0  0
 17 18  1  0  0  0  0
 18 20  1  0  0  0  0
 18 19  1  0  0  0  0
 22 23  1  0  0  0  0
 22 21  1  0  0  0  0
 24 23  1  0  0  0  0
M  END
>  <MODEL>
1

>  <REMARK>
 VINA RESULT:      -6.4      0.000      0.000
  Name = BDB5222
                            x       y       z     vdW  Elec       q    Type
                         _______ _______ _______ _____ _____    ______ ____

>  <TORSDO>
F 7

>  <vina_score>
-6.4

$$$$
BDB4986
 OpenBabel01091715003D

 25 25  0  0  1  0  0  0  0  0999 V2000
    9.4810   12.4000    0.3220 C   0  0  0  0  0  0  0  0  0  0  0  0
    8.4980   12.3070    1.2600 C   0  0  0  0  0  0  0  0  0  0  0  0
    8.6650   12.8510    2.6760 C   0  0  0  0  0  0  0  0  0  0  0  0
    9.8010   13.8750    2.7770 C   0  0  1  0  0  0  0  0  0  0  0  0
   11.0830   13.2780    2.1050 C   0  0  2  0  0  0  0  0  0  0  0  0
   10.7760   13.1040    0.5900 C   0  0  2  0  0  0  0  0  0  0  0  0
   11.5920   12.1120    2.9530 N   0  0  0  0  0  0  0  0  0  0  0  0
   10.9670   11.3540    3.0030 H   0  0  0  0  0  0  0  0  0  0  0  0
   12.8280   11.9110    3.7040 C   0  0  0  0  0  0  0  0  0  0  0  0
   13.0120   10.7760    4.1630 O   0  0  0  0  0  0  0  0  0  0  0  0
   13.8640   12.9390    4.0240 C   0  0  0  0  0  0  0  0  0  0  0  0
    9.3270   15.1350    2.1550 N   0  0  0  0  0  0  0  0  0  0  0  0
    8.5160   15.4840    2.6670 H   0  0  0  0  0  0  0  0  0  0  0  0
   10.0720   15.8300    2.1830 H   0  0  0  0  0  0  0  0  0  0  0  0
    9.0640   14.9580    1.1850 H   0  0  0  0  0  0  0  0  0  0  0  0
    7.2990   11.5710    0.8780 C   0  0  0  0  0  0  0  0  0  0  0  0
    7.0730   11.3260   -0.4460 O   0  0  0  0  0  0  0  0  0  0  0  0
    6.4940   11.2030    1.7180 O   0  0  0  0  0  0  0  0  0  0  0  0
   10.6400   14.4600    0.0930 O   0  0  0  0  0  0  0  0  0  0  0  0
   11.7440   14.9260   -0.6810 C   0  0  0  0  0  0  0  0  0  0  0  0
   11.3450   14.9210   -2.1980 C   0  0  0  0  0  0  0  0  0  0  0  0
   11.3150   13.4880   -2.8310 C   0  0  0  0  0  0  0  0  0  0  0  0
    9.8420   13.1480   -3.2190 C   0  0  0  0  0  0  0  0  0  0  0  0
    8.9520   14.4160   -3.2670 C   0  0  0  0  0  0  0  0  0  0  0  0
    7.8070   14.2810   -2.2320 C   0  0  0  0  0  0  0  0  0  0  0  0
  1  6  1  0  0  0  0
  1  2  2  0  0  0  0
  2  3  1  0  0  0  0
  3  4  1  0  0  0  0
  4 12  1  6  0  0  0
  5  4  1  0  0  0  0
  5  7  1  1  0  0  0
  6 19  1  6  0  0  0
  6  5  1  0  0  0  0
  7  8  1  0  0  0  0
  7  9  1  0  0  0  0
  9 11  1  0  0  0  0
  9 10  2  0  0  0  0
 12 14  1  0  0  0  0
 12 13  1  0  0  0  0
 15 12  1  0  0  0  0
 16  2  1  0  0  0  0
 16 18  1  0  0  0  0
 17 16  2  0  0  0  0
 20 19  1  0  0  0  0
 21 20  1  0  0  0  0
 22 21  1  0  0  0  0
 23 22  1  0  0  0  0
 24 23  1  0  0  0  0
 24 25  1  0  0  0  0
M  END
>  <MODEL>
1

>  <REMARK>
 VINA RESULT:      -6.4      0.000      0.000
  Name = BDB4986
                            x       y       z     vdW  Elec       q    Type
                         _______ _______ _______ _____ _____    ______ ____

>  <TORSDO>
F 9

>  <vina_score>
-6.4

$$$$
BDB5233
 OpenBabel01091714593D

 24 24  0  0  1  0  0  0  0  0999 V2000
    8.2840   12.3500   -0.0410 C   0  0  0  0  0  0  0  0  0  0  0  0
    7.7570   11.7330    1.0420 C   0  0  0  0  0  0  0  0  0  0  0  0
    8.3840   11.8000    2.4650 C   0  0  0  0  0  0  0  0  0  0  0  0
    9.2390   13.0500    2.6590 C   0  0  1  0  0  0  0  0  0  0  0  0
   10.2140   13.1380    1.4210 C   0  0  2  0  0  0  0  0  0  0  0  0
    9.5130   13.2280    0.0060 C   0  0  2  0  0  0  0  0  0  0  0  0
   11.1930   11.9750    1.6010 N   0  0  0  0  0  0  0  0  0  0  0  0
   10.9110   11.1450    1.1500 H   0  0  0  0  0  0  0  0  0  0  0  0
   12.4750   11.8560    2.3170 C   0  0  0  0  0  0  0  0  0  0  0  0
   13.0960   10.8000    2.1510 O   0  0  0  0  0  0  0  0  0  0  0  0
   13.0890   12.8460    3.2640 C   0  0  0  0  0  0  0  0  0  0  0  0
    8.3240   14.1570    2.9280 N   0  0  0  0  0  0  0  0  0  0  0  0
    7.5360   14.1100    2.2820 H   0  0  0  0  0  0  0  0  0  0  0  0
    7.9820   14.0910    3.8860 H   0  0  0  0  0  0  0  0  0  0  0  0
    8.8160   15.0420    2.8020 H   0  0  0  0  0  0  0  0  0  0  0  0
    6.6020   10.8760    0.8170 C   0  0  0  0  0  0  0  0  0  0  0  0
    5.6020   10.8370    1.7330 O   0  0  0  0  0  0  0  0  0  0  0  0
    6.5560   10.1540   -0.1820 O   0  0  0  0  0  0  0  0  0  0  0  0
    9.1300   14.6280   -0.4830 N   0  0  0  0  0  0  0  0  0  0  0  0
    8.8450   14.5190   -1.4560 H   0  0  0  0  0  0  0  0  0  0  0  0
    8.3890   14.9820    0.1240 H   0  0  0  0  0  0  0  0  0  0  0  0
   10.1970   15.5930   -0.4890 C   0  0  0  0  0  0  0  0  0  0  0  0
   11.1490   15.4290   -1.6690 C   0  0  0  0  0  0  0  0  0  0  0  0
   12.4960   14.9130   -1.1170 C   0  0  0  0  0  0  0  0  0  0  0  0
  1  6  1  0  0  0  0
  1  2  2  0  0  0  0
  2  3  1  0  0  0  0
  3  4  1  0  0  0  0
  4 12  1  6  0  0  0
  5  7  1  6  0  0  0
  5  4  1  0  0  0  0
  6 19  1  1  0  0  0
  6  5  1  0  0  0  0
  7  9  1  0  0  0  0
  8  7  1  0  0  0  0
  9 11  1  0  0  0  0
 10  9  2  0  0  0  0
 12 14  1  0  0  0  0
 13 12  1  0  0  0  0
 15 12  1  0  0  0  0
 16  2  1  0  0  0  0
 16 17  1  0  0  0  0
 18 16  2  0  0  0  0
 19 21  1  0  0  0  0
 20 19  1  0  0  0  0
 22 19  1  0  0  0  0
 23 24  1  0  0  0  0
 23 22  1  0  0  0  0
M  END
>  <MODEL>
1

>  <REMARK>
 VINA RESULT:      -6.4      0.000      0.000
  Name = BDB5233
                            x       y       z     vdW  Elec       q    Type
                         _______ _______ _______ _____ _____    ______ ____

>  <TORSDO>
F 6

>  <vina_score>
-6.4

$$$$
BDB5199
 OpenBabel01091714563D

 26 27  0  0  1  0  0  0  0  0999 V2000
    8.6880   10.8190    2.2400 C   0  0  0  0  0  0  0  0  0  0  0  0
    9.9020   11.7040    2.1240 C   0  0  2  0  0  0  0  0  0  0  0  0
    9.9360   11.8400    0.6070 C   0  0  1  0  0  0  0  0  0  0  0  0
    8.5350   12.1770    0.2390 N   0  0  0  0  0  0  0  0  0  0  0  0
    8.2510   11.7620   -0.6470 H   0  0  0  0  0  0  0  0  0  0  0  0
    8.4230   13.1850    0.1280 H   0  0  0  0  0  0  0  0  0  0  0  0
    7.7240   11.6760    1.3970 C   0  0  1  0  0  0  0  0  0  0  0  0
   11.1480   11.0510    2.6540 C   0  0  0  0  0  0  0  0  0  0  0  0
   12.1970   10.7620    1.9110 N   0  0  0  0  0  0  0  0  0  0  0  0
   13.0860   10.1990    2.7200 C   0  0  0  0  0  0  0  0  0  0  0  0
   12.5270   10.1610    3.9930 C   0  0  0  0  0  0  0  0  0  0  0  0
   11.3180   10.7010    3.9130 N   0  0  0  0  0  0  0  0  0  0  0  0
   10.6740   10.8170    4.6490 H   0  0  0  0  0  0  0  0  0  0  0  0
    6.5080   10.9060    0.9680 C   0  0  0  0  0  0  0  0  0  0  0  0
    6.5360   10.1730   -0.1740 O   0  0  0  0  0  0  0  0  0  0  0  0
    5.4800   10.9450    1.6540 O   0  0  0  0  0  0  0  0  0  0  0  0
    9.9700   13.1870   -0.2440 C   0  0  1  0  0  0  0  0  0  0  0  0
   10.1310   14.2780    0.8050 N   0  0  0  0  0  0  0  0  0  0  0  0
   10.8640   13.9890    1.3950 H   0  0  0  0  0  0  0  0  0  0  0  0
    9.6910   15.5220    1.3000 C   0  0  0  0  0  0  0  0  0  0  0  0
    9.3340   15.6170    2.4760 O   0  0  0  0  0  0  0  0  0  0  0  0
    9.6610   16.7410    0.4130 C   0  0  0  0  0  0  0  0  0  0  0  0
   11.4230   13.1750   -1.0450 C   0  0  0  0  0  0  0  0  0  0  0  0
   10.4970   14.0590   -1.9340 C   0  0  0  0  0  0  0  0  0  0  0  0
   11.2130   15.3390   -2.4160 C   0  0  0  0  0  0  0  0  0  0  0  0
   10.0790   13.2440   -3.1700 C   0  0  0  0  0  0  0  0  0  0  0  0
  2  1  1  0  0  0  0
  2  8  1  6  0  0  0
  3  4  1  6  0  0  0
  3  2  1  0  0  0  0
  4  7  1  0  0  0  0
  5  4  1  0  0  0  0
  6  4  1  0  0  0  0
  7 14  1  6  0  0  0
  7  1  1  0  0  0  0
  8 12  1  0  0  0  0
  9  8  2  0  0  0  0
  9 10  1  0  0  0  0
 10 11  2  0  0  0  0
 12 11  1  0  0  0  0
 12 13  1  0  0  0  0
 14 16  1  0  0  0  0
 15 14  2  0  0  0  0
 17 23  1  6  0  0  0
 17  3  1  0  0  0  0
 17 18  1  0  0  0  0
 18 20  1  0  0  0  0
 18 19  1  0  0  0  0
 20 21  2  0  0  0  0
 22 20  1  0  0  0  0
 24 23  1  0  0  0  0
 25 24  1  0  0  0  0
 26 24  1  0  0  0  0
M  END
>  <MODEL>
1

>  <REMARK>
 VINA RESULT:      -6.4      0.000      0.000
  Name = BDB5199
                            x       y       z     vdW  Elec       q    Type
                         _______ _______ _______ _____ _____    ______ ____

>  <TORSDO>
F 6

>  <vina_score>
-6.4

$$$$
BDB4995
 OpenBabel01091714563D

 25 25  0  0  1  0  0  0  0  0999 V2000
    9.3750   13.9770    0.3050 C   0  0  0  0  0  0  0  0  0  0  0  0
    9.6050   14.3940    1.5680 C   0  0  0  0  0  0  0  0  0  0  0  0
    9.8000   13.4300    2.7700 C   0  0  0  0  0  0  0  0  0  0  0  0
   10.2300   12.0210    2.3490 C   0  0  1  0  0  0  0  0  0  0  0  0
    9.3300   11.5620    1.1550 C   0  0  2  0  0  0  0  0  0  0  0  0
    9.3690   12.5360   -0.1140 C   0  0  2  0  0  0  0  0  0  0  0  0
    7.9400   11.2830    1.7420 N   0  0  0  0  0  0  0  0  0  0  0  0
    7.8810   11.4450    2.7120 H   0  0  0  0  0  0  0  0  0  0  0  0
    6.6790   10.8240    1.1420 C   0  0  0  0  0  0  0  0  0  0  0  0
    5.6660   10.9360    1.8430 O   0  0  0  0  0  0  0  0  0  0  0  0
    6.4950   10.1540   -0.1890 C   0  0  0  0  0  0  0  0  0  0  0  0
   11.6290   12.0550    2.0980 N   0  0  0  0  0  0  0  0  0  0  0  0
   11.7960   12.4080    1.1560 H   0  0  0  0  0  0  0  0  0  0  0  0
   12.0820   12.6680    2.7760 H   0  0  0  0  0  0  0  0  0  0  0  0
   12.0120   11.1140    2.1810 H   0  0  0  0  0  0  0  0  0  0  0  0
    9.5520   15.8290    1.8040 C   0  0  0  0  0  0  0  0  0  0  0  0
    9.6830   16.6910    0.7660 O   0  0  0  0  0  0  0  0  0  0  0  0
    9.4170   16.2580    2.9530 O   0  0  0  0  0  0  0  0  0  0  0  0
   10.4580   12.3670   -1.1680 O   0  0  0  0  0  0  0  0  0  0  0  0
   10.8980   13.4780   -2.0030 C   0  0  1  0  0  0  0  0  0  0  0  0
   12.3690   13.8660   -1.6850 C   0  0  0  0  0  0  0  0  0  0  0  0
   12.4440   15.3070   -1.1520 C   0  0  0  0  0  0  0  0  0  0  0  0
   10.8640   13.0850   -3.4870 C   0  0  0  0  0  0  0  0  0  0  0  0
    9.4690   13.3670   -3.9960 C   0  0  0  0  0  0  0  0  0  0  0  0
    8.7320   14.3360   -3.4600 C   0  0  0  0  0  0  0  0  0  0  0  0
  1  2  2  0  0  0  0
  2 16  1  0  0  0  0
  2  3  1  0  0  0  0
  4 12  1  6  0  0  0
  4  3  1  0  0  0  0
  5  7  1  1  0  0  0
  5  4  1  0  0  0  0
  6 19  1  1  0  0  0
  6  1  1  0  0  0  0
  6  5  1  0  0  0  0
  7  8  1  0  0  0  0
  9  7  1  0  0  0  0
  9 10  2  0  0  0  0
 11  9  1  0  0  0  0
 12 15  1  0  0  0  0
 12 14  1  0  0  0  0
 13 12  1  0  0  0  0
 16 18  1  0  0  0  0
 17 16  2  0  0  0  0
 20 23  1  6  0  0  0
 20 21  1  0  0  0  0
 20 19  1  0  0  0  0
 21 22  1  0  0  0  0
 24 23  1  0  0  0  0
 24 25  2  0  0  0  0
M  END
>  <MODEL>
1

>  <REMARK>
 VINA RESULT:      -6.3      0.000      0.000
  Name = BDB4995
                            x       y       z     vdW  Elec       q    Type
                         _______ _______ _______ _____ _____    ______ ____

>  <TORSDO>
F 8

>  <vina_score>
-6.3

$$$$
BDB4977
 OpenBabel01091714593D

 27 28  0  0  1  0  0  0  0  0999 V2000
   11.0950   12.3190    1.0000 C   0  0  1  0  0  0  0  0  0  0  0  0
   11.5170   12.6920    2.4810 C   0  0  1  0  0  0  0  0  0  0  0  0
   10.3010   13.2420    3.2340 C   0  0  2  0  0  0  0  0  0  0  0  0
    9.1350   12.3070    3.0320 C   0  0  0  0  0  0  0  0  0  0  0  0
    9.0570   11.4700    1.9740 C   0  0  0  0  0  0  0  0  0  0  0  0
   10.0520   11.3630    0.9650 O   0  0  0  0  0  0  0  0  0  0  0  0
   10.7430   13.5850    0.1530 C   0  0  0  0  0  0  0  0  0  0  0  0
    9.9310   13.6710   -1.0920 N   0  0  0  0  0  0  0  0  0  0  0  0
    9.9290   14.8960   -1.8410 C   0  0  1  0  0  0  0  0  0  0  0  0
   11.2770   15.0080   -2.5800 C   0  0  0  0  0  0  0  0  0  0  0  0
    8.8170   14.6560   -2.8750 C   0  0  0  0  0  0  0  0  0  0  0  0
    9.1480   13.2090   -3.2410 C   0  0  0  0  0  0  0  0  0  0  0  0
    9.1800   12.6220   -1.8190 C   0  0  2  0  0  0  0  0  0  0  0  0
    7.6890   12.5640   -1.3890 C   0  0  0  0  0  0  0  0  0  0  0  0
   11.2660   14.6390    0.5290 O   0  0  0  0  0  0  0  0  0  0  0  0
   12.2130   11.6290    3.3260 N   0  0  0  0  0  0  0  0  0  0  0  0
   11.7170   10.7800    3.3770 H   0  0  0  0  0  0  0  0  0  0  0  0
   13.4650   11.6170    4.0740 C   0  0  0  0  0  0  0  0  0  0  0  0
   13.8350   10.5180    4.5020 O   0  0  0  0  0  0  0  0  0  0  0  0
   14.3080   12.7870    4.4400 C   0  0  0  0  0  0  0  0  0  0  0  0
    9.9500   14.6140    2.7990 N   0  0  0  0  0  0  0  0  0  0  0  0
   10.4520   15.2920    3.3710 H   0  0  0  0  0  0  0  0  0  0  0  0
   10.2080   14.7370    1.8210 H   0  0  0  0  0  0  0  0  0  0  0  0
    8.9450   14.7570    2.9060 H   0  0  0  0  0  0  0  0  0  0  0  0
    7.9230   10.5580    1.8530 C   0  0  0  0  0  0  0  0  0  0  0  0
    7.4860   10.1530    0.6430 O   0  0  0  0  0  0  0  0  0  0  0  0
    7.3610   10.1530    2.8830 O   0  0  0  0  0  0  0  0  0  0  0  0
  1  7  1  1  0  0  0
  1  2  1  0  0  0  0
  2  3  1  0  0  0  0
  2 16  1  1  0  0  0
  3 21  1  6  0  0  0
  4  3  1  0  0  0  0
  5  4  2  0  0  0  0
  6  1  1  0  0  0  0
  6  5  1  0  0  0  0
  7 15  2  0  0  0  0
  8  7  1  0  0  0  0
  9 10  1  6  0  0  0
  9  8  1  0  0  0  0
 11  9  1  0  0  0  0
 12 11  1  0  0  0  0
 12 13  1  0  0  0  0
 13 14  1  1  0  0  0
 13  8  1  0  0  0  0
 16 17  1  0  0  0  0
 16 18  1  0  0  0  0
 18 20  1  0  0  0  0
 18 19  2  0  0  0  0
 21 24  1  0  0  0  0
 21 22  1  0  0  0  0
 23 21  1  0  0  0  0
 25  5  1  0  0  0  0
 25 27  1  0  0  0  0
 26 25  2  0  0  0  0
M  END
>  <MODEL>
1

>  <REMARK>
 VINA RESULT:      -6.3      0.000      0.000
  Name = BDB4977
                            x       y       z     vdW  Elec       q    Type
                         _______ _______ _______ _____ _____    ______ ____

>  <TORSDO>
F 4

>  <vina_score>
-6.3

$$$$
BDB5257
 OpenBabel01091715003D

 25 26  0  0  1  0  0  0  0  0999 V2000
    9.4360   11.8790    0.9680 C   0  0  0  0  0  0  0  0  0  0  0  0
    8.8060   11.7880    2.1620 C   0  0  0  0  0  0  0  0  0  0  0  0
    9.4280   12.2740    3.4910 C   0  0  0  0  0  0  0  0  0  0  0  0
   10.4670   13.3730    3.2670 C   0  0  1  0  0  0  0  0  0  0  0  0
   11.4710   12.8440    2.1710 C   0  0  2  0  0  0  0  0  0  0  0  0
   10.8010   12.4950    0.7780 C   0  0  2  0  0  0  0  0  0  0  0  0
   10.6930   13.6290   -0.2560 N   0  0  0  0  0  0  0  0  0  0  0  0
   10.0210   14.2820    0.1490 H   0  0  0  0  0  0  0  0  0  0  0  0
   12.0460   14.1740   -0.4660 C   0  0  0  0  0  0  0  0  0  0  0  0
   11.9890   15.3940   -1.4130 C   0  0  0  0  0  0  0  0  0  0  0  0
   11.4360   15.0090   -2.6740 O   0  0  0  0  0  0  0  0  0  0  0  0
   10.1090   14.5280   -2.4780 C   0  0  0  0  0  0  0  0  0  0  0  0
   10.1480   13.2970   -1.5630 C   0  0  0  0  0  0  0  0  0  0  0  0
   12.2210   11.7060    2.8660 N   0  0  0  0  0  0  0  0  0  0  0  0
   11.8430   10.8140    2.6910 H   0  0  0  0  0  0  0  0  0  0  0  0
   13.3990   11.6940    3.7460 C   0  0  0  0  0  0  0  0  0  0  0  0
   13.8590   10.5820    4.0310 O   0  0  0  0  0  0  0  0  0  0  0  0
   14.0760   12.8780    4.3760 C   0  0  0  0  0  0  0  0  0  0  0  0
    9.7340   14.6000    3.0020 N   0  0  0  0  0  0  0  0  0  0  0  0
    9.0310   14.4280    2.2840 H   0  0  0  0  0  0  0  0  0  0  0  0
    9.2770   14.9140    3.8580 H   0  0  0  0  0  0  0  0  0  0  0  0
   10.3810   15.3200    2.6800 H   0  0  0  0  0  0  0  0  0  0  0  0
    7.5210   11.1050    2.1740 C   0  0  0  0  0  0  0  0  0  0  0  0
    6.5130   11.5530    1.3820 O   0  0  0  0  0  0  0  0  0  0  0  0
    7.3360   10.1540    2.9330 O   0  0  0  0  0  0  0  0  0  0  0  0
  1  2  2  0  0  0  0
  2 23  1  0  0  0  0
  2  3  1  0  0  0  0
  4 19  1  6  0  0  0
  4  3  1  0  0  0  0
  5 14  1  1  0  0  0
  5  4  1  0  0  0  0
  6  7  1  6  0  0  0
  6  1  1  0  0  0  0
  6  5  1  0  0  0  0
  7  8  1  0  0  0  0
  9  7  1  0  0  0  0
 10  9  1  0  0  0  0
 11 12  1  0  0  0  0
 11 10  1  0  0  0  0
 12 13  1  0  0  0  0
 13  7  1  0  0  0  0
 14 16  1  0  0  0  0
 15 14  1  0  0  0  0
 16 17  2  0  0  0  0
 16 18  1  0  0  0  0
 19 21  1  0  0  0  0
 20 19  1  0  0  0  0
 22 19  1  0  0  0  0
 23 25  1  0  0  0  0
 24 23  2  0  0  0  0
M  END
>  <MODEL>
1

>  <REMARK>
 VINA RESULT:      -6.3      0.000      0.000
  Name = BDB5257
                            x       y       z     vdW  Elec       q    Type
                         _______ _______ _______ _____ _____    ______ ____

>  <TORSDO>
F 4

>  <vina_score>
-6.3

$$$$
BDB5204
 OpenBabel01091714553D

 23 23  0  0  1  0  0  0  0  0999 V2000
    8.9090   10.6030    2.1390 C   0  0  0  0  0  0  0  0  0  0  0  0
   10.1490   11.4580    2.1100 C   0  0  2  0  0  0  0  0  0  0  0  0
   10.2100   11.7140    0.6100 C   0  0  1  0  0  0  0  0  0  0  0  0
    8.8240   12.1200    0.2530 N   0  0  0  0  0  0  0  0  0  0  0  0
    8.5410   11.7850   -0.6680 H   0  0  0  0  0  0  0  0  0  0  0  0
    8.7420   13.1360    0.2210 H   0  0  0  0  0  0  0  0  0  0  0  0
    7.9820   11.5520    1.3570 C   0  0  1  0  0  0  0  0  0  0  0  0
   11.3680   10.7320    2.6040 C   0  0  0  0  0  0  0  0  0  0  0  0
   12.3140   11.3950    3.2650 C   0  0  0  0  0  0  0  0  0  0  0  0
   12.1610   12.8660    3.5170 C   0  0  0  0  0  0  0  0  0  0  0  0
    6.7510   10.8550    0.8530 C   0  0  0  0  0  0  0  0  0  0  0  0
    5.6200   10.8460    1.6040 O   0  0  0  0  0  0  0  0  0  0  0  0
    6.7710   10.2850   -0.2440 O   0  0  0  0  0  0  0  0  0  0  0  0
   10.2940   13.1230   -0.1300 C   0  0  1  0  0  0  0  0  0  0  0  0
   10.2400   14.1350    1.0040 N   0  0  0  0  0  0  0  0  0  0  0  0
   10.8990   13.8380    1.6730 H   0  0  0  0  0  0  0  0  0  0  0  0
    9.6600   15.3140    1.5160 C   0  0  0  0  0  0  0  0  0  0  0  0
    9.1370   15.2980    2.6320 O   0  0  0  0  0  0  0  0  0  0  0  0
    9.6820   16.5950    0.7220 C   0  0  0  0  0  0  0  0  0  0  0  0
   11.8470   13.2360   -0.7030 C   0  0  0  0  0  0  0  0  0  0  0  0
   11.0080   14.1140   -1.6800 C   0  0  0  0  0  0  0  0  0  0  0  0
   11.7540   15.4070   -2.0760 C   0  0  0  0  0  0  0  0  0  0  0  0
   10.7340   13.3040   -2.9580 C   0  0  0  0  0  0  0  0  0  0  0  0
  2  1  1  0  0  0  0
  2  8  1  6  0  0  0
  3  4  1  6  0  0  0
  3  2  1  0  0  0  0
  4  7  1  0  0  0  0
  5  4  1  0  0  0  0
  6  4  1  0  0  0  0
  7 11  1  6  0  0  0
  7  1  1  0  0  0  0
  8  9  2  0  0  0  0
  9 10  1  0  0  0  0
 11 12  1  0  0  0  0
 13 11  2  0  0  0  0
 14 20  1  1  0  0  0
 14  3  1  0  0  0  0
 14 15  1  0  0  0  0
 15 17  1  0  0  0  0
 15 16  1  0  0  0  0
 17 18  2  0  0  0  0
 19 17  1  0  0  0  0
 21 20  1  0  0  0  0
 22 21  1  0  0  0  0
 23 21  1  0  0  0  0
M  END
>  <MODEL>
1

>  <REMARK>
 VINA RESULT:      -6.2      0.000      0.000
  Name = BDB5204
                            x       y       z     vdW  Elec       q    Type
                         _______ _______ _______ _____ _____    ______ ____

>  <TORSDO>
F 6

>  <vina_score>
-6.2

$$$$
BDB4937
 OpenBabel01091714573D

 25 25  0  0  1  0  0  0  0  0999 V2000
    7.3710   10.9870    0.8190 C   0  0  0  0  0  0  0  0  0  0  0  0
    8.1130   10.2440    1.6460 C   0  0  0  0  0  0  0  0  0  0  0  0
    9.5670   10.4960    1.8200 C   0  0  1  0  0  0  0  0  0  0  0  0
    9.8480   11.9590    1.5250 C   0  0  2  0  0  0  0  0  0  0  0  0
    9.3430   12.1980    0.1140 C   0  0  1  0  0  0  0  0  0  0  0  0
    7.9070   12.0510    0.0450 O   0  0  0  0  0  0  0  0  0  0  0  0
   11.2990   12.1770    1.5770 N   0  0  0  0  0  0  0  0  0  0  0  0
   11.8210   11.8860    0.7940 H   0  0  0  0  0  0  0  0  0  0  0  0
   12.0350   12.7730    2.6590 C   0  0  0  0  0  0  0  0  0  0  0  0
   13.2610   12.8840    2.5440 O   0  0  0  0  0  0  0  0  0  0  0  0
   11.3860   13.2740    3.9350 C   0  0  0  0  0  0  0  0  0  0  0  0
    9.9890   10.1580    3.1860 N   0  0  0  0  0  0  0  0  0  0  0  0
    9.7260   10.9130    3.8200 H   0  0  0  0  0  0  0  0  0  0  0  0
    9.5340    9.2950    3.4800 H   0  0  0  0  0  0  0  0  0  0  0  0
   11.0020   10.0340    3.2090 H   0  0  0  0  0  0  0  0  0  0  0  0
    5.9340   10.7170    0.7330 C   0  0  0  0  0  0  0  0  0  0  0  0
    5.3510   10.5200   -0.4780 O   0  0  0  0  0  0  0  0  0  0  0  0
    5.2520   10.6680    1.7640 O   0  0  0  0  0  0  0  0  0  0  0  0
    9.7190   13.6070   -0.3570 C   0  0  0  0  0  0  0  0  0  0  0  0
    9.5240   14.5490    0.4210 O   0  0  0  0  0  0  0  0  0  0  0  0
   10.2590   13.9050   -1.6450 N   0  0  0  0  0  0  0  0  0  0  0  0
   10.4160   12.9030   -2.6760 C   0  0  0  0  0  0  0  0  0  0  0  0
    9.3330   13.0910   -3.7610 C   0  0  0  0  0  0  0  0  0  0  0  0
   10.6060   15.2720   -1.9400 C   0  0  0  0  0  0  0  0  0  0  0  0
   12.1120   15.5110   -1.6980 C   0  0  0  0  0  0  0  0  0  0  0  0
  1  2  2  0  0  0  0
  2  3  1  0  0  0  0
  3 12  1  1  0  0  0
  4  7  1  6  0  0  0
  4  3  1  0  0  0  0
  5 19  1  1  0  0  0
  5  4  1  0  0  0  0
  6  5  1  0  0  0  0
  6  1  1  0  0  0  0
  7  9  1  0  0  0  0
  8  7  1  0  0  0  0
  9 11  1  0  0  0  0
 10  9  2  0  0  0  0
 12 15  1  0  0  0  0
 12 14  1  0  0  0  0
 12 13  1  0  0  0  0
 16  1  1  0  0  0  0
 16 18  1  0  0  0  0
 17 16  2  0  0  0  0
 19 20  2  0  0  0  0
 21 19  1  0  0  0  0
 22 21  1  0  0  0  0
 23 22  1  0  0  0  0
 24 25  1  0  0  0  0
 24 21  1  0  0  0  0
M  END
>  <MODEL>
1

>  <REMARK>
 VINA RESULT:      -6.2      0.000      0.000
  Name = BDB4937
                            x       y       z     vdW  Elec       q    Type
                         _______ _______ _______ _____ _____    ______ ____

>  <TORSDO>
F 6

>  <vina_score>
-6.2

$$$$
BDB5242
 OpenBabel01091714593D

 22 22  0  0  1  0  0  0  0  0999 V2000
    8.4070   12.3040   -0.0840 C   0  0  0  0  0  0  0  0  0  0  0  0
    7.8710   11.7100    1.0090 C   0  0  0  0  0  0  0  0  0  0  0  0
    8.4920   11.8060    2.4260 C   0  0  0  0  0  0  0  0  0  0  0  0
    9.3680   13.0520    2.5950 C   0  0  1  0  0  0  0  0  0  0  0  0
   10.3510   13.0870    1.3770 C   0  0  2  0  0  0  0  0  0  0  0  0
    9.6420   13.1690   -0.0330 C   0  0  2  0  0  0  0  0  0  0  0  0
   11.3020   11.9160    1.5950 N   0  0  0  0  0  0  0  0  0  0  0  0
   11.0370   11.0940    1.1240 H   0  0  0  0  0  0  0  0  0  0  0  0
   12.5390   11.7810    2.3740 C   0  0  0  0  0  0  0  0  0  0  0  0
   13.1270   10.6970    2.2840 O   0  0  0  0  0  0  0  0  0  0  0  0
   13.1520   12.7960    3.2950 C   0  0  0  0  0  0  0  0  0  0  0  0
    8.4860   14.1930    2.7900 N   0  0  0  0  0  0  0  0  0  0  0  0
    7.7260   14.1540    2.1110 H   0  0  0  0  0  0  0  0  0  0  0  0
    8.1000   14.1660    3.7340 H   0  0  0  0  0  0  0  0  0  0  0  0
    9.0130   15.0560    2.6610 H   0  0  0  0  0  0  0  0  0  0  0  0
    6.7040   10.8630    0.7990 C   0  0  0  0  0  0  0  0  0  0  0  0
    5.7220   10.8260    1.7360 O   0  0  0  0  0  0  0  0  0  0  0  0
    6.6290   10.1540   -0.2050 O   0  0  0  0  0  0  0  0  0  0  0  0
    9.2580   14.6350   -0.5100 C   0  0  0  0  0  0  0  0  0  0  0  0
   10.3790   15.6700   -0.4650 C   0  0  0  0  0  0  0  0  0  0  0  0
   11.3300   15.5040   -1.6540 C   0  0  0  0  0  0  0  0  0  0  0  0
   12.5930   14.7630   -1.1700 C   0  0  0  0  0  0  0  0  0  0  0  0
  1  6  1  0  0  0  0
  1  2  2  0  0  0  0
  2  3  1  0  0  0  0
  3  4  1  0  0  0  0
  4 12  1  6  0  0  0
  5  7  1  6  0  0  0
  5  4  1  0  0  0  0
  6 19  1  1  0  0  0
  6  5  1  0  0  0  0
  7  9  1  0  0  0  0
  8  7  1  0  0  0  0
  9 11  1  0  0  0  0
 10  9  2  0  0  0  0
 12 14  1  0  0  0  0
 13 12  1  0  0  0  0
 15 12  1  0  0  0  0
 16  2  1  0  0  0  0
 16 17  1  0  0  0  0
 18 16  2  0  0  0  0
 19 20  1  0  0  0  0
 21 22  1  0  0  0  0
 21 20  1  0  0  0  0
M  END
>  <MODEL>
1

>  <REMARK>
 VINA RESULT:      -6.2      0.000      0.000
  Name = BDB5242
                            x       y       z     vdW  Elec       q    Type
                         _______ _______ _______ _____ _____    ______ ____

>  <TORSDO>
F 6

>  <vina_score>
-6.2

$$$$
BDB4983
 OpenBabel01091714583D

 22 22  0  0  1  0  0  0  0  0999 V2000
    8.3920   12.3460   -0.1200 C   0  0  0  0  0  0  0  0  0  0  0  0
    7.8620   11.7550    0.9800 C   0  0  0  0  0  0  0  0  0  0  0  0
    8.4850   11.8810    2.3840 C   0  0  0  0  0  0  0  0  0  0  0  0
    9.3840   13.1170    2.5180 C   0  0  1  0  0  0  0  0  0  0  0  0
   10.3730   13.1150    1.3060 C   0  0  2  0  0  0  0  0  0  0  0  0
    9.6240   13.2190   -0.0710 C   0  0  2  0  0  0  0  0  0  0  0  0
   11.3230   11.9500    1.5170 N   0  0  0  0  0  0  0  0  0  0  0  0
   11.0850   11.1450    1.0030 H   0  0  0  0  0  0  0  0  0  0  0  0
   12.5210   11.7940    2.3400 C   0  0  0  0  0  0  0  0  0  0  0  0
   13.1290   10.7240    2.2230 O   0  0  0  0  0  0  0  0  0  0  0  0
   13.0710   12.7710    3.3340 C   0  0  0  0  0  0  0  0  0  0  0  0
    8.5220   14.2870    2.6450 N   0  0  0  0  0  0  0  0  0  0  0  0
    9.0300   15.1180    2.3420 H   0  0  0  0  0  0  0  0  0  0  0  0
    7.6930   14.1650    2.0630 H   0  0  0  0  0  0  0  0  0  0  0  0
    8.2400   14.3980    3.6180 H   0  0  0  0  0  0  0  0  0  0  0  0
    6.7090   10.8840    0.7750 C   0  0  0  0  0  0  0  0  0  0  0  0
    5.7270   10.8470    1.7160 O   0  0  0  0  0  0  0  0  0  0  0  0
    6.6490   10.1540   -0.2100 O   0  0  0  0  0  0  0  0  0  0  0  0
    9.2680   14.6140   -0.3490 O   0  0  0  0  0  0  0  0  0  0  0  0
   10.3200   15.5740   -0.2160 C   0  0  0  0  0  0  0  0  0  0  0  0
   11.1910   15.4480   -1.4920 C   0  0  0  0  0  0  0  0  0  0  0  0
   12.6010   14.9560   -1.1310 C   0  0  0  0  0  0  0  0  0  0  0  0
  1  6  1  0  0  0  0
  1  2  2  0  0  0  0
  2  3  1  0  0  0  0
  3  4  1  0  0  0  0
  4 12  1  6  0  0  0
  5  7  1  6  0  0  0
  5  4  1  0  0  0  0
  6 19  1  1  0  0  0
  6  5  1  0  0  0  0
  7  9  1  0  0  0  0
  8  7  1  0  0  0  0
  9 11  1  0  0  0  0
 10  9  2  0  0  0  0
 12 15  1  0  0  0  0
 13 12  1  0  0  0  0
 14 12  1  0  0  0  0
 16  2  1  0  0  0  0
 16 17  1  0  0  0  0
 18 16  2  0  0  0  0
 19 20  1  0  0  0  0
 21 22  1  0  0  0  0
 21 20  1  0  0  0  0
M  END
>  <MODEL>
1

>  <REMARK>
 VINA RESULT:      -6.1      0.000      0.000
  Name = BDB4983
                            x       y       z     vdW  Elec       q    Type
                         _______ _______ _______ _____ _____    ______ ____

>  <TORSDO>
F 6

>  <vina_score>
-6.1

$$$$
BDB5198
 OpenBabel01091714553D

 25 26  0  0  1  0  0  0  0  0999 V2000
    8.4320   10.9190    2.3010 C   0  0  0  0  0  0  0  0  0  0  0  0
    9.6400   11.8150    2.2200 C   0  0  2  0  0  0  0  0  0  0  0  0
    9.7830   11.8610    0.7050 C   0  0  1  0  0  0  0  0  0  0  0  0
    8.4080   12.1530    0.2170 N   0  0  0  0  0  0  0  0  0  0  0  0
    8.1950   11.6810   -0.6610 H   0  0  0  0  0  0  0  0  0  0  0  0
    8.2930   13.1500    0.0380 H   0  0  0  0  0  0  0  0  0  0  0  0
    7.5210   11.7080    1.3420 C   0  0  1  0  0  0  0  0  0  0  0  0
   10.8520   11.2140    2.8770 C   0  0  0  0  0  0  0  0  0  0  0  0
   12.3680   11.2800    2.1920 S   0  0  0  0  0  0  0  0  0  0  0  0
   13.0370   10.4510    3.4870 C   0  0  0  0  0  0  0  0  0  0  0  0
   12.0360   10.1540    4.4110 C   0  0  0  0  0  0  0  0  0  0  0  0
   10.8290   10.5910    4.0450 N   0  0  0  0  0  0  0  0  0  0  0  0
    6.3490   10.8940    0.8740 C   0  0  0  0  0  0  0  0  0  0  0  0
    6.4420   10.1620   -0.2660 O   0  0  0  0  0  0  0  0  0  0  0  0
    5.2980   10.8970    1.5250 O   0  0  0  0  0  0  0  0  0  0  0  0
    9.8620   13.1560   -0.2210 C   0  0  1  0  0  0  0  0  0  0  0  0
   10.1800   14.2820    0.7510 N   0  0  0  0  0  0  0  0  0  0  0  0
   11.0100   14.0230    1.2140 H   0  0  0  0  0  0  0  0  0  0  0  0
    9.8060   15.5340    1.2790 C   0  0  0  0  0  0  0  0  0  0  0  0
    9.6560   15.6610    2.4960 O   0  0  0  0  0  0  0  0  0  0  0  0
    9.5980   16.7230    0.3760 C   0  0  0  0  0  0  0  0  0  0  0  0
   11.2520   12.9850   -1.1130 C   0  0  0  0  0  0  0  0  0  0  0  0
   10.3690   13.9560   -1.9530 C   0  0  0  0  0  0  0  0  0  0  0  0
   11.1830   15.1520   -2.4930 C   0  0  0  0  0  0  0  0  0  0  0  0
    9.7910   13.1840   -3.1520 C   0  0  0  0  0  0  0  0  0  0  0  0
  2  1  1  0  0  0  0
  2  8  1  1  0  0  0
  3  4  1  6  0  0  0
  3  2  1  0  0  0  0
  4  7  1  0  0  0  0
  5  4  1  0  0  0  0
  6  4  1  0  0  0  0
  7 13  1  6  0  0  0
  7  1  1  0  0  0  0
  8 12  2  0  0  0  0
  9  8  1  0  0  0  0
  9 10  1  0  0  0  0
 10 11  2  0  0  0  0
 12 11  1  0  0  0  0
 13 15  1  0  0  0  0
 14 13  2  0  0  0  0
 16 22  1  6  0  0  0
 16  3  1  0  0  0  0
 16 17  1  0  0  0  0
 17 18  1  0  0  0  0
 17 19  1  0  0  0  0
 19 20  2  0  0  0  0
 21 19  1  0  0  0  0
 23 22  1  0  0  0  0
 24 23  1  0  0  0  0
 25 23  1  0  0  0  0
M  END
>  <MODEL>
1

>  <REMARK>
 VINA RESULT:      -6.0      0.000      0.000
  Name = BDB5198
                            x       y       z     vdW  Elec       q    Type
                         _______ _______ _______ _____ _____    ______ ____

>  <TORSDO>
F 6

>  <vina_score>
-6.0

$$$$
BDB4997
 OpenBabel01091714583D

 29 29  0  0  1  0  0  0  0  0999 V2000
   10.5280   12.2890    1.5140 C   0  0  0  0  0  0  0  0  0  0  0  0
   11.2760   12.3240    2.6370 C   0  0  0  0  0  0  0  0  0  0  0  0
   10.7210   12.7250    4.0290 C   0  0  0  0  0  0  0  0  0  0  0  0
    9.2040   12.5500    4.1430 C   0  0  1  0  0  0  0  0  0  0  0  0
    8.5350   13.1650    2.8650 C   0  0  2  0  0  0  0  0  0  0  0  0
    9.0460   12.5440    1.4780 C   0  0  2  0  0  0  0  0  0  0  0  0
    8.6780   14.6870    3.0080 N   0  0  0  0  0  0  0  0  0  0  0  0
    8.2340   15.0530    3.8080 H   0  0  0  0  0  0  0  0  0  0  0  0
    9.3470   15.7060    2.1850 C   0  0  0  0  0  0  0  0  0  0  0  0
    9.4830   16.8220    2.6990 O   0  0  0  0  0  0  0  0  0  0  0  0
    9.8070   15.5690    0.7640 C   0  0  0  0  0  0  0  0  0  0  0  0
    8.9500   11.1720    4.3900 N   0  0  0  0  0  0  0  0  0  0  0  0
    9.7660   10.6220    4.1240 H   0  0  0  0  0  0  0  0  0  0  0  0
    8.7560   11.0340    5.3820 H   0  0  0  0  0  0  0  0  0  0  0  0
    8.1430   10.8710    3.8420 H   0  0  0  0  0  0  0  0  0  0  0  0
   12.7020   12.0720    2.4830 C   0  0  0  0  0  0  0  0  0  0  0  0
   13.6030   12.8850    3.0890 O   0  0  0  0  0  0  0  0  0  0  0  0
   13.0890   11.1360    1.7800 O   0  0  0  0  0  0  0  0  0  0  0  0
    8.3920   11.2880    0.9030 O   0  0  0  0  0  0  0  0  0  0  0  0
    7.7900   11.2940   -0.4200 C   0  0  1  0  0  0  0  0  0  0  0  0
    6.3960   10.6040   -0.3970 C   0  0  0  0  0  0  0  0  0  0  0  0
    5.9840   10.2580    1.0460 C   0  0  0  0  0  0  0  0  0  0  0  0
    7.5460   12.7200   -0.9400 C   0  0  0  0  0  0  0  0  0  0  0  0
    8.4690   12.8410   -2.1770 C   0  0  0  0  0  0  0  0  0  0  0  0
    8.7240   14.2850   -2.6190 C   0  0  0  0  0  0  0  0  0  0  0  0
   10.2490   14.4080   -2.8240 C   0  0  0  0  0  0  0  0  0  0  0  0
   10.9990   13.2300   -2.1860 C   0  0  0  0  0  0  0  0  0  0  0  0
   12.1850   13.7910   -1.3750 C   0  0  0  0  0  0  0  0  0  0  0  0
   12.2740   15.3150   -1.5670 C   0  0  0  0  0  0  0  0  0  0  0  0
  1  2  2  0  0  0  0
  2  3  1  0  0  0  0
  3  4  1  0  0  0  0
  4 12  1  6  0  0  0
  5  7  1  6  0  0  0
  5  4  1  0  0  0  0
  6 19  1  1  0  0  0
  6  1  1  0  0  0  0
  6  5  1  0  0  0  0
  7  8  1  0  0  0  0
  9 10  2  0  0  0  0
  9  7  1  0  0  0  0
 11  9  1  0  0  0  0
 12 14  1  0  0  0  0
 13 12  1  0  0  0  0
 15 12  1  0  0  0  0
 16  2  1  0  0  0  0
 16 17  1  0  0  0  0
 18 16  2  0  0  0  0
 20 23  1  1  0  0  0
 20 21  1  0  0  0  0
 20 19  1  0  0  0  0
 21 22  1  0  0  0  0
 24 23  1  0  0  0  0
 25 24  1  0  0  0  0
 26 25  1  0  0  0  0
 26 27  1  0  0  0  0
 27 28  1  0  0  0  0
 29 28  1  0  0  0  0
M  END
>  <MODEL>
1

>  <REMARK>
 VINA RESULT:      -6.0      0.000      0.000
  Name = BDB4997
                            x       y       z     vdW  Elec       q    Type
                         _______ _______ _______ _____ _____    ______ ____

>  <TORSDO>
F 12

>  <vina_score>
-6.0

$$$$
BDB5025
 OpenBabel01091714563D

 26 26  0  0  1  0  0  0  0  0999 V2000
    9.8590   12.0260    0.8820 C   0  0  0  0  0  0  0  0  0  0  0  0
   11.1380   12.4840    1.5260 C   0  0  2  0  0  0  0  0  0  0  0  0
   10.8780   13.1740    2.8660 C   0  0  1  0  0  0  0  0  0  0  0  0
   10.0680   12.2050    3.7120 C   0  0  2  0  0  0  0  0  0  0  0  0
    8.6740   12.0540    3.0780 C   0  0  0  0  0  0  0  0  0  0  0  0
    8.7430   11.8160    1.5830 C   0  0  0  0  0  0  0  0  0  0  0  0
   12.1730   13.4370    3.5110 N   0  0  0  0  0  0  0  0  0  0  0  0
   12.3520   14.3650    3.7840 H   0  0  0  0  0  0  0  0  0  0  0  0
   13.2030   12.4710    3.7800 C   0  0  0  0  0  0  0  0  0  0  0  0
   14.2390   12.8580    4.3320 O   0  0  0  0  0  0  0  0  0  0  0  0
   13.0860   11.0010    3.4230 C   0  0  0  0  0  0  0  0  0  0  0  0
    9.9100   12.7280    5.0760 N   0  0  0  0  0  0  0  0  0  0  0  0
    9.0740   13.3100    5.1230 H   0  0  0  0  0  0  0  0  0  0  0  0
    9.8200   11.9500    5.7300 H   0  0  0  0  0  0  0  0  0  0  0  0
   10.7280   13.2860    5.3240 H   0  0  0  0  0  0  0  0  0  0  0  0
    7.5360   11.3810    0.8840 C   0  0  0  0  0  0  0  0  0  0  0  0
    6.4390   11.4270    1.4530 O   0  0  0  0  0  0  0  0  0  0  0  0
    7.6270   10.9150   -0.4250 O   0  0  0  0  0  0  0  0  0  0  0  0
    6.7790   11.6890   -1.2780 C   0  0  0  0  0  0  0  0  0  0  0  0
    7.5340   12.9510   -1.7340 C   0  0  0  0  0  0  0  0  0  0  0  0
   11.8780   13.3680    0.6300 O   0  0  0  0  0  0  0  0  0  0  0  0
   11.1070   13.8280   -0.5160 C   0  0  0  0  0  0  0  0  0  0  0  0
   10.9260   15.3750   -0.5100 C   0  0  0  0  0  0  0  0  0  0  0  0
    9.8010   15.7720    0.4730 C   0  0  0  0  0  0  0  0  0  0  0  0
   11.8500   13.4240   -1.8080 C   0  0  0  0  0  0  0  0  0  0  0  0
   10.8480   13.2860   -2.9750 C   0  0  0  0  0  0  0  0  0  0  0  0
  1  2  1  0  0  0  0
  1  6  2  0  0  0  0
  2 21  1  6  0  0  0
  2  3  1  0  0  0  0
  3  7  1  1  0  0  0
  3  4  1  0  0  0  0
  4 12  1  1  0  0  0
  5  4  1  0  0  0  0
  6  5  1  0  0  0  0
  7  9  1  0  0  0  0
  7  8  1  0  0  0  0
  9 10  2  0  0  0  0
 11  9  1  0  0  0  0
 12 13  1  0  0  0  0
 12 15  1  0  0  0  0
 12 14  1  0  0  0  0
 16 17  2  0  0  0  0
 16  6  1  0  0  0  0
 18 16  1  0  0  0  0
 19 18  1  0  0  0  0
 20 19  1  0  0  0  0
 22 23  1  0  0  0  0
 22 21  1  0  0  0  0
 23 24  1  0  0  0  0
 25 22  1  0  0  0  0
 26 25  1  0  0  0  0
M  END
>  <MODEL>
1

>  <REMARK>
 VINA RESULT:      -5.8      0.000      0.000
  Name = BDB5025
                            x       y       z     vdW  Elec       q    Type
                         _______ _______ _______ _____ _____    ______ ____

>  <TORSDO>
F 9

>  <vina_score>
-5.8

$$$$
BDB4946
 OpenBabel01091715003D

 37 38  0  0  1  0  0  0  0  0999 V2000
    7.4400   11.5940   -0.4150 C   0  0  0  0  0  0  0  0  0  0  0  0
    7.4940   12.6090   -1.2840 C   0  0  0  0  0  0  0  0  0  0  0  0
    8.7410   13.3910   -1.4850 C   0  0  1  0  0  0  0  0  0  0  0  0
    9.9300   12.5070   -1.1510 C   0  0  2  0  0  0  0  0  0  0  0  0
    9.7120   12.0490    0.2790 C   0  0  1  0  0  0  0  0  0  0  0  0
    8.5500   11.1960    0.3790 O   0  0  0  0  0  0  0  0  0  0  0  0
   11.1530   13.3170   -1.2320 N   0  0  0  0  0  0  0  0  0  0  0  0
   11.9240   12.9120   -1.6910 H   0  0  0  0  0  0  0  0  0  0  0  0
   11.3360   14.6440   -0.7080 C   0  0  0  0  0  0  0  0  0  0  0  0
   12.4350   15.1880   -0.8620 O   0  0  0  0  0  0  0  0  0  0  0  0
   10.2510   15.4090    0.0250 C   0  0  0  0  0  0  0  0  0  0  0  0
    6.1930   10.8340   -0.3030 C   0  0  0  0  0  0  0  0  0  0  0  0
    5.4850   10.8580    0.8570 O   0  0  0  0  0  0  0  0  0  0  0  0
    5.7860   10.1690   -1.2630 O   0  0  0  0  0  0  0  0  0  0  0  0
   10.9340   11.2770    0.7850 C   0  0  0  0  0  0  0  0  0  0  0  0
   11.8330   11.0190   -0.0240 O   0  0  0  0  0  0  0  0  0  0  0  0
   11.0930   10.8210    2.1300 N   0  0  0  0  0  0  0  0  0  0  0  0
   10.0690   10.9870    3.1410 C   0  0  0  0  0  0  0  0  0  0  0  0
   10.1940   12.3730    3.8180 C   0  0  0  0  0  0  0  0  0  0  0  0
    8.8040   13.0290    3.8960 C   0  0  0  0  0  0  0  0  0  0  0  0
   12.3270   10.1550    2.4740 C   0  0  0  0  0  0  0  0  0  0  0  0
   12.5530   10.1540    4.0010 C   0  0  0  0  0  0  0  0  0  0  0  0
   13.6500   11.1160    4.3530 C   0  0  0  0  0  0  0  0  0  0  0  0
   14.7020   10.7010    5.1630 C   0  0  0  0  0  0  0  0  0  0  0  0
   15.7210   11.5880    5.4840 C   0  0  0  0  0  0  0  0  0  0  0  0
   15.6900   12.8890    4.9970 C   0  0  0  0  0  0  0  0  0  0  0  0
   14.6390   13.3040    4.1890 C   0  0  0  0  0  0  0  0  0  0  0  0
   13.6180   12.4150    3.8670 C   0  0  0  0  0  0  0  0  0  0  0  0
    8.8300   13.8610   -2.8540 N   0  0  0  0  0  0  0  0  0  0  0  0
    8.5190   14.7720   -3.0600 H   0  0  0  0  0  0  0  0  0  0  0  0
    9.3450   13.0670   -3.9040 C   0  0  0  0  0  0  0  0  0  0  0  0
   10.5020   13.3190   -4.3630 N   0  0  0  0  0  0  0  0  0  0  0  0
   10.8710   12.7720   -5.0940 H   0  0  0  0  0  0  0  0  0  0  0  0
   11.0300   14.0600   -3.9890 H   0  0  0  0  0  0  0  0  0  0  0  0
    8.6070   12.0080   -4.4490 N   0  0  0  0  0  0  0  0  0  0  0  0
    7.7410   11.7560   -4.0540 H   0  0  0  0  0  0  0  0  0  0  0  0
    8.9550   11.5150   -5.2260 H   0  0  0  0  0  0  0  0  0  0  0  0
  1 12  1  0  0  0  0
  1  6  1  0  0  0  0
  2  1  2  0  0  0  0
  3 29  1  6  0  0  0
  3  2  1  0  0  0  0
  3  4  1  0  0  0  0
  4  7  1  1  0  0  0
  4  5  1  0  0  0  0
  5  6  1  0  0  0  0
  5 15  1  6  0  0  0
  7  9  1  0  0  0  0
  8  7  1  0  0  0  0
  9 11  1  0  0  0  0
 10  9  2  0  0  0  0
 12 13  1  0  0  0  0
 14 12  2  0  0  0  0
 15 17  1  0  0  0  0
 16 15  2  0  0  0  0
 17 21  1  0  0  0  0
 17 18  1  0  0  0  0
 18 19  1  0  0  0  0
 19 20  1  0  0  0  0
 21 22  1  0  0  0  0
 22 23  1  0  0  0  0
 23 24  2  0  0  0  0
 24 25  1  0  0  0  0
 26 25  2  0  0  0  0
 27 26  1  0  0  0  0
 28 27  2  0  0  0  0
 28 23  1  0  0  0  0
 30 29  1  0  0  0  0
 31 29  1  0  0  0  0
 32 34  1  0  0  0  0
 32 31  1  0  0  0  0
 33 32  1  0  0  0  0
 35 36  1  0  0  0  0
 35 31  2  0  0  0  0
 37 35  1  0  0  0  0
M  END
>  <MODEL>
1

>  <REMARK>
 VINA RESULT:      -5.8      0.000      0.000
  Name = BDB4946
                            x       y       z     vdW  Elec       q    Type
                         _______ _______ _______ _____ _____    ______ ____

>  <TORSDO>
F 11

>  <vina_score>
-5.8

$$$$
BDB4952
 OpenBabel01091714583D

 31 32  0  0  1  0  0  0  0  0999 V2000
    7.8380   10.9030    1.3600 C   0  0  0  0  0  0  0  0  0  0  0  0
    8.1580   10.2430    2.4780 C   0  0  0  0  0  0  0  0  0  0  0  0
    9.5460   10.2400    3.0070 C   0  0  1  0  0  0  0  0  0  0  0  0
   10.2420   11.5120    2.5540 C   0  0  2  0  0  0  0  0  0  0  0  0
   10.1580   11.5100    1.0400 C   0  0  1  0  0  0  0  0  0  0  0  0
    8.7880   11.6340    0.5970 O   0  0  0  0  0  0  0  0  0  0  0  0
   11.6490   11.4500    2.9740 N   0  0  0  0  0  0  0  0  0  0  0  0
   12.1770   10.6860    2.6460 H   0  0  0  0  0  0  0  0  0  0  0  0
   12.3320   12.3950    3.8160 C   0  0  0  0  0  0  0  0  0  0  0  0
   13.5230   12.1940    4.0750 O   0  0  0  0  0  0  0  0  0  0  0  0
   11.6650   13.6240    4.4040 C   0  0  0  0  0  0  0  0  0  0  0  0
    9.5400   10.1530    4.4740 N   0  0  0  0  0  0  0  0  0  0  0  0
    9.7950   11.0590    4.8690 H   0  0  0  0  0  0  0  0  0  0  0  0
    8.6070    9.8950    4.7950 H   0  0  0  0  0  0  0  0  0  0  0  0
   10.2120    9.4480    4.7760 H   0  0  0  0  0  0  0  0  0  0  0  0
    6.4410   10.9040    0.9230 C   0  0  0  0  0  0  0  0  0  0  0  0
    6.1440   10.9070   -0.4030 O   0  0  0  0  0  0  0  0  0  0  0  0
    5.5310   10.9040    1.7610 O   0  0  0  0  0  0  0  0  0  0  0  0
   10.9720   12.6720    0.4570 C   0  0  0  0  0  0  0  0  0  0  0  0
   11.9490   12.3960   -0.2460 O   0  0  0  0  0  0  0  0  0  0  0  0
   10.6780   14.0540    0.6810 N   0  0  0  0  0  0  0  0  0  0  0  0
    9.6300   14.5010    1.5800 C   0  0  0  0  0  0  0  0  0  0  0  0
    9.7410   16.0280    1.8290 C   0  0  0  0  0  0  0  0  0  0  0  0
   11.4840   15.0320   -0.0150 C   0  0  0  0  0  0  0  0  0  0  0  0
   10.6830   15.7250   -1.1380 C   0  0  0  0  0  0  0  0  0  0  0  0
   10.2100   14.7020   -2.1280 C   0  0  0  0  0  0  0  0  0  0  0  0
   11.1220   14.0900   -2.9810 C   0  0  0  0  0  0  0  0  0  0  0  0
   10.6880   13.1400   -3.8950 C   0  0  0  0  0  0  0  0  0  0  0  0
    9.3420   12.8000   -3.9590 C   0  0  0  0  0  0  0  0  0  0  0  0
    8.4300   13.4110   -3.1080 C   0  0  0  0  0  0  0  0  0  0  0  0
    8.8650   14.3630   -2.1920 C   0  0  0  0  0  0  0  0  0  0  0  0
  1  2  2  0  0  0  0
  2  3  1  0  0  0  0
  3 12  1  1  0  0  0
  4  7  1  6  0  0  0
  4  3  1  0  0  0  0
  5 19  1  6  0  0  0
  5  4  1  0  0  0  0
  6  5  1  0  0  0  0
  6  1  1  0  0  0  0
  7  9  1  0  0  0  0
  8  7  1  0  0  0  0
  9 10  2  0  0  0  0
  9 11  1  0  0  0  0
 12 15  1  0  0  0  0
 12 14  1  0  0  0  0
 12 13  1  0  0  0  0
 16  1  1  0  0  0  0
 16 18  1  0  0  0  0
 17 16  2  0  0  0  0
 19 21  1  0  0  0  0
 20 19  2  0  0  0  0
 21 22  1  0  0  0  0
 22 23  1  0  0  0  0
 24 21  1  0  0  0  0
 25 24  1  0  0  0  0
 26 25  1  0  0  0  0
 27 26  2  0  0  0  0
 28 27  1  0  0  0  0
 29 28  2  0  0  0  0
 29 30  1  0  0  0  0
 30 31  2  0  0  0  0
 31 26  1  0  0  0  0
M  END
>  <MODEL>
1

>  <REMARK>
 VINA RESULT:      -5.6      0.000      0.000
  Name = BDB4952
                            x       y       z     vdW  Elec       q    Type
                         _______ _______ _______ _____ _____    ______ ____

>  <TORSDO>
F 8

>  <vina_score>
-5.6

$$$$
BDB5007
 OpenBabel01091715003D

 34 36  0  0  1  0  0  0  0  0999 V2000
    9.1560   13.3290   -0.0210 C   0  0  0  0  0  0  0  0  0  0  0  0
    9.2780   14.6520   -0.1790 C   0  0  0  0  0  0  0  0  0  0  0  0
    8.9800   15.3630   -1.5160 C   0  0  0  0  0  0  0  0  0  0  0  0
    8.1370   14.4930   -2.4470 C   0  0  1  0  0  0  0  0  0  0  0  0
    8.7590   13.0470   -2.5060 C   0  0  2  0  0  0  0  0  0  0  0  0
    8.6510   12.4220   -1.0970 C   0  0  2  0  0  0  0  0  0  0  0  0
   10.0960   13.0780   -3.2250 N   0  0  0  0  0  0  0  0  0  0  0  0
   10.0310   12.8840   -4.1880 H   0  0  0  0  0  0  0  0  0  0  0  0
   11.4660   13.3390   -2.7700 C   0  0  0  0  0  0  0  0  0  0  0  0
   12.3200   13.4530   -3.6550 O   0  0  0  0  0  0  0  0  0  0  0  0
   11.9600   13.4200   -1.3590 C   0  0  0  0  0  0  0  0  0  0  0  0
    6.7550   14.5530   -1.9380 N   0  0  0  0  0  0  0  0  0  0  0  0
    6.1130   14.2250   -2.6590 H   0  0  0  0  0  0  0  0  0  0  0  0
    6.6700   13.9590   -1.1120 H   0  0  0  0  0  0  0  0  0  0  0  0
    6.5260   15.5150   -1.6890 H   0  0  0  0  0  0  0  0  0  0  0  0
    9.8410   15.4130    0.9240 C   0  0  0  0  0  0  0  0  0  0  0  0
   10.3920   14.7680    1.9770 O   0  0  0  0  0  0  0  0  0  0  0  0
    9.7450   16.6470    0.9310 O   0  0  0  0  0  0  0  0  0  0  0  0
    7.2120   12.2770   -0.9300 O   0  0  0  0  0  0  0  0  0  0  0  0
    6.7270   10.9330   -0.9090 C   0  0  0  0  0  0  0  0  0  0  0  0
    7.3540   10.1540    0.3150 C   0  0  0  0  0  0  0  0  0  0  0  0
    7.1200   10.7730    1.7520 C   0  0  0  0  0  0  0  0  0  0  0  0
    8.5040   10.9080    2.3760 C   0  0  0  0  0  0  0  0  0  0  0  0
    8.7630   11.7410    3.4640 C   0  0  0  0  0  0  0  0  0  0  0  0
   10.0630   11.8780    3.9420 C   0  0  0  0  0  0  0  0  0  0  0  0
   11.1070   11.1720    3.3250 C   0  0  0  0  0  0  0  0  0  0  0  0
   10.8410   10.3410    2.2630 C   0  0  0  0  0  0  0  0  0  0  0  0
    9.5440   10.2080    1.7840 C   0  0  0  0  0  0  0  0  0  0  0  0
   12.4900   11.3300    3.7750 C   0  0  0  0  0  0  0  0  0  0  0  0
   13.2920   10.2440    4.0530 C   0  0  0  0  0  0  0  0  0  0  0  0
   14.5950   10.4360    4.5080 C   0  0  0  0  0  0  0  0  0  0  0  0
   15.0880   11.7250    4.6780 C   0  0  0  0  0  0  0  0  0  0  0  0
   14.2810   12.8210    4.3950 C   0  0  0  0  0  0  0  0  0  0  0  0
   12.9850   12.6300    3.9470 C   0  0  0  0  0  0  0  0  0  0  0  0
  2  1  2  0  0  0  0
  2 16  1  0  0  0  0
  3  2  1  0  0  0  0
  4 12  1  1  0  0  0
  4  3  1  0  0  0  0
  5  7  1  1  0  0  0
  5  4  1  0  0  0  0
  5  6  1  0  0  0  0
  6 19  1  1  0  0  0
  6  1  1  0  0  0  0
  7  9  1  0  0  0  0
  8  7  1  0  0  0  0
  9 11  1  0  0  0  0
 10  9  2  0  0  0  0
 12 15  1  0  0  0  0
 12 14  1  0  0  0  0
 13 12  1  0  0  0  0
 16 18  2  0  0  0  0
 16 17  1  0  0  0  0
 19 20  1  0  0  0  0
 20 21  1  0  0  0  0
 21 22  1  0  0  0  0
 22 23  1  0  0  0  0
 23 24  2  0  0  0  0
 24 25  1  0  0  0  0
 26 29  1  0  0  0  0
 26 25  2  0  0  0  0
 27 26  1  0  0  0  0
 28 27  2  0  0  0  0
 28 23  1  0  0  0  0
 29 34  2  0  0  0  0
 29 30  1  0  0  0  0
 30 31  2  0  0  0  0
 31 32  1  0  0  0  0
 33 32  2  0  0  0  0
 34 33  1  0  0  0  0
M  END
>  <MODEL>
1

>  <REMARK>
 VINA RESULT:      -5.5      0.000      0.000
  Name = BDB5007
                            x       y       z     vdW  Elec       q    Type
                         _______ _______ _______ _____ _____    ______ ____

>  <TORSDO>
F 9

>  <vina_score>
-5.5

$$$$
BDB5195
 OpenBabel01091714553D

 24 24  0  0  1  0  0  0  0  0999 V2000
    9.9680   10.1840    2.2100 C   0  0  0  0  0  0  0  0  0  0  0  0
    8.9440   10.9670    1.4300 C   0  0  2  0  0  0  0  0  0  0  0  0
    9.4540   12.3690    1.7360 C   0  0  1  0  0  0  0  0  0  0  0  0
   10.9170   12.2900    1.4780 N   0  0  0  0  0  0  0  0  0  0  0  0
   11.4610   12.8640    2.1220 H   0  0  0  0  0  0  0  0  0  0  0  0
   11.1380   12.6280    0.5420 H   0  0  0  0  0  0  0  0  0  0  0  0
   11.2300   10.8280    1.6040 C   0  0  1  0  0  0  0  0  0  0  0  0
   12.4560   10.5620    2.4290 C   0  0  0  0  0  0  0  0  0  0  0  0
   13.6030   10.1530    1.8280 O   0  0  0  0  0  0  0  0  0  0  0  0
   12.4170   10.7090    3.6560 O   0  0  0  0  0  0  0  0  0  0  0  0
    7.5460   10.7580    1.9330 C   0  0  0  0  0  0  0  0  0  0  0  0
    7.3570   10.1620    3.0010 O   0  0  0  0  0  0  0  0  0  0  0  0
    6.4660   11.2360    1.1970 O   0  0  0  0  0  0  0  0  0  0  0  0
    5.8590   10.1610    0.4760 C   0  0  0  0  0  0  0  0  0  0  0  0
    9.8250   13.5140    0.6900 C   0  0  1  0  0  0  0  0  0  0  0  0
    8.6100   13.5820   -0.2230 N   0  0  0  0  0  0  0  0  0  0  0  0
    7.9270   14.1000    0.2610 H   0  0  0  0  0  0  0  0  0  0  0  0
    8.0350   13.2290   -1.4610 C   0  0  0  0  0  0  0  0  0  0  0  0
    6.9640   12.6190   -1.4820 O   0  0  0  0  0  0  0  0  0  0  0  0
    8.7080   13.5970   -2.7590 C   0  0  0  0  0  0  0  0  0  0  0  0
    9.7710   14.9350    1.5450 C   0  0  0  0  0  0  0  0  0  0  0  0
   10.0200   15.3780    0.0710 C   0  0  0  0  0  0  0  0  0  0  0  0
    9.7930   16.8930   -0.1210 C   0  0  0  0  0  0  0  0  0  0  0  0
   11.4780   15.0560   -0.3000 C   0  0  0  0  0  0  0  0  0  0  0  0
  2  3  1  0  0  0  0
  2 11  1  1  0  0  0
  2  1  1  0  0  0  0
  3  4  1  6  0  0  0
  4  7  1  0  0  0  0
  4  5  1  0  0  0  0
  6  4  1  0  0  0  0
  7  1  1  0  0  0  0
  7  8  1  1  0  0  0
  8 10  1  0  0  0  0
  9  8  2  0  0  0  0
 11 12  2  0  0  0  0
 13 11  1  0  0  0  0
 14 13  1  0  0  0  0
 15 16  1  6  0  0  0
 15 21  1  0  0  0  0
 15  3  1  0  0  0  0
 16 17  1  0  0  0  0
 18 16  1  0  0  0  0
 19 18  2  0  0  0  0
 20 18  1  0  0  0  0
 22 21  1  0  0  0  0
 23 22  1  0  0  0  0
 24 22  1  0  0  0  0
M  END
>  <MODEL>
1

>  <REMARK>
 VINA RESULT:      -5.5      0.000      0.000
  Name = BDB5195
                            x       y       z     vdW  Elec       q    Type
                         _______ _______ _______ _____ _____    ______ ____

>  <TORSDO>
F 7

>  <vina_score>
-5.5

$$$$
BDB4965
 OpenBabel01091714593D

 34 35  0  0  1  0  0  0  0  0999 V2000
   12.4090   12.7230    4.1060 C   0  0  0  0  0  0  0  0  0  0  0  0
   11.6890   11.6460    4.4360 C   0  0  0  0  0  0  0  0  0  0  0  0
   10.2410   11.5530    4.1180 C   0  0  1  0  0  0  0  0  0  0  0  0
    9.9540   12.4140    2.9000 C   0  0  2  0  0  0  0  0  0  0  0  0
   10.4180   13.8110    3.2650 C   0  0  1  0  0  0  0  0  0  0  0  0
   11.8510   13.8510    3.4440 O   0  0  0  0  0  0  0  0  0  0  0  0
    8.5050   12.4180    2.6610 N   0  0  0  0  0  0  0  0  0  0  0  0
    7.9690   13.0520    3.1920 H   0  0  0  0  0  0  0  0  0  0  0  0
    7.7890   11.5890    1.7290 C   0  0  0  0  0  0  0  0  0  0  0  0
    6.5630   11.7180    1.6510 O   0  0  0  0  0  0  0  0  0  0  0  0
    8.4620   10.5630    0.8370 C   0  0  0  0  0  0  0  0  0  0  0  0
    9.8580   10.1580    3.8620 N   0  0  0  0  0  0  0  0  0  0  0  0
    9.5180   10.0690    2.9040 H   0  0  0  0  0  0  0  0  0  0  0  0
   10.6680    9.5530    3.9920 H   0  0  0  0  0  0  0  0  0  0  0  0
    9.1200    9.8840    4.5110 H   0  0  0  0  0  0  0  0  0  0  0  0
   13.8420   12.7270    4.4050 C   0  0  0  0  0  0  0  0  0  0  0  0
   14.4320   11.6150    4.9170 O   0  0  0  0  0  0  0  0  0  0  0  0
   14.5150   13.7420    4.1930 O   0  0  0  0  0  0  0  0  0  0  0  0
   10.0310   14.8060    2.1680 C   0  0  0  0  0  0  0  0  0  0  0  0
    9.0350   15.5150    2.3540 O   0  0  0  0  0  0  0  0  0  0  0  0
   10.7380   14.9550    0.9350 N   0  0  0  0  0  0  0  0  0  0  0  0
   11.8640   14.1190    0.5700 C   0  0  0  0  0  0  0  0  0  0  0  0
   11.3780   12.7220    0.1180 C   0  0  0  0  0  0  0  0  0  0  0  0
   12.2920   11.6440    0.7270 C   0  0  0  0  0  0  0  0  0  0  0  0
   10.2880   15.9780    0.0200 C   0  0  0  0  0  0  0  0  0  0  0  0
   10.8830   15.7650   -1.3890 C   0  0  0  0  0  0  0  0  0  0  0  0
   10.1150   14.6970   -2.1090 C   0  0  0  0  0  0  0  0  0  0  0  0
   10.7170   13.9890   -3.1440 C   0  0  0  0  0  0  0  0  0  0  0  0
   10.0090   12.9950   -3.8090 C   0  0  0  0  0  0  0  0  0  0  0  0
    8.7000   12.7090   -3.4390 C   0  0  0  0  0  0  0  0  0  0  0  0
    8.0980   13.4160   -2.4050 C   0  0  0  0  0  0  0  0  0  0  0  0
    8.8060   14.4110   -1.7400 C   0  0  0  0  0  0  0  0  0  0  0  0
    6.7810   13.1270   -2.0340 O   0  0  0  0  0  0  0  0  0  0  0  0
    6.6280   11.7340   -1.7300 C   0  0  0  0  0  0  0  0  0  0  0  0
  1 16  1  0  0  0  0
  1  2  2  0  0  0  0
  3 12  1  6  0  0  0
  3  2  1  0  0  0  0
  4  7  1  1  0  0  0
  4  5  1  0  0  0  0
  4  3  1  0  0  0  0
  5 19  1  6  0  0  0
  5  6  1  0  0  0  0
  6  1  1  0  0  0  0
  7  8  1  0  0  0  0
  9  7  1  0  0  0  0
 10  9  2  0  0  0  0
 11  9  1  0  0  0  0
 12 14  1  0  0  0  0
 12 15  1  0  0  0  0
 13 12  1  0  0  0  0
 16 17  1  0  0  0  0
 18 16  2  0  0  0  0
 19 20  2  0  0  0  0
 21 19  1  0  0  0  0
 22 21  1  0  0  0  0
 23 22  1  0  0  0  0
 23 24  1  0  0  0  0
 25 21  1  0  0  0  0
 26 25  1  0  0  0  0
 27 32  1  0  0  0  0
 27 26  1  0  0  0  0
 28 27  2  0  0  0  0
 29 30  2  0  0  0  0
 29 28  1  0  0  0  0
 30 31  1  0  0  0  0
 31 33  1  0  0  0  0
 31 32  2  0  0  0  0
 33 34  1  0  0  0  0
M  END
>  <MODEL>
1

>  <REMARK>
 VINA RESULT:      -4.8      0.000      0.000
  Name = BDB4965
                            x       y       z     vdW  Elec       q    Type
                         _______ _______ _______ _____ _____    ______ ____

>  <TORSDO>
F 10

>  <vina_score>
-4.8

$$$$
BDB4948
 OpenBabel01091715003D

 33 33  0  0  1  0  0  0  0  0999 V2000
   13.1260   12.7970    3.9250 C   0  0  0  0  0  0  0  0  0  0  0  0
   12.0910   12.9980    4.7470 C   0  0  0  0  0  0  0  0  0  0  0  0
   10.7130   13.1830    4.2260 C   0  0  1  0  0  0  0  0  0  0  0  0
   10.5970   12.4740    2.8890 C   0  0  2  0  0  0  0  0  0  0  0  0
   11.6760   13.0770    2.0090 C   0  0  1  0  0  0  0  0  0  0  0  0
   12.9930   12.7570    2.5110 O   0  0  0  0  0  0  0  0  0  0  0  0
    9.2740   12.7610    2.3190 N   0  0  0  0  0  0  0  0  0  0  0  0
    9.1220   13.6760    1.9860 H   0  0  0  0  0  0  0  0  0  0  0  0
    8.1760   11.8390    2.2000 C   0  0  0  0  0  0  0  0  0  0  0  0
    7.1240   12.2430    1.6940 O   0  0  0  0  0  0  0  0  0  0  0  0
    8.2430   10.3960    2.6630 C   0  0  0  0  0  0  0  0  0  0  0  0
    9.7260   12.6500    5.1760 N   0  0  0  0  0  0  0  0  0  0  0  0
    9.6070   11.6500    5.0160 H   0  0  0  0  0  0  0  0  0  0  0  0
   10.0540   12.8040    6.1290 H   0  0  0  0  0  0  0  0  0  0  0  0
    8.8330   13.1250    5.0420 H   0  0  0  0  0  0  0  0  0  0  0  0
   14.4500   12.5720    4.5080 C   0  0  0  0  0  0  0  0  0  0  0  0
   14.7920   11.3380    4.9600 O   0  0  0  0  0  0  0  0  0  0  0  0
   15.2560   13.5060    4.5900 O   0  0  0  0  0  0  0  0  0  0  0  0
   11.5540   12.5500    0.5730 C   0  0  0  0  0  0  0  0  0  0  0  0
   11.5800   11.3280    0.4010 O   0  0  0  0  0  0  0  0  0  0  0  0
   11.4350   13.3870   -0.5800 N   0  0  0  0  0  0  0  0  0  0  0  0
   11.5080   14.8310   -0.5130 C   0  0  0  0  0  0  0  0  0  0  0  0
   10.2850   15.3950    0.2510 C   0  0  0  0  0  0  0  0  0  0  0  0
    9.9160   16.7730   -0.3230 C   0  0  0  0  0  0  0  0  0  0  0  0
   11.2700   12.7480   -1.8670 C   0  0  0  0  0  0  0  0  0  0  0  0
   11.4300   13.7750   -3.0040 C   0  0  0  0  0  0  0  0  0  0  0  0
   10.5470   13.3820   -4.1970 C   0  0  0  0  0  0  0  0  0  0  0  0
    9.1330   13.0730   -3.6800 C   0  0  0  0  0  0  0  0  0  0  0  0
    8.5310   14.3260   -3.0250 C   0  0  0  0  0  0  0  0  0  0  0  0
    7.5730   13.8930   -1.9020 C   0  0  0  0  0  0  0  0  0  0  0  0
    7.7970   12.4090   -1.5750 C   0  0  0  0  0  0  0  0  0  0  0  0
    6.4470   11.6710   -1.6170 C   0  0  0  0  0  0  0  0  0  0  0  0
    6.5380   10.3860   -0.7750 C   0  0  0  0  0  0  0  0  0  0  0  0
  1 16  1  0  0  0  0
  1  2  2  0  0  0  0
  3  2  1  0  0  0  0
  3 12  1  1  0  0  0
  4  7  1  6  0  0  0
  4  3  1  0  0  0  0
  5 19  1  6  0  0  0
  5  6  1  0  0  0  0
  5  4  1  0  0  0  0
  6  1  1  0  0  0  0
  8  7  1  0  0  0  0
  9  7  1  0  0  0  0
  9 11  1  0  0  0  0
 10  9  2  0  0  0  0
 12 14  1  0  0  0  0
 13 12  1  0  0  0  0
 15 12  1  0  0  0  0
 16 18  2  0  0  0  0
 16 17  1  0  0  0  0
 20 19  2  0  0  0  0
 21 22  1  0  0  0  0
 21 19  1  0  0  0  0
 22 23  1  0  0  0  0
 24 23  1  0  0  0  0
 25 21  1  0  0  0  0
 26 25  1  0  0  0  0
 27 28  1  0  0  0  0
 27 26  1  0  0  0  0
 28 29  1  0  0  0  0
 29 30  1  0  0  0  0
 30 31  1  0  0  0  0
 32 31  1  0  0  0  0
 32 33  1  0  0  0  0
M  END
>  <MODEL>
1

>  <REMARK>
 VINA RESULT:      -4.8      0.000      0.000
  Name = BDB4948
                            x       y       z     vdW  Elec       q    Type
                         _______ _______ _______ _____ _____    ______ ____

>  <TORSDO>
F 14

>  <vina_score>
-4.8

$$$$
BDB4968
 OpenBabel01091714593D

 34 35  0  0  1  0  0  0  0  0999 V2000
    7.4570   12.4070   -1.4180 C   0  0  0  0  0  0  0  0  0  0  0  0
    7.8040   12.7520   -2.6630 C   0  0  0  0  0  0  0  0  0  0  0  0
    8.7200   13.8920   -2.9230 C   0  0  1  0  0  0  0  0  0  0  0  0
    9.6240   14.0770   -1.7170 C   0  0  2  0  0  0  0  0  0  0  0  0
    8.6960   14.2880   -0.5360 C   0  0  1  0  0  0  0  0  0  0  0  0
    7.9210   13.0980   -0.2670 O   0  0  0  0  0  0  0  0  0  0  0  0
   10.4430   15.2780   -1.9260 N   0  0  0  0  0  0  0  0  0  0  0  0
    9.9770   16.0830   -2.2510 H   0  0  0  0  0  0  0  0  0  0  0  0
   11.8590   15.3960   -1.7040 C   0  0  0  0  0  0  0  0  0  0  0  0
   12.3990   16.4840   -1.9310 O   0  0  0  0  0  0  0  0  0  0  0  0
   12.7240   14.2540   -1.2060 C   0  0  0  0  0  0  0  0  0  0  0  0
    9.5200   13.6450   -4.1310 N   0  0  0  0  0  0  0  0  0  0  0  0
    9.6550   14.5220   -4.6340 H   0  0  0  0  0  0  0  0  0  0  0  0
   10.4270   13.2630   -3.8660 H   0  0  0  0  0  0  0  0  0  0  0  0
    9.0320   12.9800   -4.7320 H   0  0  0  0  0  0  0  0  0  0  0  0
    6.5900   11.2410   -1.2310 C   0  0  0  0  0  0  0  0  0  0  0  0
    5.9010   11.0870   -0.0700 O   0  0  0  0  0  0  0  0  0  0  0  0
    6.4860   10.3980   -2.1290 O   0  0  0  0  0  0  0  0  0  0  0  0
    9.4960   14.6470    0.7150 C   0  0  0  0  0  0  0  0  0  0  0  0
    9.6920   15.8430    0.9540 O   0  0  0  0  0  0  0  0  0  0  0  0
   10.0510   13.6850    1.6120 N   0  0  0  0  0  0  0  0  0  0  0  0
    9.8880   12.2500    1.4310 C   0  0  0  0  0  0  0  0  0  0  0  0
   11.0210   11.6600    0.5570 C   0  0  0  0  0  0  0  0  0  0  0  0
   11.3200   10.2220    1.0190 C   0  0  0  0  0  0  0  0  0  0  0  0
   10.7740   14.1840    2.7600 C   0  0  0  0  0  0  0  0  0  0  0  0
   10.6440   13.2430    3.9760 C   0  0  0  0  0  0  0  0  0  0  0  0
   11.9160   12.4680    4.1620 C   0  0  0  0  0  0  0  0  0  0  0  0
   13.1380   13.1290    4.1240 C   0  0  0  0  0  0  0  0  0  0  0  0
   14.3190   12.4140    4.2890 C   0  0  0  0  0  0  0  0  0  0  0  0
   14.2760   11.0390    4.4930 C   0  0  0  0  0  0  0  0  0  0  0  0
   15.7330   10.1540    4.6980 Cl  0  0  0  0  0  0  0  0  0  0  0  0
   13.0540   10.3800    4.5300 C   0  0  0  0  0  0  0  0  0  0  0  0
   11.8740   11.0940    4.3650 C   0  0  0  0  0  0  0  0  0  0  0  0
   10.3640   10.2790    4.4120 Cl  0  0  0  0  0  0  0  0  0  0  0  0
  1 16  1  0  0  0  0
  1  6  1  0  0  0  0
  2  1  2  0  0  0  0
  3 12  1  6  0  0  0
  3  2  1  0  0  0  0
  3  4  1  0  0  0  0
  4  7  1  6  0  0  0
  4  5  1  0  0  0  0
  5  6  1  0  0  0  0
  5 19  1  1  0  0  0
  7  9  1  0  0  0  0
  8  7  1  0  0  0  0
  9 11  1  0  0  0  0
 10  9  2  0  0  0  0
 12 14  1  0  0  0  0
 13 12  1  0  0  0  0
 15 12  1  0  0  0  0
 16 17  1  0  0  0  0
 18 16  2  0  0  0  0
 19 20  2  0  0  0  0
 19 21  1  0  0  0  0
 21 25  1  0  0  0  0
 22 21  1  0  0  0  0
 23 24  1  0  0  0  0
 23 22  1  0  0  0  0
 25 26  1  0  0  0  0
 26 27  1  0  0  0  0
 27 33  1  0  0  0  0
 28 27  2  0  0  0  0
 28 29  1  0  0  0  0
 29 30  2  0  0  0  0
 30 32  1  0  0  0  0
 30 31  1  0  0  0  0
 33 34  1  0  0  0  0
 33 32  2  0  0  0  0
M  END
>  <MODEL>
1

>  <REMARK>
 VINA RESULT:      -3.5      0.000      0.000
  Name = BDB4968
                            x       y       z     vdW  Elec       q    Type
                         _______ _______ _______ _____ _____    ______ ____

>  <TORSDO>
F 9

>  <vina_score>
-3.5

$$$$
BDB4972
 OpenBabel01091715003D

 38 40  0  0  1  0  0  0  0  0999 V2000
    7.9990   12.7550    1.0180 C   0  0  0  0  0  0  0  0  0  0  0  0
    7.9870   13.3210    2.1170 O   0  0  0  0  0  0  0  0  0  0  0  0
    7.8310   11.3370    0.9930 N   0  0  0  0  0  0  0  0  0  0  0  0
    8.9580   13.3440   -2.5150 C   0  0  0  0  0  0  0  0  0  0  0  0
    9.4680   14.5800   -2.5040 C   0  0  0  0  0  0  0  0  0  0  0  0
    9.4440   15.4160   -1.2760 C   0  0  1  0  0  0  0  0  0  0  0  0
    9.4290   14.5020   -0.0630 C   0  0  2  0  0  0  0  0  0  0  0  0
    8.2100   13.6160   -0.2310 C   0  0  1  0  0  0  0  0  0  0  0  0
    8.3540   12.7470   -1.3760 O   0  0  0  0  0  0  0  0  0  0  0  0
    9.2830   15.3270    1.1430 N   0  0  0  0  0  0  0  0  0  0  0  0
    8.5720   16.0090    1.1310 H   0  0  0  0  0  0  0  0  0  0  0  0
   10.0730   15.2380    2.3410 C   0  0  0  0  0  0  0  0  0  0  0  0
    9.8180   16.0120    3.2700 O   0  0  0  0  0  0  0  0  0  0  0  0
   11.2040   14.2440    2.5230 C   0  0  0  0  0  0  0  0  0  0  0  0
   10.6130   16.3050   -1.2340 N   0  0  0  0  0  0  0  0  0  0  0  0
   11.4240   15.8180   -1.6180 H   0  0  0  0  0  0  0  0  0  0  0  0
   10.4260   17.1400   -1.7880 H   0  0  0  0  0  0  0  0  0  0  0  0
   10.8040   16.5720   -0.2680 H   0  0  0  0  0  0  0  0  0  0  0  0
    9.0590   12.5560   -3.7460 C   0  0  0  0  0  0  0  0  0  0  0  0
    8.1140   11.6250   -4.0360 O   0  0  0  0  0  0  0  0  0  0  0  0
   10.0070   12.7380   -4.5190 O   0  0  0  0  0  0  0  0  0  0  0  0
    7.9150   10.5560   -0.2250 C   0  0  0  0  0  0  0  0  0  0  0  0
    6.5460   10.5280   -0.9460 C   0  0  0  0  0  0  0  0  0  0  0  0
    5.4440   10.1700    0.0680 C   0  0  0  0  0  0  0  0  0  0  0  0
    7.5830   10.6660    2.2480 C   0  0  0  0  0  0  0  0  0  0  0  0
    8.6100   11.0900    3.3190 C   0  0  0  0  0  0  0  0  0  0  0  0
   10.0020   10.9090    2.7890 C   0  0  0  0  0  0  0  0  0  0  0  0
   10.1940   10.5140    1.4700 C   0  0  0  0  0  0  0  0  0  0  0  0
   11.4830   10.3510    0.9750 C   0  0  0  0  0  0  0  0  0  0  0  0
   12.5770   10.5830    1.7980 C   0  0  0  0  0  0  0  0  0  0  0  0
   12.3840   10.9780    3.1170 C   0  0  0  0  0  0  0  0  0  0  0  0
   11.0960   11.1410    3.6120 C   0  0  0  0  0  0  0  0  0  0  0  0
   13.5400   11.2230    3.9850 C   0  0  0  0  0  0  0  0  0  0  0  0
   13.9430   12.5270    4.2570 C   0  0  0  0  0  0  0  0  0  0  0  0
   15.0380   12.7590    5.0790 C   0  0  0  0  0  0  0  0  0  0  0  0
   15.7330   11.6870    5.6300 C   0  0  0  0  0  0  0  0  0  0  0  0
   15.3310   10.3860    5.3590 C   0  0  0  0  0  0  0  0  0  0  0  0
   14.2350   10.1540    4.5350 C   0  0  0  0  0  0  0  0  0  0  0  0
  1  2  2  0  0  0  0
  3  1  1  0  0  0  0
  3 25  1  0  0  0  0
  4  5  2  0  0  0  0
  4  9  1  0  0  0  0
  5  6  1  0  0  0  0
  6 15  1  1  0  0  0
  6  7  1  0  0  0  0
  7 10  1  1  0  0  0
  8  7  1  0  0  0  0
  8  1  1  1  0  0  0
  9  8  1  0  0  0  0
 10 12  1  0  0  0  0
 11 10  1  0  0  0  0
 12 14  1  0  0  0  0
 12 13  2  0  0  0  0
 15 18  1  0  0  0  0
 16 15  1  0  0  0  0
 17 15  1  0  0  0  0
 19  4  1  0  0  0  0
 20 19  1  0  0  0  0
 21 19  2  0  0  0  0
 22  3  1  0  0  0  0
 23 22  1  0  0  0  0
 23 24  1  0  0  0  0
 25 26  1  0  0  0  0
 27 26  1  0  0  0  0
 27 32  2  0  0  0  0
 28 27  1  0  0  0  0
 29 28  2  0  0  0  0
 29 30  1  0  0  0  0
 30 31  2  0  0  0  0
 31 32  1  0  0  0  0
 31 33  1  0  0  0  0
 33 34  2  0  0  0  0
 33 38  1  0  0  0  0
 34 35  1  0  0  0  0
 35 36  2  0  0  0  0
 37 36  1  0  0  0  0
 38 37  2  0  0  0  0
M  END
>  <MODEL>
1

>  <REMARK>
 VINA RESULT:      -3.1      0.000      0.000
  Name = BDB4972
                            x       y       z     vdW  Elec       q    Type
                         _______ _______ _______ _____ _____    ______ ____

>  <TORSDO>
F 10

>  <vina_score>
-3.1

$$$$
