BDB4946
      BALL 1.4.0 (Jan  4 2012, 23:22:29)

 60 61  0999  0  0  0  0  0  0999 V2000
    9.8823    9.2340    3.1603 C   0  0  0  0  0  0  0  0  0  0  0  0
    7.4187   10.3527    2.6554 C   0  0  0  0  0  0  0  0  0  0  0  0
    8.6103   10.9415    1.9215 C   0  0  0  0  0  0  0  0  0  0  0  0
    9.8568   10.4167    2.5367 C   0  0  0  0  0  0  0  0  0  0  0  0
    8.7411    8.3943    3.2709 O   0  0  0  0  0  0  0  0  0  0  0  0
   11.1319    8.8004    3.7873 C   0  0  0  0  0  0  0  0  0  0  0  0
   11.3086    7.6060    4.0534 O   0  0  0  0  0  0  0  0  0  0  0  0
   12.0978    9.7108    4.0768 O   0  5  0  0  0  0  0  0  0  0  0  0
    6.3394    8.1421    3.1186 C   0  0  0  0  0  0  0  0  0  0  0  0
    6.0195    8.3844    4.2876 O   0  0  0  0  0  0  0  0  0  0  0  0
    7.5734    8.8477    2.5507 C   0  0  0  0  0  0  0  0  0  0  0  0
    5.5443    7.2065    2.3877 N   0  0  0  0  0  0  0  0  0  0  0  0
    6.1902   10.7756    1.9694 N   0  0  0  0  0  0  0  0  0  0  0  0
    5.8595   10.5417    0.5895 C   0  0  0  0  0  0  0  0  0  0  0  0
    6.7669    9.8018   -0.3740 C   0  0  0  0  0  0  0  0  0  0  0  0
    4.7787   10.9663    0.1666 O   0  0  0  0  0  0  0  0  0  0  0  0
    8.5813   12.3900    1.9891 N   0  0  0  0  0  0  0  0  0  0  0  0
    8.8191   13.1042    3.1857 C   0  0  0  0  0  0  0  0  0  0  0  0
    7.8827   13.2198    4.0366 N   0  3  0  0  0  0  0  0  0  0  0  0
   10.0645   13.6873    3.4541 N   0  0  0  0  0  0  0  0  0  0  0  0
    5.6755    7.1890    0.9500 C   0  0  0  0  0  0  0  0  0  0  0  0
    4.6137    6.2982    3.0284 C   0  0  0  0  0  0  0  0  0  0  0  0
    3.3438    7.0555    3.4846 C   0  0  0  0  0  0  0  0  0  0  0  0
    3.6905    7.9535    4.6850 C   0  0  0  0  0  0  0  0  0  0  0  0
    4.4391    6.5467    0.2854 C   0  0  0  0  0  0  0  0  0  0  0  0
    4.6006    6.5556   -1.2061 C   0  0  0  0  0  0  0  0  0  0  0  0
    5.8500    6.7950   -1.7670 C   0  0  0  0  0  0  0  0  0  0  0  0
    6.0019    6.7972   -3.1480 C   0  0  0  0  0  0  0  0  0  0  0  0
    4.9047    6.5601   -3.9683 C   0  0  0  0  0  0  0  0  0  0  0  0
    3.6564    6.3208   -3.4076 C   0  0  0  0  0  0  0  0  0  0  0  0
    3.5043    6.3185   -2.0253 C   0  0  0  0  0  0  0  0  0  0  0  0
    7.3667   10.6787    3.7047 H   0  0  0  0  0  0  0  0  0  0  0  0
    8.5721   10.6520    0.8609 H   0  0  0  0  0  0  0  0  0  0  0  0
   10.7786   11.0140    2.4779 H   0  0  0  0  0  0  0  0  0  0  0  0
    7.6870    8.6005    1.4849 H   0  0  0  0  0  0  0  0  0  0  0  0
    5.4977   11.2901    2.5321 H   0  0  0  0  0  0  0  0  0  0  0  0
    6.7473   10.4298   -1.2769 H   0  0  0  0  0  0  0  0  0  0  0  0
    6.1945    8.8949   -0.6186 H   0  0  0  0  0  0  0  0  0  0  0  0
    7.7824    9.5940   -0.0058 H   0  0  0  0  0  0  0  0  0  0  0  0
    8.3789   12.9204    1.1296 H   0  0  0  0  0  0  0  0  0  0  0  0
    6.9593   12.7992    3.8596 H   0  0  0  0  0  0  0  0  0  0  0  0
    8.0505   13.7392    4.9101 H   0  0  0  0  0  0  0  0  0  0  0  0
   10.8620   13.4626    2.8421 H   0  0  0  0  0  0  0  0  0  0  0  0
   10.1842   14.3305    4.2495 H   0  0  0  0  0  0  0  0  0  0  0  0
    6.5732    6.6162    0.6743 H   0  0  0  0  0  0  0  0  0  0  0  0
    5.7885    8.2203    0.5843 H   0  0  0  0  0  0  0  0  0  0  0  0
    5.0966    5.8382    3.9031 H   0  0  0  0  0  0  0  0  0  0  0  0
    4.3302    5.5072    2.3185 H   0  0  0  0  0  0  0  0  0  0  0  0
    2.5698    6.3319    3.7799 H   0  0  0  0  0  0  0  0  0  0  0  0
    2.9702    7.6772    2.6577 H   0  0  0  0  0  0  0  0  0  0  0  0
    3.5446    7.3924    5.6199 H   0  0  0  0  0  0  0  0  0  0  0  0
    3.0385    8.8394    4.6836 H   0  0  0  0  0  0  0  0  0  0  0  0
    4.7404    8.2734    4.6118 H   0  0  0  0  0  0  0  0  0  0  0  0
    3.5384    7.1162    0.5584 H   0  0  0  0  0  0  0  0  0  0  0  0
    4.3333    5.5091    0.6352 H   0  0  0  0  0  0  0  0  0  0  0  0
    6.7179    6.9826   -1.1177 H   0  0  0  0  0  0  0  0  0  0  0  0
    6.9902    6.9866   -3.5922 H   0  0  0  0  0  0  0  0  0  0  0  0
    5.0251    6.5618   -5.0616 H   0  0  0  0  0  0  0  0  0  0  0  0
    2.7884    6.1332   -4.0568 H   0  0  0  0  0  0  0  0  0  0  0  0
    2.5161    6.1292   -1.5809 H   0  0  0  0  0  0  0  0  0  0  0  0
  1  5  1  0  0  0  0
  1  4  2  0  0  0  0
  1  6  1  0  0  0  0
  2 11  1  0  0  0  0
  2  3  1  0  0  0  0
  2 13  1  0  0  0  0
  2 32  1  0  0  0  0
  3  4  1  0  0  0  0
  3 17  1  0  0  0  0
  3 33  1  0  0  0  0
  4 34  1  0  0  0  0
  5 11  1  0  0  0  0
  6  7  2  0  0  0  0
  6  8  1  0  0  0  0
  9 11  1  0  0  0  0
  9 12  1  0  0  0  0
  9 10  2  0  0  0  0
 11 35  1  0  0  0  0
 12 21  1  0  0  0  0
 12 22  1  0  0  0  0
 13 14  1  0  0  0  0
 13 36  1  0  0  0  0
 14 15  1  0  0  0  0
 14 16  2  0  0  0  0
 15 37  1  0  0  0  0
 15 38  1  0  0  0  0
 15 39  1  0  0  0  0
 17 18  1  0  0  0  0
 17 40  1  0  0  0  0
 18 20  1  0  0  0  0
 18 19  2  0  0  0  0
 19 41  1  0  0  0  0
 19 42  1  0  0  0  0
 20 43  1  0  0  0  0
 20 44  1  0  0  0  0
 21 25  1  0  0  0  0
 21 45  1  0  0  0  0
 21 46  1  0  0  0  0
 22 23  1  0  0  0  0
 22 47  1  0  0  0  0
 22 48  1  0  0  0  0
 23 24  1  0  0  0  0
 23 49  1  0  0  0  0
 23 50  1  0  0  0  0
 24 51  1  0  0  0  0
 24 52  1  0  0  0  0
 24 53  1  0  0  0  0
 25 26  1  0  0  0  0
 25 54  1  0  0  0  0
 25 55  1  0  0  0  0
 26 31  2  0  0  0  0
 26 27  1  0  0  0  0
 27 28  2  0  0  0  0
 27 56  1  0  0  0  0
 28 29  1  0  0  0  0
 28 57  1  0  0  0  0
 29 30  2  0  0  0  0
 29 58  1  0  0  0  0
 30 31  1  0  0  0  0
 30 59  1  0  0  0  0
 31 60  1  0  0  0  0
M  END
> <Name>
BDB4946

> <Target>
Neuraminidase A

> <IC50_in_nM>
5

> <Kd_from_ITC>
false

> <source_organism>
Influenza A virus (A/Singapore/1/57(H2N2))

> <SourceTag>
NA

> <atoms in reference ligand area>
19

> <score>
-45.7929

$$$$
BDB4932
      BALL 1.4.0 (Jan  4 2012, 23:22:29)

 41 41  0999  0  0  0  0  0  0999 V2000
    7.2826   10.9687    0.8655 C   0  0  0  0  0  0  0  0  0  0  0  0
    9.5079   12.5869    0.7916 C   0  0  0  0  0  0  0  0  0  0  0  0
    9.4258   11.5732    1.9190 C   0  0  0  0  0  0  0  0  0  0  0  0
    8.0491   11.0157    1.9603 C   0  0  0  0  0  0  0  0  0  0  0  0
    7.7217   11.4293   -0.4052 O   0  0  0  0  0  0  0  0  0  0  0  0
    5.9184   10.4526    0.9881 C   0  0  0  0  0  0  0  0  0  0  0  0
    5.3720   10.4054    2.0961 O   0  0  0  0  0  0  0  0  0  0  0  0
    5.2524   10.0252   -0.1163 O   0  5  0  0  0  0  0  0  0  0  0  0
    9.3073   12.7186   -1.6987 C   0  0  0  0  0  0  0  0  0  0  0  0
   10.3971   12.6774   -2.2767 O   0  0  0  0  0  0  0  0  0  0  0  0
    9.1062   11.8387   -0.4648 C   0  0  0  0  0  0  0  0  0  0  0  0
    8.3001   13.5924   -2.2093 N   0  0  0  0  0  0  0  0  0  0  0  0
   10.8988   13.0456    0.6744 N   0  0  0  0  0  0  0  0  0  0  0  0
   11.3523   14.2307   -0.0026 C   0  0  0  0  0  0  0  0  0  0  0  0
   10.4226   15.1973   -0.7098 C   0  0  0  0  0  0  0  0  0  0  0  0
   12.5640   14.4739   -0.0081 O   0  0  0  0  0  0  0  0  0  0  0  0
    6.9753   13.5048   -1.6664 C   0  0  0  0  0  0  0  0  0  0  0  0
    9.7597   12.1963    3.1854 N   0  0  0  0  0  0  0  0  0  0  0  0
   10.3030   13.4982    3.2770 C   0  0  0  0  0  0  0  0  0  0  0  0
   11.5645   13.6477    3.2554 N   0  3  0  0  0  0  0  0  0  0  0  0
    9.4811   14.6272    3.3911 N   0  0  0  0  0  0  0  0  0  0  0  0
    8.5561   14.5444   -3.2630 C   0  0  0  0  0  0  0  0  0  0  0  0
    8.8617   13.4606    0.9622 H   0  0  0  0  0  0  0  0  0  0  0  0
   10.1471   10.7620    1.7410 H   0  0  0  0  0  0  0  0  0  0  0  0
    7.6519   10.6334    2.9121 H   0  0  0  0  0  0  0  0  0  0  0  0
    9.7445   10.9457   -0.5361 H   0  0  0  0  0  0  0  0  0  0  0  0
   11.6198   12.4612    1.1209 H   0  0  0  0  0  0  0  0  0  0  0  0
   11.0699   15.6692   -1.4637 H   0  0  0  0  0  0  0  0  0  0  0  0
   10.2269   15.9668    0.0515 H   0  0  0  0  0  0  0  0  0  0  0  0
    9.5082   14.7546   -1.1316 H   0  0  0  0  0  0  0  0  0  0  0  0
    6.3012   13.4923   -2.5355 H   0  0  0  0  0  0  0  0  0  0  0  0
    6.8106   14.4549   -1.1371 H   0  0  0  0  0  0  0  0  0  0  0  0
    6.8232   12.6341   -1.0116 H   0  0  0  0  0  0  0  0  0  0  0  0
    9.5942   11.6683    4.0542 H   0  0  0  0  0  0  0  0  0  0  0  0
   12.1873   12.8316    3.1722 H   0  0  0  0  0  0  0  0  0  0  0  0
   11.9657   14.5940    3.3218 H   0  0  0  0  0  0  0  0  0  0  0  0
    9.3394   15.0482    4.3203 H   0  0  0  0  0  0  0  0  0  0  0  0
    9.0247   15.0321    2.5613 H   0  0  0  0  0  0  0  0  0  0  0  0
    7.6158   15.1103   -3.3376 H   0  0  0  0  0  0  0  0  0  0  0  0
    8.6159   13.9223   -4.1682 H   0  0  0  0  0  0  0  0  0  0  0  0
    9.4379   15.1859   -3.1186 H   0  0  0  0  0  0  0  0  0  0  0  0
  1  5  1  0  0  0  0
  1  4  2  0  0  0  0
  1  6  1  0  0  0  0
  2 11  1  0  0  0  0
  2  3  1  0  0  0  0
  2 13  1  0  0  0  0
  2 23  1  0  0  0  0
  3  4  1  0  0  0  0
  3 18  1  0  0  0  0
  3 24  1  0  0  0  0
  4 25  1  0  0  0  0
  5 11  1  0  0  0  0
  6  7  2  0  0  0  0
  6  8  1  0  0  0  0
  9 11  1  0  0  0  0
  9 12  1  0  0  0  0
  9 10  2  0  0  0  0
 11 26  1  0  0  0  0
 12 17  1  0  0  0  0
 12 22  1  0  0  0  0
 13 14  1  0  0  0  0
 13 27  1  0  0  0  0
 14 15  1  0  0  0  0
 14 16  2  0  0  0  0
 15 28  1  0  0  0  0
 15 29  1  0  0  0  0
 15 30  1  0  0  0  0
 17 31  1  0  0  0  0
 17 32  1  0  0  0  0
 17 33  1  0  0  0  0
 18 19  1  0  0  0  0
 18 34  1  0  0  0  0
 19 21  1  0  0  0  0
 19 20  2  0  0  0  0
 20 35  1  0  0  0  0
 20 36  1  0  0  0  0
 21 37  1  0  0  0  0
 21 38  1  0  0  0  0
 22 39  1  0  0  0  0
 22 40  1  0  0  0  0
 22 41  1  0  0  0  0
M  END
> <Name>
BDB4932

> <Target>
Neuraminidase A

> <IC50_in_nM>
25

> <Kd_from_ITC>
false

> <source_organism>
Influenza A virus (A/Singapore/1/57(H2N2))

> <SourceTag>
NA

> <atoms in reference ligand area>
32

> <score>
-40.6054

$$$$
BDB4934
      BALL 1.4.0 (Jan  4 2012, 23:22:29)

 43 43  0999  0  0  0  0  0  0999 V2000
    8.6863   10.7058    2.6414 C   0  0  0  0  0  0  0  0  0  0  0  0
    8.9121   10.0810    4.0048 C   0  0  0  0  0  0  0  0  0  0  0  0
   10.3700   10.0719    4.2858 C   0  0  0  0  0  0  0  0  0  0  0  0
   11.1902   10.9789    3.7449 C   0  0  0  0  0  0  0  0  0  0  0  0
   12.6225   10.8858    4.0320 C   0  0  0  0  0  0  0  0  0  0  0  0
   13.1368    9.7856    4.2631 O   0  0  0  0  0  0  0  0  0  0  0  0
   13.3868   12.0090    4.0443 O   0  5  0  0  0  0  0  0  0  0  0  0
   10.7383   12.0138    2.8810 O   0  0  0  0  0  0  0  0  0  0  0  0
    7.6986    8.2045    5.1563 C   0  0  0  0  0  0  0  0  0  0  0  0
    8.3818    8.7313    4.0363 N   0  0  0  0  0  0  0  0  0  0  0  0
    6.9408    7.1962    5.0036 N   0  3  0  0  0  0  0  0  0  0  0  0
    7.8386    8.7696    6.4306 N   0  0  0  0  0  0  0  0  0  0  0  0
    7.2399   10.8187    2.4088 N   0  0  0  0  0  0  0  0  0  0  0  0
    6.5780   10.8132    1.1320 C   0  0  0  0  0  0  0  0  0  0  0  0
    7.3108   10.6856   -0.1892 C   0  0  0  0  0  0  0  0  0  0  0  0
    5.3468   10.9180    1.1109 O   0  0  0  0  0  0  0  0  0  0  0  0
    9.0016   12.8729    1.4097 C   0  0  0  0  0  0  0  0  0  0  0  0
    9.7558   12.3088    0.3343 O   0  0  0  0  0  0  0  0  0  0  0  0
    9.3885   14.3593    1.5744 C   0  0  0  0  0  0  0  0  0  0  0  0
    9.2115   14.7685    3.0470 C   0  0  0  0  0  0  0  0  0  0  0  0
   10.7521   14.5576    1.1936 O   0  0  0  0  0  0  0  0  0  0  0  0
    9.5696   16.1433    3.2051 O   0  0  0  0  0  0  0  0  0  0  0  0
    9.3053   12.0902    2.7061 C   0  0  0  0  0  0  0  0  0  0  0  0
    9.1290   10.1086    1.8306 H   0  0  0  0  0  0  0  0  0  0  0  0
    8.3894   10.6677    4.7745 H   0  0  0  0  0  0  0  0  0  0  0  0
   10.7845    9.3023    4.9536 H   0  0  0  0  0  0  0  0  0  0  0  0
    8.5084    8.1318    3.2084 H   0  0  0  0  0  0  0  0  0  0  0  0
    6.8232    6.7649    4.0756 H   0  0  0  0  0  0  0  0  0  0  0  0
    6.4406    6.8082    5.8160 H   0  0  0  0  0  0  0  0  0  0  0  0
    7.5946    8.2038    7.2560 H   0  0  0  0  0  0  0  0  0  0  0  0
    8.1797    9.7348    6.5438 H   0  0  0  0  0  0  0  0  0  0  0  0
    6.6413   10.9109    3.2419 H   0  0  0  0  0  0  0  0  0  0  0  0
    7.1279   11.6542   -0.6774 H   0  0  0  0  0  0  0  0  0  0  0  0
    6.7135    9.9456   -0.7421 H   0  0  0  0  0  0  0  0  0  0  0  0
    8.3769   10.4243   -0.1180 H   0  0  0  0  0  0  0  0  0  0  0  0
    7.9248   12.8056    1.1958 H   0  0  0  0  0  0  0  0  0  0  0  0
    9.8939   11.3417    0.4950 H   0  0  0  0  0  0  0  0  0  0  0  0
    8.7408   14.9731    0.9313 H   0  0  0  0  0  0  0  0  0  0  0  0
    8.1617   14.6271    3.3434 H   0  0  0  0  0  0  0  0  0  0  0  0
    9.8591   14.1462    3.6821 H   0  0  0  0  0  0  0  0  0  0  0  0
   11.1762   15.1957    1.8207 H   0  0  0  0  0  0  0  0  0  0  0  0
   10.0693   16.2601    4.0518 H   0  0  0  0  0  0  0  0  0  0  0  0
    8.8661   12.6105    3.5700 H   0  0  0  0  0  0  0  0  0  0  0  0
  1 23  1  0  0  0  0
  1  2  1  0  0  0  0
  1 13  1  0  0  0  0
  1 24  1  0  0  0  0
  2  3  1  0  0  0  0
  2 10  1  0  0  0  0
  2 25  1  0  0  0  0
  3  4  2  0  0  0  0
  3 26  1  0  0  0  0
  4  8  1  0  0  0  0
  4  5  1  0  0  0  0
  5  6  2  0  0  0  0
  5  7  1  0  0  0  0
  8 23  1  0  0  0  0
  9 10  1  0  0  0  0
  9 12  1  0  0  0  0
  9 11  2  0  0  0  0
 10 27  1  0  0  0  0
 11 28  1  0  0  0  0
 11 29  1  0  0  0  0
 12 30  1  0  0  0  0
 12 31  1  0  0  0  0
 13 14  1  0  0  0  0
 13 32  1  0  0  0  0
 14 15  1  0  0  0  0
 14 16  2  0  0  0  0
 15 33  1  0  0  0  0
 15 34  1  0  0  0  0
 15 35  1  0  0  0  0
 17 23  1  0  0  0  0
 17 19  1  0  0  0  0
 17 18  1  0  0  0  0
 17 36  1  0  0  0  0
 18 37  1  0  0  0  0
 19 20  1  0  0  0  0
 19 21  1  0  0  0  0
 19 38  1  0  0  0  0
 20 22  1  0  0  0  0
 20 39  1  0  0  0  0
 20 40  1  0  0  0  0
 21 41  1  0  0  0  0
 22 42  1  0  0  0  0
 23 43  1  0  0  0  0
M  END
> <Name>
BDB4934

> <Target>
Neuraminidase A

> <Ki_in_nM>
1

> <IC50_in_nM>
2

> <Kd_from_ITC>
false

> <source_organism>
Influenza A virus (A/Singapore/1/57(H2N2))

> <SourceTag>
NA

> <atoms in reference ligand area>
21

> <score>
-39.6558

$$$$
BDB5023
      BALL 1.4.0 (Jan  4 2012, 23:22:29)

 50 50  0999  0  0  0  0  0  0999 V2000
    7.5916   11.6255    2.2666 C   0  0  0  0  0  0  0  0  0  0  0  0
    8.4726    9.4350    2.9336 C   0  0  0  0  0  0  0  0  0  0  0  0
    8.9361   10.8732    2.5691 C   0  0  0  0  0  0  0  0  0  0  0  0
    9.6750   10.7737    1.2629 C   0  0  0  0  0  0  0  0  0  0  0  0
    9.1400   11.1643    0.2194 O   0  0  0  0  0  0  0  0  0  0  0  0
   10.9295   10.2547    1.2308 O   0  5  0  0  0  0  0  0  0  0  0  0
    6.5232   10.5262    2.4092 C   0  0  0  0  0  0  0  0  0  0  0  0
    7.2694    9.2764    2.0140 C   0  0  0  0  0  0  0  0  0  0  0  0
    6.4429    7.9825    2.3399 C   0  0  0  0  0  0  0  0  0  0  0  0
    5.3319    8.3084    3.1948 N   0  0  0  0  0  0  0  0  0  0  0  0
    5.4986    8.4730    4.5813 C   0  0  0  0  0  0  0  0  0  0  0  0
    6.8630    8.3656    5.2097 C   0  0  0  0  0  0  0  0  0  0  0  0
    4.5184    8.7202    5.2884 O   0  0  0  0  0  0  0  0  0  0  0  0
    6.6630    7.7110   -0.1874 C   0  0  0  0  0  0  0  0  0  0  0  0
    5.9254    7.2035   -1.4435 C   0  0  0  0  0  0  0  0  0  0  0  0
    5.3437   10.7816    1.6073 N   0  0  0  0  0  0  0  0  0  0  0  0
    5.3940   10.9451    0.2040 C   0  0  0  0  0  0  0  0  0  0  0  0
    4.3341   10.7847   -0.4783 N   0  3  0  0  0  0  0  0  0  0  0  0
    6.5862   11.2800   -0.4511 N   0  0  0  0  0  0  0  0  0  0  0  0
    6.0146    7.1116    1.0771 C   0  0  0  0  0  0  0  0  0  0  0  0
    4.4794    6.9557    0.8429 C   0  0  0  0  0  0  0  0  0  0  0  0
    4.1486    5.6834    0.0330 C   0  0  0  0  0  0  0  0  0  0  0  0
    7.5998   12.0169    1.2386 H   0  0  0  0  0  0  0  0  0  0  0  0
    7.4254   12.4176    3.0116 H   0  0  0  0  0  0  0  0  0  0  0  0
    9.2539    8.7043    2.6773 H   0  0  0  0  0  0  0  0  0  0  0  0
    8.1612    9.3881    3.9875 H   0  0  0  0  0  0  0  0  0  0  0  0
    9.5559   11.3519    3.3417 H   0  0  0  0  0  0  0  0  0  0  0  0
    6.1044   10.4570    3.4239 H   0  0  0  0  0  0  0  0  0  0  0  0
    7.4999    9.1685    0.9439 H   0  0  0  0  0  0  0  0  0  0  0  0
    7.1269    7.3120    2.8807 H   0  0  0  0  0  0  0  0  0  0  0  0
    4.3951    8.4235    2.7824 H   0  0  0  0  0  0  0  0  0  0  0  0
    6.6854    7.8825    6.1818 H   0  0  0  0  0  0  0  0  0  0  0  0
    7.1574    9.4049    5.4168 H   0  0  0  0  0  0  0  0  0  0  0  0
    7.6019    7.8286    4.5968 H   0  0  0  0  0  0  0  0  0  0  0  0
    6.6007    8.8085   -0.1456 H   0  0  0  0  0  0  0  0  0  0  0  0
    7.7193    7.4081   -0.2370 H   0  0  0  0  0  0  0  0  0  0  0  0
    5.8352    6.1082   -1.3963 H   0  0  0  0  0  0  0  0  0  0  0  0
    6.4967    7.4840   -2.3407 H   0  0  0  0  0  0  0  0  0  0  0  0
    4.9226    7.6532   -1.4909 H   0  0  0  0  0  0  0  0  0  0  0  0
    4.4306   10.8470    2.0794 H   0  0  0  0  0  0  0  0  0  0  0  0
    3.4466   10.5384   -0.0173 H   0  0  0  0  0  0  0  0  0  0  0  0
    4.3650   10.9026   -1.5010 H   0  0  0  0  0  0  0  0  0  0  0  0
    6.8164   12.2745   -0.5889 H   0  0  0  0  0  0  0  0  0  0  0  0
    7.2245   10.5464   -0.7906 H   0  0  0  0  0  0  0  0  0  0  0  0
    6.3729    6.0942    1.2925 H   0  0  0  0  0  0  0  0  0  0  0  0
    4.1050    7.8357    0.2995 H   0  0  0  0  0  0  0  0  0  0  0  0
    3.9691    6.9058    1.8161 H   0  0  0  0  0  0  0  0  0  0  0  0
    5.0647    5.0817   -0.0600 H   0  0  0  0  0  0  0  0  0  0  0  0
    3.8179    5.9861   -0.9714 H   0  0  0  0  0  0  0  0  0  0  0  0
    3.3606    5.1010    0.5330 H   0  0  0  0  0  0  0  0  0  0  0  0
  1  7  1  0  0  0  0
  1  3  1  0  0  0  0
  1 23  1  0  0  0  0
  1 24  1  0  0  0  0
  2  8  1  0  0  0  0
  2  3  1  0  0  0  0
  2 25  1  0  0  0  0
  2 26  1  0  0  0  0
  3  4  1  0  0  0  0
  3 27  1  0  0  0  0
  4  6  1  0  0  0  0
  4  5  2  0  0  0  0
  7  8  1  0  0  0  0
  7 16  1  0  0  0  0
  7 28  1  0  0  0  0
  8  9  1  0  0  0  0
  8 29  1  0  0  0  0
  9 10  1  0  0  0  0
  9 20  1  0  0  0  0
  9 30  1  0  0  0  0
 10 11  1  0  0  0  0
 10 31  1  0  0  0  0
 11 12  1  0  0  0  0
 11 13  2  0  0  0  0
 12 32  1  0  0  0  0
 12 33  1  0  0  0  0
 12 34  1  0  0  0  0
 14 20  1  0  0  0  0
 14 15  1  0  0  0  0
 14 35  1  0  0  0  0
 14 36  1  0  0  0  0
 15 37  1  0  0  0  0
 15 38  1  0  0  0  0
 15 39  1  0  0  0  0
 16 17  1  0  0  0  0
 16 40  1  0  0  0  0
 17 18  2  0  0  0  0
 17 19  1  0  0  0  0
 18 41  1  0  0  0  0
 18 42  1  0  0  0  0
 19 43  1  0  0  0  0
 19 44  1  0  0  0  0
 20 21  1  0  0  0  0
 20 45  1  0  0  0  0
 21 22  1  0  0  0  0
 21 46  1  0  0  0  0
 21 47  1  0  0  0  0
 22 48  1  0  0  0  0
 22 49  1  0  0  0  0
 22 50  1  0  0  0  0
M  END
> <Name>
BDB5023

> <Target>
Neuraminidase A

> <IC50_in_nM>
1

> <Kd_from_ITC>
false

> <source_organism>
Influenza A virus (A/Singapore/1/57(H2N2))

> <SourceTag>
NA

> <atoms in reference ligand area>
14

> <score>
-37.6705

$$$$
BDB5244
      BALL 1.4.0 (Jan  4 2012, 23:22:29)

 48 48  0999  0  0  0  0  0  0999 V2000
    7.4932   12.0086    2.0523 C   0  0  0  0  0  0  0  0  0  0  0  0
    8.4673   12.5095    1.0055 C   0  0  0  0  0  0  0  0  0  0  0  0
    9.6979   13.0460    1.7240 C   0  0  0  0  0  0  0  0  0  0  0  0
   10.2211   11.9825    2.6500 C   0  0  0  0  0  0  0  0  0  0  0  0
    9.4587   11.0683    3.1129 N   0  0  0  0  0  0  0  0  0  0  0  0
    8.1412   10.9952    2.8328 N   0  0  0  0  0  0  0  0  0  0  0  0
   11.6312   12.0035    3.0365 C   0  0  0  0  0  0  0  0  0  0  0  0
   12.0172   12.7731    3.9234 O   0  0  0  0  0  0  0  0  0  0  0  0
   12.5164   11.1774    2.4210 O   0  5  0  0  0  0  0  0  0  0  0  0
    7.3853    9.9379    3.3505 C   0  0  0  0  0  0  0  0  0  0  0  0
    6.2097    9.7929    2.9965 O   0  0  0  0  0  0  0  0  0  0  0  0
    7.9906    8.9824    4.3412 C   0  0  0  0  0  0  0  0  0  0  0  0
    6.8970    8.0277    4.8757 C   0  0  0  0  0  0  0  0  0  0  0  0
    8.6148    9.7783    5.5070 C   0  0  0  0  0  0  0  0  0  0  0  0
   10.1543    9.7318    5.4089 C   0  0  0  0  0  0  0  0  0  0  0  0
    5.8782    8.8148    5.7276 C   0  0  0  0  0  0  0  0  0  0  0  0
    6.3019   11.4584    1.4100 N   0  0  0  0  0  0  0  0  0  0  0  0
    6.3153   10.4617    0.3886 C   0  0  0  0  0  0  0  0  0  0  0  0
    7.5949    9.8933   -0.1797 C   0  0  0  0  0  0  0  0  0  0  0  0
    5.2351   10.0524   -0.0548 O   0  0  0  0  0  0  0  0  0  0  0  0
    7.8579   13.5593    0.2115 N   0  0  0  0  0  0  0  0  0  0  0  0
    8.4552   14.0753   -0.9613 C   0  0  0  0  0  0  0  0  0  0  0  0
    8.4241   15.4446   -1.2561 N   0  0  0  0  0  0  0  0  0  0  0  0
    9.0329   13.2795   -1.7658 N   0  3  0  0  0  0  0  0  0  0  0  0
    7.1841   12.8414    2.7009 H   0  0  0  0  0  0  0  0  0  0  0  0
    8.7478   11.6894    0.3282 H   0  0  0  0  0  0  0  0  0  0  0  0
   10.4718   13.3045    0.9863 H   0  0  0  0  0  0  0  0  0  0  0  0
    9.4258   13.9387    2.3062 H   0  0  0  0  0  0  0  0  0  0  0  0
    8.7750    8.3883    3.8494 H   0  0  0  0  0  0  0  0  0  0  0  0
    7.3630    7.2465    5.4942 H   0  0  0  0  0  0  0  0  0  0  0  0
    6.3772    7.5566    4.0283 H   0  0  0  0  0  0  0  0  0  0  0  0
    8.2966    9.3380    6.4634 H   0  0  0  0  0  0  0  0  0  0  0  0
    8.2772   10.8241    5.4581 H   0  0  0  0  0  0  0  0  0  0  0  0
   10.4699    8.7228    5.1050 H   0  0  0  0  0  0  0  0  0  0  0  0
   10.5895    9.9694    6.3908 H   0  0  0  0  0  0  0  0  0  0  0  0
   10.5006   10.4651    4.6657 H   0  0  0  0  0  0  0  0  0  0  0  0
    5.5956    8.2130    6.6038 H   0  0  0  0  0  0  0  0  0  0  0  0
    4.9823    9.0212    5.1236 H   0  0  0  0  0  0  0  0  0  0  0  0
    6.3257    9.7632    6.0600 H   0  0  0  0  0  0  0  0  0  0  0  0
    5.3858   11.8159    1.7167 H   0  0  0  0  0  0  0  0  0  0  0  0
    7.8805   10.6164   -0.9579 H   0  0  0  0  0  0  0  0  0  0  0  0
    7.2676    8.9839   -0.7051 H   0  0  0  0  0  0  0  0  0  0  0  0
    8.3921    9.7078    0.5552 H   0  0  0  0  0  0  0  0  0  0  0  0
    6.9522   13.9448    0.5149 H   0  0  0  0  0  0  0  0  0  0  0  0
    7.9542   16.0849   -0.6001 H   0  0  0  0  0  0  0  0  0  0  0  0
    8.8628   15.8086   -2.1140 H   0  0  0  0  0  0  0  0  0  0  0  0
    9.0676   12.2691   -1.5688 H   0  0  0  0  0  0  0  0  0  0  0  0
    9.4697   13.6499   -2.6219 H   0  0  0  0  0  0  0  0  0  0  0  0
  1  6  1  0  0  0  0
  1  2  1  0  0  0  0
  1 17  1  0  0  0  0
  1 25  1  0  0  0  0
  2  3  1  0  0  0  0
  2 21  1  0  0  0  0
  2 26  1  0  0  0  0
  3  4  1  0  0  0  0
  3 27  1  0  0  0  0
  3 28  1  0  0  0  0
  4  5  2  0  0  0  0
  4  7  1  0  0  0  0
  5  6  1  0  0  0  0
  6 10  1  0  0  0  0
  7  8  2  0  0  0  0
  7  9  1  0  0  0  0
 10 11  2  0  0  0  0
 10 12  1  0  0  0  0
 12 14  1  0  0  0  0
 12 13  1  0  0  0  0
 12 29  1  0  0  0  0
 13 16  1  0  0  0  0
 13 30  1  0  0  0  0
 13 31  1  0  0  0  0
 14 15  1  0  0  0  0
 14 32  1  0  0  0  0
 14 33  1  0  0  0  0
 15 34  1  0  0  0  0
 15 35  1  0  0  0  0
 15 36  1  0  0  0  0
 16 37  1  0  0  0  0
 16 38  1  0  0  0  0
 16 39  1  0  0  0  0
 17 18  1  0  0  0  0
 17 40  1  0  0  0  0
 18 19  1  0  0  0  0
 18 20  2  0  0  0  0
 19 41  1  0  0  0  0
 19 42  1  0  0  0  0
 19 43  1  0  0  0  0
 21 22  1  0  0  0  0
 21 44  1  0  0  0  0
 22 24  2  0  0  0  0
 22 23  1  0  0  0  0
 23 45  1  0  0  0  0
 23 46  1  0  0  0  0
 24 47  1  0  0  0  0
 24 48  1  0  0  0  0
M  END
> <Name>
BDB5244

> <Target>
Neuraminidase A

> <IC50_in_nM>
140

> <Kd_from_ITC>
false

> <source_organism>
Influenza A virus (A/Puerto Rico/8/34(H1N1))

> <SourceTag>
NA

> <atoms in reference ligand area>
22

> <score>
-36.9722

$$$$
BDB5008
      BALL 1.4.0 (Jan  4 2012, 23:22:29)

 34 34  0999  0  0  0  0  0  0999 V2000
    9.8749   11.8165    3.4221 C   0  0  0  0  0  0  0  0  0  0  0  0
    8.9550   13.0161    3.5577 C   0  0  0  0  0  0  0  0  0  0  0  0
    8.2719   13.3507    2.2252 C   0  0  0  0  0  0  0  0  0  0  0  0
    9.3176   13.3311    1.0177 C   0  0  0  0  0  0  0  0  0  0  0  0
    9.9060   11.9390    0.9019 C   0  0  0  0  0  0  0  0  0  0  0  0
   10.3232   11.3521    2.2359 C   0  0  0  0  0  0  0  0  0  0  0  0
   11.2043   10.1941    2.2143 C   0  0  0  0  0  0  0  0  0  0  0  0
   11.1506    9.3565    3.1200 O   0  0  0  0  0  0  0  0  0  0  0  0
   12.0811   10.0355    1.1879 O   0  5  0  0  0  0  0  0  0  0  0  0
    9.7176   14.1316    4.0059 O   0  0  0  0  0  0  0  0  0  0  0  0
    7.0158   12.5029    1.9590 N   0  0  0  0  0  0  0  0  0  0  0  0
    6.7724   11.0435    1.9232 C   0  0  0  0  0  0  0  0  0  0  0  0
    7.7778    9.9373    1.8678 C   0  0  0  0  0  0  0  0  0  0  0  0
    5.5886   10.6907    1.9051 O   0  0  0  0  0  0  0  0  0  0  0  0
   10.4274   14.4331    0.9458 N   0  0  0  0  0  0  0  0  0  0  0  0
   10.5242   15.7302    0.1753 C   0  0  0  0  0  0  0  0  0  0  0  0
   10.3001   16.8066    0.8152 N   0  3  0  0  0  0  0  0  0  0  0  0
   10.8502   15.8932   -1.2135 N   0  0  0  0  0  0  0  0  0  0  0  0
   10.1843   11.3120    4.3134 H   0  0  0  0  0  0  0  0  0  0  0  0
    8.1921   12.8486    4.3294 H   0  0  0  0  0  0  0  0  0  0  0  0
    7.8549   14.3637    2.3113 H   0  0  0  0  0  0  0  0  0  0  0  0
    8.7365   13.5128    0.1015 H   0  0  0  0  0  0  0  0  0  0  0  0
   10.7688   11.9711    0.2439 H   0  0  0  0  0  0  0  0  0  0  0  0
    9.1739   11.2807    0.4378 H   0  0  0  0  0  0  0  0  0  0  0  0
    9.4338   14.4083    4.8555 H   0  0  0  0  0  0  0  0  0  0  0  0
    6.1834   13.0398    1.9020 H   0  0  0  0  0  0  0  0  0  0  0  0
    7.3749    9.2738    2.6721 H   0  0  0  0  0  0  0  0  0  0  0  0
    8.6403   10.4390    2.3718 H   0  0  0  0  0  0  0  0  0  0  0  0
    7.9461    9.5415    1.0411 H   0  0  0  0  0  0  0  0  0  0  0  0
   11.3108   14.1666    1.3996 H   0  0  0  0  0  0  0  0  0  0  0  0
   10.0636   16.7737    1.7766 H   0  0  0  0  0  0  0  0  0  0  0  0
   10.3557   17.6819    0.3416 H   0  0  0  0  0  0  0  0  0  0  0  0
   11.5562   15.3797   -1.6420 H   0  0  0  0  0  0  0  0  0  0  0  0
   10.3609   16.6137   -1.7602 H   0  0  0  0  0  0  0  0  0  0  0  0
  1  2  1  0  0  0  0
  1  6  2  0  0  0  0
  1 19  1  0  0  0  0
  2  3  1  0  0  0  0
  2 10  1  0  0  0  0
  2 20  1  0  0  0  0
  3  4  1  0  0  0  0
  3 11  1  0  0  0  0
  3 21  1  0  0  0  0
  4  5  1  0  0  0  0
  4 15  1  0  0  0  0
  4 22  1  0  0  0  0
  5  6  1  0  0  0  0
  5 23  1  0  0  0  0
  5 24  1  0  0  0  0
  6  7  1  0  0  0  0
  7  8  2  0  0  0  0
  7  9  1  0  0  0  0
 10 25  1  0  0  0  0
 11 12  1  0  0  0  0
 11 26  1  0  0  0  0
 12 13  1  0  0  0  0
 12 14  2  0  0  0  0
 13 27  1  0  0  0  0
 13 28  1  0  0  0  0
 13 29  1  0  0  0  0
 15 16  1  0  0  0  0
 15 30  1  0  0  0  0
 16 18  1  0  0  0  0
 16 17  2  0  0  0  0
 17 31  1  0  0  0  0
 17 32  1  0  0  0  0
 18 33  1  0  0  0  0
 18 34  1  0  0  0  0
M  END
> <Name>
BDB5008

> <Target>
Neuraminidase A

> <IC50_in_nM>
100

> <Kd_from_ITC>
false

> <source_organism>
Influenza A virus (A/Puerto Rico/8/34/Mount Sinai(H1N1))

> <SourceTag>
NA

> <atoms in reference ligand area>
20

> <score>
-36.8847

$$$$
BDB5200
      BALL 1.4.0 (Jan  4 2012, 23:22:29)

 46 47  0999  0  0  0  0  0  0999 V2000
    7.2657   11.9421   -0.6288 C   0  0  0  0  0  0  0  0  0  0  0  0
    7.6698   11.8375    0.8187 C   0  0  0  0  0  0  0  0  0  0  0  0
    9.5931   12.5622   -0.3716 N   0  3  0  0  0  0  0  0  0  0  0  0
    8.3279   12.9661   -1.0692 C   0  0  0  0  0  0  0  0  0  0  0  0
    8.4769   13.0237   -2.5625 C   0  0  0  0  0  0  0  0  0  0  0  0
    9.1485   12.1675   -3.1487 O   0  0  0  0  0  0  0  0  0  0  0  0
    7.8695   14.0122   -3.2686 O   0  5  0  0  0  0  0  0  0  0  0  0
    9.1501   11.5436    0.6180 C   0  0  0  0  0  0  0  0  0  0  0  0
   10.3871   12.3266    1.2479 C   0  0  0  0  0  0  0  0  0  0  0  0
   10.6699   11.6099    2.7178 C   0  0  0  0  0  0  0  0  0  0  0  0
   11.8209   12.6499    2.5650 C   0  0  0  0  0  0  0  0  0  0  0  0
   13.1178   11.9012    2.2148 C   0  0  0  0  0  0  0  0  0  0  0  0
   12.0552   13.4432    3.8690 C   0  0  0  0  0  0  0  0  0  0  0  0
    9.8127   13.6905    1.6044 N   0  0  0  0  0  0  0  0  0  0  0  0
    9.2146   14.5059    2.5861 C   0  0  0  0  0  0  0  0  0  0  0  0
    7.9428   14.0814    3.2750 C   0  0  0  0  0  0  0  0  0  0  0  0
    9.7332   15.5860    2.8778 O   0  0  0  0  0  0  0  0  0  0  0  0
    6.9679   10.7135    1.5381 C   0  0  0  0  0  0  0  0  0  0  0  0
    6.5145    8.8281    2.4758 C   0  0  0  0  0  0  0  0  0  0  0  0
    5.7286   10.7591    1.9765 N   0  0  0  0  0  0  0  0  0  0  0  0
    5.4631    9.6459    2.5294 N   0  0  0  0  0  0  0  0  0  0  0  0
    7.5379    9.4988    1.8242 C   0  0  0  0  0  0  0  0  0  0  0  0
    6.2548   12.3654   -0.7227 H   0  0  0  0  0  0  0  0  0  0  0  0
    7.4117   10.9821   -1.1455 H   0  0  0  0  0  0  0  0  0  0  0  0
    7.4293   12.7134    1.4391 H   0  0  0  0  0  0  0  0  0  0  0  0
   10.2503   12.1415   -1.0439 H   0  0  0  0  0  0  0  0  0  0  0  0
   10.0061   13.3717    0.1133 H   0  0  0  0  0  0  0  0  0  0  0  0
    8.0389   13.9904   -0.7911 H   0  0  0  0  0  0  0  0  0  0  0  0
    9.3214   10.5188    0.2570 H   0  0  0  0  0  0  0  0  0  0  0  0
   11.2622   12.3381    0.5814 H   0  0  0  0  0  0  0  0  0  0  0  0
   10.1240   11.8255    3.6481 H   0  0  0  0  0  0  0  0  0  0  0  0
   11.1141   10.6104    2.8338 H   0  0  0  0  0  0  0  0  0  0  0  0
   11.5366   13.3589    1.7734 H   0  0  0  0  0  0  0  0  0  0  0  0
   13.5560   11.4658    3.1250 H   0  0  0  0  0  0  0  0  0  0  0  0
   13.8371   12.5940    1.7537 H   0  0  0  0  0  0  0  0  0  0  0  0
   12.8879   11.0942    1.5037 H   0  0  0  0  0  0  0  0  0  0  0  0
   13.0707   13.8652    3.8420 H   0  0  0  0  0  0  0  0  0  0  0  0
   11.9813   12.7476    4.7178 H   0  0  0  0  0  0  0  0  0  0  0  0
   11.3120   14.2477    3.9709 H   0  0  0  0  0  0  0  0  0  0  0  0
   10.6463   14.0348    1.1069 H   0  0  0  0  0  0  0  0  0  0  0  0
    7.3049   13.6951    2.4664 H   0  0  0  0  0  0  0  0  0  0  0  0
    7.4874   15.0210    3.6207 H   0  0  0  0  0  0  0  0  0  0  0  0
    8.0880   13.3542    4.0875 H   0  0  0  0  0  0  0  0  0  0  0  0
    6.5614    7.8048    2.8765 H   0  0  0  0  0  0  0  0  0  0  0  0
    4.5584    9.4080    2.9602 H   0  0  0  0  0  0  0  0  0  0  0  0
    8.5538    9.1453    1.5940 H   0  0  0  0  0  0  0  0  0  0  0  0
  1  4  1  0  0  0  0
  1  2  1  0  0  0  0
  1 23  1  0  0  0  0
  1 24  1  0  0  0  0
  2  8  1  0  0  0  0
  2 18  1  0  0  0  0
  2 25  1  0  0  0  0
  3  4  1  0  0  0  0
  3  8  1  0  0  0  0
  3 26  1  0  0  0  0
  3 27  1  0  0  0  0
  4  5  1  0  0  0  0
  4 28  1  0  0  0  0
  5  6  2  0  0  0  0
  5  7  1  0  0  0  0
  8  9  1  0  0  0  0
  8 29  1  0  0  0  0
  9 10  1  0  0  0  0
  9 14  1  0  0  0  0
  9 30  1  0  0  0  0
 10 11  1  0  0  0  0
 10 31  1  0  0  0  0
 10 32  1  0  0  0  0
 11 12  1  0  0  0  0
 11 13  1  0  0  0  0
 11 33  1  0  0  0  0
 12 34  1  0  0  0  0
 12 35  1  0  0  0  0
 12 36  1  0  0  0  0
 13 37  1  0  0  0  0
 13 38  1  0  0  0  0
 13 39  1  0  0  0  0
 14 15  1  0  0  0  0
 14 40  1  0  0  0  0
 15 16  1  0  0  0  0
 15 17  2  0  0  0  0
 16 41  1  0  0  0  0
 16 42  1  0  0  0  0
 16 43  1  0  0  0  0
 18 22  1  0  0  0  0
 18 20  2  0  0  0  0
 19 22  2  0  0  0  0
 19 21  1  0  0  0  0
 19 44  1  0  0  0  0
 20 21  1  0  0  0  0
 21 45  1  0  0  0  0
 22 46  1  0  0  0  0
M  END
> <Name>
BDB5200

> <Target>
Neuraminidase A

> <Ki_in_nM>
45

> <Kd_from_ITC>
false

> <Uniprot_ID>
P06820

> <source_organism>
Influenza A virus (A/Tokyo/3/67(H2N2))

> <SourceTag>
NA

> <atoms in reference ligand area>
32

> <score>
-35.2169

$$$$
BDB5025
      BALL 1.4.0 (Jan  4 2012, 23:22:29)

 51 51  0999  0  0  0  0  0  0999 V2000
    8.8283   10.7288    2.5653 C   0  0  0  0  0  0  0  0  0  0  0  0
   10.3118   11.2008    0.5981 C   0  0  0  0  0  0  0  0  0  0  0  0
    7.8454   11.2717    0.3372 C   0  0  0  0  0  0  0  0  0  0  0  0
    7.7607   10.7713    1.7643 C   0  0  0  0  0  0  0  0  0  0  0  0
    6.4783   10.2812    2.2646 C   0  0  0  0  0  0  0  0  0  0  0  0
    5.4327   10.8754    1.9740 O   0  0  0  0  0  0  0  0  0  0  0  0
    6.4382    9.1458    3.0681 O   0  0  0  0  0  0  0  0  0  0  0  0
    5.1317    8.9881    3.6245 C   0  0  0  0  0  0  0  0  0  0  0  0
    5.2543    8.5236    5.0876 C   0  0  0  0  0  0  0  0  0  0  0  0
   10.1842   11.2029    2.1231 C   0  0  0  0  0  0  0  0  0  0  0  0
   11.2359   10.3902    2.7264 O   0  0  0  0  0  0  0  0  0  0  0  0
   12.5842   10.8197    2.3859 C   0  0  0  0  0  0  0  0  0  0  0  0
   13.5942    9.9069    3.1153 C   0  0  0  0  0  0  0  0  0  0  0  0
   13.8252   10.4163    4.5540 C   0  0  0  0  0  0  0  0  0  0  0  0
   12.8483   12.2937    2.8112 C   0  0  0  0  0  0  0  0  0  0  0  0
   11.7935   12.7428    3.8471 C   0  0  0  0  0  0  0  0  0  0  0  0
   11.5887   11.8334    0.2398 N   0  0  0  0  0  0  0  0  0  0  0  0
   11.9309   13.2200    0.4082 C   0  0  0  0  0  0  0  0  0  0  0  0
   10.9862   14.2487    0.9983 C   0  0  0  0  0  0  0  0  0  0  0  0
   13.0544   13.5927    0.0530 O   0  0  0  0  0  0  0  0  0  0  0  0
    9.1572   12.0266    0.0577 C   0  0  0  0  0  0  0  0  0  0  0  0
    9.2953   12.2079   -1.3946 N   0  3  0  0  0  0  0  0  0  0  0  0
    8.7113   10.3327    3.5848 H   0  0  0  0  0  0  0  0  0  0  0  0
   10.2853   10.1823    0.1837 H   0  0  0  0  0  0  0  0  0  0  0  0
    6.9964   11.9428    0.1400 H   0  0  0  0  0  0  0  0  0  0  0  0
    7.7714   10.4149   -0.3486 H   0  0  0  0  0  0  0  0  0  0  0  0
    4.5738    8.2362    3.0471 H   0  0  0  0  0  0  0  0  0  0  0  0
    4.5986    9.9496    3.5888 H   0  0  0  0  0  0  0  0  0  0  0  0
    5.4509    7.4416    5.1161 H   0  0  0  0  0  0  0  0  0  0  0  0
    4.3183    8.7404    5.6233 H   0  0  0  0  0  0  0  0  0  0  0  0
    6.0843    9.0579    5.5731 H   0  0  0  0  0  0  0  0  0  0  0  0
   10.3008   12.2415    2.4666 H   0  0  0  0  0  0  0  0  0  0  0  0
   12.6988   10.7520    1.2940 H   0  0  0  0  0  0  0  0  0  0  0  0
   13.1998    8.8807    3.1507 H   0  0  0  0  0  0  0  0  0  0  0  0
   14.5497    9.9088    2.5702 H   0  0  0  0  0  0  0  0  0  0  0  0
   14.8913   10.3188    4.8068 H   0  0  0  0  0  0  0  0  0  0  0  0
   13.2289    9.8115    5.2532 H   0  0  0  0  0  0  0  0  0  0  0  0
   13.5231   11.4714    4.6282 H   0  0  0  0  0  0  0  0  0  0  0  0
   13.8517   12.3718    3.2552 H   0  0  0  0  0  0  0  0  0  0  0  0
   12.7918   12.9459    1.9273 H   0  0  0  0  0  0  0  0  0  0  0  0
   10.7914   12.6713    3.3993 H   0  0  0  0  0  0  0  0  0  0  0  0
   11.9893   13.7861    4.1357 H   0  0  0  0  0  0  0  0  0  0  0  0
   11.8474   12.0976    4.7363 H   0  0  0  0  0  0  0  0  0  0  0  0
   12.3094   11.2239   -0.1723 H   0  0  0  0  0  0  0  0  0  0  0  0
   11.4463   15.2081    0.7191 H   0  0  0  0  0  0  0  0  0  0  0  0
   11.1359   14.1408    2.0827 H   0  0  0  0  0  0  0  0  0  0  0  0
    9.9342   14.1600    0.6895 H   0  0  0  0  0  0  0  0  0  0  0  0
    9.1553   13.0127    0.5453 H   0  0  0  0  0  0  0  0  0  0  0  0
   10.2460   12.5441   -1.6042 H   0  0  0  0  0  0  0  0  0  0  0  0
    8.6098   12.9067   -1.7146 H   0  0  0  0  0  0  0  0  0  0  0  0
    9.1295   11.3129   -1.8768 H   0  0  0  0  0  0  0  0  0  0  0  0
  1  4  2  0  0  0  0
  1 10  1  0  0  0  0
  1 23  1  0  0  0  0
  2 10  1  0  0  0  0
  2 21  1  0  0  0  0
  2 17  1  0  0  0  0
  2 24  1  0  0  0  0
  3  4  1  0  0  0  0
  3 21  1  0  0  0  0
  3 25  1  0  0  0  0
  3 26  1  0  0  0  0
  4  5  1  0  0  0  0
  5  6  2  0  0  0  0
  5  7  1  0  0  0  0
  7  8  1  0  0  0  0
  8  9  1  0  0  0  0
  8 27  1  0  0  0  0
  8 28  1  0  0  0  0
  9 29  1  0  0  0  0
  9 30  1  0  0  0  0
  9 31  1  0  0  0  0
 10 11  1  0  0  0  0
 10 32  1  0  0  0  0
 11 12  1  0  0  0  0
 12 13  1  0  0  0  0
 12 15  1  0  0  0  0
 12 33  1  0  0  0  0
 13 14  1  0  0  0  0
 13 34  1  0  0  0  0
 13 35  1  0  0  0  0
 14 36  1  0  0  0  0
 14 37  1  0  0  0  0
 14 38  1  0  0  0  0
 15 16  1  0  0  0  0
 15 39  1  0  0  0  0
 15 40  1  0  0  0  0
 16 41  1  0  0  0  0
 16 42  1  0  0  0  0
 16 43  1  0  0  0  0
 17 18  1  0  0  0  0
 17 44  1  0  0  0  0
 18 19  1  0  0  0  0
 18 20  2  0  0  0  0
 19 45  1  0  0  0  0
 19 46  1  0  0  0  0
 19 47  1  0  0  0  0
 21 22  1  0  0  0  0
 21 48  1  0  0  0  0
 22 49  1  0  0  0  0
 22 50  1  0  0  0  0
 22 51  1  0  0  0  0
M  END
> <Name>
BDB5025

> <Target>
Neuraminidase A

> <IC50_in_nM>
1

> <Kd_from_ITC>
false

> <source_organism>
Influenza A virus (A/Singapore/1/57(H2N2))

> <SourceTag>
NA

> <atoms in reference ligand area>
25

> <score>
-34.6645

$$$$
BDB4942
      BALL 1.4.0 (Jan  4 2012, 23:22:29)

 47 47  0999  0  0  0  0  0  0999 V2000
    9.3970    8.2671    4.9099 C   0  0  0  0  0  0  0  0  0  0  0  0
    8.5514   10.1817    3.1224 C   0  0  0  0  0  0  0  0  0  0  0  0
    7.5523    9.1058    3.5090 C   0  0  0  0  0  0  0  0  0  0  0  0
    8.2712    8.0238    4.2302 C   0  0  0  0  0  0  0  0  0  0  0  0
    9.9778    9.5606    5.0045 O   0  0  0  0  0  0  0  0  0  0  0  0
   10.0806    7.1456    5.5559 C   0  0  0  0  0  0  0  0  0  0  0  0
   10.4749    6.1888    4.8793 O   0  0  0  0  0  0  0  0  0  0  0  0
   10.2820    7.1561    6.8995 O   0  5  0  0  0  0  0  0  0  0  0  0
   10.1157   11.8306    4.1743 C   0  0  0  0  0  0  0  0  0  0  0  0
    9.5906   12.9444    4.0546 O   0  0  0  0  0  0  0  0  0  0  0  0
    9.1987   10.6276    4.4193 C   0  0  0  0  0  0  0  0  0  0  0  0
   11.5363   11.7452    4.0500 N   0  0  0  0  0  0  0  0  0  0  0  0
    7.8207   11.3046    2.5191 N   0  0  0  0  0  0  0  0  0  0  0  0
    8.1566   11.9827    1.2961 C   0  0  0  0  0  0  0  0  0  0  0  0
    9.3511   11.6157    0.4374 C   0  0  0  0  0  0  0  0  0  0  0  0
    7.4332   12.9136    0.9255 O   0  0  0  0  0  0  0  0  0  0  0  0
    6.8935    8.5791    2.3291 N   0  0  0  0  0  0  0  0  0  0  0  0
    5.8199    9.2430    1.6927 C   0  0  0  0  0  0  0  0  0  0  0  0
    4.9390    8.5584    1.0848 N   0  3  0  0  0  0  0  0  0  0  0  0
    5.7059   10.6392    1.7173 N   0  0  0  0  0  0  0  0  0  0  0  0
   12.2791   12.9655    3.8618 C   0  0  0  0  0  0  0  0  0  0  0  0
   13.6686   12.8598    4.5258 C   0  0  0  0  0  0  0  0  0  0  0  0
   12.2443   10.4845    4.0511 C   0  0  0  0  0  0  0  0  0  0  0  0
   13.3979   10.5285    3.0245 C   0  0  0  0  0  0  0  0  0  0  0  0
    9.3013    9.8217    2.4026 H   0  0  0  0  0  0  0  0  0  0  0  0
    6.7799    9.5356    4.1638 H   0  0  0  0  0  0  0  0  0  0  0  0
    7.8688    7.0004    4.2046 H   0  0  0  0  0  0  0  0  0  0  0  0
    8.3917   10.9084    5.1120 H   0  0  0  0  0  0  0  0  0  0  0  0
    6.9859   11.6389    3.0213 H   0  0  0  0  0  0  0  0  0  0  0  0
    9.4124   10.5221    0.5387 H   0  0  0  0  0  0  0  0  0  0  0  0
   10.2044   12.0242    0.9988 H   0  0  0  0  0  0  0  0  0  0  0  0
    9.3086   11.9580   -0.6071 H   0  0  0  0  0  0  0  0  0  0  0  0
    7.2213    7.6840    1.9388 H   0  0  0  0  0  0  0  0  0  0  0  0
    5.0033    7.5308    1.0542 H   0  0  0  0  0  0  0  0  0  0  0  0
    4.1547    9.0370    0.6193 H   0  0  0  0  0  0  0  0  0  0  0  0
    5.8601   11.1670    0.8463 H   0  0  0  0  0  0  0  0  0  0  0  0
    5.4719   11.1330    2.5903 H   0  0  0  0  0  0  0  0  0  0  0  0
   11.7245   13.8030    4.3102 H   0  0  0  0  0  0  0  0  0  0  0  0
   12.4037   13.1533    2.7851 H   0  0  0  0  0  0  0  0  0  0  0  0
   13.9938   11.8091    4.5143 H   0  0  0  0  0  0  0  0  0  0  0  0
   13.5966   13.2053    5.5677 H   0  0  0  0  0  0  0  0  0  0  0  0
   14.3938   13.4795    3.9780 H   0  0  0  0  0  0  0  0  0  0  0  0
   12.6551   10.2966    5.0542 H   0  0  0  0  0  0  0  0  0  0  0  0
   11.5499    9.6738    3.7853 H   0  0  0  0  0  0  0  0  0  0  0  0
   12.9955   10.3509    2.0163 H   0  0  0  0  0  0  0  0  0  0  0  0
   14.1318    9.7458    3.2671 H   0  0  0  0  0  0  0  0  0  0  0  0
   13.8859   11.5137    3.0577 H   0  0  0  0  0  0  0  0  0  0  0  0
  1  5  1  0  0  0  0
  1  4  2  0  0  0  0
  1  6  1  0  0  0  0
  2 11  1  0  0  0  0
  2  3  1  0  0  0  0
  2 13  1  0  0  0  0
  2 25  1  0  0  0  0
  3  4  1  0  0  0  0
  3 17  1  0  0  0  0
  3 26  1  0  0  0  0
  4 27  1  0  0  0  0
  5 11  1  0  0  0  0
  6  7  2  0  0  0  0
  6  8  1  0  0  0  0
  9 11  1  0  0  0  0
  9 12  1  0  0  0  0
  9 10  2  0  0  0  0
 11 28  1  0  0  0  0
 12 21  1  0  0  0  0
 12 23  1  0  0  0  0
 13 14  1  0  0  0  0
 13 29  1  0  0  0  0
 14 15  1  0  0  0  0
 14 16  2  0  0  0  0
 15 30  1  0  0  0  0
 15 31  1  0  0  0  0
 15 32  1  0  0  0  0
 17 18  1  0  0  0  0
 17 33  1  0  0  0  0
 18 20  1  0  0  0  0
 18 19  2  0  0  0  0
 19 34  1  0  0  0  0
 19 35  1  0  0  0  0
 20 36  1  0  0  0  0
 20 37  1  0  0  0  0
 21 22  1  0  0  0  0
 21 38  1  0  0  0  0
 21 39  1  0  0  0  0
 22 40  1  0  0  0  0
 22 41  1  0  0  0  0
 22 42  1  0  0  0  0
 23 24  1  0  0  0  0
 23 43  1  0  0  0  0
 23 44  1  0  0  0  0
 24 45  1  0  0  0  0
 24 46  1  0  0  0  0
 24 47  1  0  0  0  0
M  END
> <Name>
BDB4942

> <Target>
Neuraminidase A

> <IC50_in_nM>
1

> <Kd_from_ITC>
false

> <source_organism>
Influenza A virus (A/Singapore/1/57(H2N2))

> <SourceTag>
NA

> <atoms in reference ligand area>
16

> <score>
-34.1013

$$$$
BDB5199
      BALL 1.4.0 (Jan  4 2012, 23:22:29)

 46 47  0999  0  0  0  0  0  0999 V2000
    7.4291   12.3531   -1.5188 C   0  0  0  0  0  0  0  0  0  0  0  0
    7.6013   11.9965   -0.0653 C   0  0  0  0  0  0  0  0  0  0  0  0
    9.6379   12.9996   -0.7633 N   0  3  0  0  0  0  0  0  0  0  0  0
    8.4772   13.4792   -1.5837 C   0  0  0  0  0  0  0  0  0  0  0  0
    8.8602   13.8183   -2.9957 C   0  0  0  0  0  0  0  0  0  0  0  0
    9.5241   13.0178   -3.6638 O   0  0  0  0  0  0  0  0  0  0  0  0
    8.4724   15.0008   -3.5399 O   0  5  0  0  0  0  0  0  0  0  0  0
    9.1109   11.7995   -0.0596 C   0  0  0  0  0  0  0  0  0  0  0  0
   10.1751   12.4969    0.9002 C   0  0  0  0  0  0  0  0  0  0  0  0
   10.2653   11.5307    2.2466 C   0  0  0  0  0  0  0  0  0  0  0  0
   11.3534   12.6224    2.4785 C   0  0  0  0  0  0  0  0  0  0  0  0
   12.7357   11.9483    2.4763 C   0  0  0  0  0  0  0  0  0  0  0  0
   11.1662   13.3418    3.8320 C   0  0  0  0  0  0  0  0  0  0  0  0
    9.4606   13.7489    1.3891 N   0  0  0  0  0  0  0  0  0  0  0  0
    9.0047   14.5009    2.4905 C   0  0  0  0  0  0  0  0  0  0  0  0
    8.0822   13.8914    3.5151 C   0  0  0  0  0  0  0  0  0  0  0  0
    9.3572   15.6763    2.6120 O   0  0  0  0  0  0  0  0  0  0  0  0
    6.8718   10.7374    0.3130 C   0  0  0  0  0  0  0  0  0  0  0  0
    5.4456    9.4395    1.1894 C   0  0  0  0  0  0  0  0  0  0  0  0
    6.3544    8.6882    0.4522 C   0  0  0  0  0  0  0  0  0  0  0  0
    5.8000   10.7135    1.0793 N   0  0  0  0  0  0  0  0  0  0  0  0
    7.2294    9.5319   -0.0801 N   0  0  0  0  0  0  0  0  0  0  0  0
    6.4203   12.7490   -1.7073 H   0  0  0  0  0  0  0  0  0  0  0  0
    7.7205   11.5116   -2.1645 H   0  0  0  0  0  0  0  0  0  0  0  0
    7.2058   12.7328    0.6500 H   0  0  0  0  0  0  0  0  0  0  0  0
   10.4214   12.7353   -1.3775 H   0  0  0  0  0  0  0  0  0  0  0  0
    9.9122   13.7196   -0.0798 H   0  0  0  0  0  0  0  0  0  0  0  0
    8.0791   14.4229   -1.1823 H   0  0  0  0  0  0  0  0  0  0  0  0
    9.4065   10.8664   -0.5615 H   0  0  0  0  0  0  0  0  0  0  0  0
   11.1432   12.6638    0.4053 H   0  0  0  0  0  0  0  0  0  0  0  0
    9.5636   11.5497    3.0935 H   0  0  0  0  0  0  0  0  0  0  0  0
   10.7512   10.5439    2.2580 H   0  0  0  0  0  0  0  0  0  0  0  0
   11.2653   13.3675    1.6740 H   0  0  0  0  0  0  0  0  0  0  0  0
   12.9114   11.4579    1.5075 H   0  0  0  0  0  0  0  0  0  0  0  0
   12.7896   11.2024    3.2829 H   0  0  0  0  0  0  0  0  0  0  0  0
   13.5100   12.7123    2.6394 H   0  0  0  0  0  0  0  0  0  0  0  0
   10.5257   14.2219    3.6729 H   0  0  0  0  0  0  0  0  0  0  0  0
   12.1515   13.6782    4.1867 H   0  0  0  0  0  0  0  0  0  0  0  0
   10.7073   12.6661    4.5687 H   0  0  0  0  0  0  0  0  0  0  0  0
   10.0396   14.2100    0.6728 H   0  0  0  0  0  0  0  0  0  0  0  0
    7.2977   14.6475    3.6667 H   0  0  0  0  0  0  0  0  0  0  0  0
    8.6773   13.8581    4.4395 H   0  0  0  0  0  0  0  0  0  0  0  0
    7.6775   12.9082    3.2333 H   0  0  0  0  0  0  0  0  0  0  0  0
    4.5895    9.0492    1.7595 H   0  0  0  0  0  0  0  0  0  0  0  0
    6.3490    7.5948    0.3322 H   0  0  0  0  0  0  0  0  0  0  0  0
    8.0301    9.2918   -0.6818 H   0  0  0  0  0  0  0  0  0  0  0  0
  1  4  1  0  0  0  0
  1  2  1  0  0  0  0
  1 23  1  0  0  0  0
  1 24  1  0  0  0  0
  2  8  1  0  0  0  0
  2 18  1  0  0  0  0
  2 25  1  0  0  0  0
  3  4  1  0  0  0  0
  3  8  1  0  0  0  0
  3 26  1  0  0  0  0
  3 27  1  0  0  0  0
  4  5  1  0  0  0  0
  4 28  1  0  0  0  0
  5  6  2  0  0  0  0
  5  7  1  0  0  0  0
  8  9  1  0  0  0  0
  8 29  1  0  0  0  0
  9 10  1  0  0  0  0
  9 14  1  0  0  0  0
  9 30  1  0  0  0  0
 10 11  1  0  0  0  0
 10 31  1  0  0  0  0
 10 32  1  0  0  0  0
 11 12  1  0  0  0  0
 11 13  1  0  0  0  0
 11 33  1  0  0  0  0
 12 34  1  0  0  0  0
 12 35  1  0  0  0  0
 12 36  1  0  0  0  0
 13 37  1  0  0  0  0
 13 38  1  0  0  0  0
 13 39  1  0  0  0  0
 14 15  1  0  0  0  0
 14 40  1  0  0  0  0
 15 16  1  0  0  0  0
 15 17  2  0  0  0  0
 16 41  1  0  0  0  0
 16 42  1  0  0  0  0
 16 43  1  0  0  0  0
 18 22  1  0  0  0  0
 18 21  2  0  0  0  0
 19 20  2  0  0  0  0
 19 21  1  0  0  0  0
 19 44  1  0  0  0  0
 20 22  1  0  0  0  0
 20 45  1  0  0  0  0
 22 46  1  0  0  0  0
M  END
> <Name>
BDB5199

> <Target>
Neuraminidase A

> <Ki_in_nM>
350

> <Kd_from_ITC>
false

> <Uniprot_ID>
P06820

> <source_organism>
Influenza A virus (A/Tokyo/3/67(H2N2))

> <SourceTag>
NA

> <atoms in reference ligand area>
34

> <score>
-33.5656

$$$$
BDB4937
      BALL 1.4.0 (Jan  4 2012, 23:22:29)

 42 42  0999  0  0  0  0  0  0999 V2000
    7.0228   11.2621    0.3936 C   0  0  0  0  0  0  0  0  0  0  0  0
    8.7815   13.3767    0.4977 C   0  0  0  0  0  0  0  0  0  0  0  0
    8.2657   12.8391    1.8206 C   0  0  0  0  0  0  0  0  0  0  0  0
    7.1283   11.9216    1.5521 C   0  0  0  0  0  0  0  0  0  0  0  0
    7.9810   11.3754   -0.6498 O   0  0  0  0  0  0  0  0  0  0  0  0
    5.8506   10.4128    0.1761 C   0  0  0  0  0  0  0  0  0  0  0  0
    4.9061   10.4461    0.9732 O   0  0  0  0  0  0  0  0  0  0  0  0
    5.8006    9.5878   -0.9021 O   0  5  0  0  0  0  0  0  0  0  0  0
    9.8384   12.5806   -1.6288 C   0  0  0  0  0  0  0  0  0  0  0  0
   11.0515   12.3648   -1.7404 O   0  0  0  0  0  0  0  0  0  0  0  0
    9.1515   12.1582   -0.3257 C   0  0  0  0  0  0  0  0  0  0  0  0
    9.9806   14.1855    0.7561 N   0  0  0  0  0  0  0  0  0  0  0  0
   11.3342   13.7053    0.8306 C   0  0  0  0  0  0  0  0  0  0  0  0
   11.7163   12.2498    0.6460 C   0  0  0  0  0  0  0  0  0  0  0  0
   12.2333   14.5224    1.0571 O   0  0  0  0  0  0  0  0  0  0  0  0
    7.8427   13.9429    2.6941 N   0  3  0  0  0  0  0  0  0  0  0  0
    9.1731   13.2307   -2.7130 N   0  0  0  0  0  0  0  0  0  0  0  0
    9.9355   13.5343   -3.8974 C   0  0  0  0  0  0  0  0  0  0  0  0
    8.9974   13.9395   -5.0544 C   0  0  0  0  0  0  0  0  0  0  0  0
    7.7883   13.6408   -2.6441 C   0  0  0  0  0  0  0  0  0  0  0  0
    7.6950   15.0904   -2.1182 C   0  0  0  0  0  0  0  0  0  0  0  0
    8.0399   14.0017   -0.0214 H   0  0  0  0  0  0  0  0  0  0  0  0
    9.0683   12.2907    2.3355 H   0  0  0  0  0  0  0  0  0  0  0  0
    6.3562   11.7819    2.3231 H   0  0  0  0  0  0  0  0  0  0  0  0
    9.8393   11.5478    0.2779 H   0  0  0  0  0  0  0  0  0  0  0  0
    9.8377   15.1957    0.8978 H   0  0  0  0  0  0  0  0  0  0  0  0
   12.1054   11.9604    1.6334 H   0  0  0  0  0  0  0  0  0  0  0  0
   12.5869   12.2973   -0.0249 H   0  0  0  0  0  0  0  0  0  0  0  0
   10.9153   11.5909    0.2796 H   0  0  0  0  0  0  0  0  0  0  0  0
    6.9743   13.6748    3.1787 H   0  0  0  0  0  0  0  0  0  0  0  0
    7.6656   14.7786    2.1187 H   0  0  0  0  0  0  0  0  0  0  0  0
    8.5786   14.1461    3.3855 H   0  0  0  0  0  0  0  0  0  0  0  0
   10.5171   12.6489   -4.1939 H   0  0  0  0  0  0  0  0  0  0  0  0
   10.6271   14.3624   -3.6827 H   0  0  0  0  0  0  0  0  0  0  0  0
    7.9554   13.8955   -4.7048 H   0  0  0  0  0  0  0  0  0  0  0  0
    9.1298   13.2348   -5.8885 H   0  0  0  0  0  0  0  0  0  0  0  0
    9.2344   14.9602   -5.3890 H   0  0  0  0  0  0  0  0  0  0  0  0
    7.3406   13.5869   -3.6475 H   0  0  0  0  0  0  0  0  0  0  0  0
    7.2407   12.9704   -1.9654 H   0  0  0  0  0  0  0  0  0  0  0  0
    6.7473   15.2208   -1.5752 H   0  0  0  0  0  0  0  0  0  0  0  0
    7.7276   15.7890   -2.9674 H   0  0  0  0  0  0  0  0  0  0  0  0
    8.5380   15.2940   -1.4416 H   0  0  0  0  0  0  0  0  0  0  0  0
  1  5  1  0  0  0  0
  1  4  2  0  0  0  0
  1  6  1  0  0  0  0
  2 11  1  0  0  0  0
  2  3  1  0  0  0  0
  2 12  1  0  0  0  0
  2 22  1  0  0  0  0
  3  4  1  0  0  0  0
  3 16  1  0  0  0  0
  3 23  1  0  0  0  0
  4 24  1  0  0  0  0
  5 11  1  0  0  0  0
  6  7  2  0  0  0  0
  6  8  1  0  0  0  0
  9 11  1  0  0  0  0
  9 17  1  0  0  0  0
  9 10  2  0  0  0  0
 11 25  1  0  0  0  0
 12 13  1  0  0  0  0
 12 26  1  0  0  0  0
 13 14  1  0  0  0  0
 13 15  2  0  0  0  0
 14 27  1  0  0  0  0
 14 28  1  0  0  0  0
 14 29  1  0  0  0  0
 16 30  1  0  0  0  0
 16 31  1  0  0  0  0
 16 32  1  0  0  0  0
 17 18  1  0  0  0  0
 17 20  1  0  0  0  0
 18 19  1  0  0  0  0
 18 33  1  0  0  0  0
 18 34  1  0  0  0  0
 19 35  1  0  0  0  0
 19 36  1  0  0  0  0
 19 37  1  0  0  0  0
 20 21  1  0  0  0  0
 20 38  1  0  0  0  0
 20 39  1  0  0  0  0
 21 40  1  0  0  0  0
 21 41  1  0  0  0  0
 21 42  1  0  0  0  0
M  END
> <Name>
BDB4937

> <Target>
Neuraminidase A

> <IC50_in_nM>
3

> <Kd_from_ITC>
false

> <source_organism>
Influenza A virus (A/Singapore/1/57(H2N2))

> <SourceTag>
NA

> <atoms in reference ligand area>
31

> <score>
-32.9961

$$$$
BDB5009
      BALL 1.4.0 (Jan  4 2012, 23:22:29)

 43 43  0999  0  0  0  0  0  0999 V2000
    8.0459   12.8553    2.2572 C   0  0  0  0  0  0  0  0  0  0  0  0
    7.9006   13.2706    0.8171 C   0  0  0  0  0  0  0  0  0  0  0  0
    7.8736   12.0444   -0.1093 C   0  0  0  0  0  0  0  0  0  0  0  0
    9.1427   11.1541    0.2169 C   0  0  0  0  0  0  0  0  0  0  0  0
    9.0949   10.6557    1.6325 C   0  0  0  0  0  0  0  0  0  0  0  0
    8.6404   11.7021    2.6218 C   0  0  0  0  0  0  0  0  0  0  0  0
    8.8372   11.4105    4.0260 C   0  0  0  0  0  0  0  0  0  0  0  0
    9.2229   12.2937    4.7969 O   0  0  0  0  0  0  0  0  0  0  0  0
    8.6550   10.1407    4.4731 O   0  5  0  0  0  0  0  0  0  0  0  0
    6.5086   11.2966   -0.1325 N   0  0  0  0  0  0  0  0  0  0  0  0
    6.1069    9.8679   -0.0044 C   0  0  0  0  0  0  0  0  0  0  0  0
    6.9743    8.6642    0.1802 C   0  0  0  0  0  0  0  0  0  0  0  0
    4.8926    9.6413   -0.0456 O   0  0  0  0  0  0  0  0  0  0  0  0
   10.5388   11.7580   -0.0753 N   0  0  0  0  0  0  0  0  0  0  0  0
   11.0561   12.6234   -1.2093 C   0  0  0  0  0  0  0  0  0  0  0  0
   10.2862   12.7882   -2.1956 N   0  3  0  0  0  0  0  0  0  0  0  0
   12.3327   13.2887   -1.3156 N   0  0  0  0  0  0  0  0  0  0  0  0
    9.0699   14.0928    0.5301 O   0  0  0  0  0  0  0  0  0  0  0  0
    8.9802   14.7528   -0.7530 C   0  0  0  0  0  0  0  0  0  0  0  0
    9.8360   16.0563   -0.7776 C   0  0  0  0  0  0  0  0  0  0  0  0
    9.4235   17.0337    0.3429 C   0  0  0  0  0  0  0  0  0  0  0  0
    7.6624   13.5003    3.0201 H   0  0  0  0  0  0  0  0  0  0  0  0
    7.0031   13.8909    0.6679 H   0  0  0  0  0  0  0  0  0  0  0  0
    7.9660   12.3950   -1.1441 H   0  0  0  0  0  0  0  0  0  0  0  0
    9.0941   10.2761   -0.4422 H   0  0  0  0  0  0  0  0  0  0  0  0
   10.0814   10.3031    1.9187 H   0  0  0  0  0  0  0  0  0  0  0  0
    8.4226    9.8009    1.6859 H   0  0  0  0  0  0  0  0  0  0  0  0
    5.7305   11.9065   -0.2259 H   0  0  0  0  0  0  0  0  0  0  0  0
    7.9570    9.0931   -0.1431 H   0  0  0  0  0  0  0  0  0  0  0  0
    6.6621    8.0720   -0.7175 H   0  0  0  0  0  0  0  0  0  0  0  0
    6.9537    8.2296    0.9995 H   0  0  0  0  0  0  0  0  0  0  0  0
   11.2856   11.4090    0.5395 H   0  0  0  0  0  0  0  0  0  0  0  0
    9.3925   12.3581   -2.2103 H   0  0  0  0  0  0  0  0  0  0  0  0
   10.5810   13.3464   -2.9677 H   0  0  0  0  0  0  0  0  0  0  0  0
   12.4214   14.2158   -1.5682 H   0  0  0  0  0  0  0  0  0  0  0  0
   13.1887   12.7389   -1.1622 H   0  0  0  0  0  0  0  0  0  0  0  0
    7.9519   14.9986   -0.9559 H   0  0  0  0  0  0  0  0  0  0  0  0
    9.3290   14.0823   -1.5236 H   0  0  0  0  0  0  0  0  0  0  0  0
   10.8808   15.7999   -0.6595 H   0  0  0  0  0  0  0  0  0  0  0  0
    9.7182   16.5427   -1.7340 H   0  0  0  0  0  0  0  0  0  0  0  0
    8.9581   17.8898   -0.1106 H   0  0  0  0  0  0  0  0  0  0  0  0
   10.3124   17.3559    0.8539 H   0  0  0  0  0  0  0  0  0  0  0  0
    8.7605   16.5663    1.0150 H   0  0  0  0  0  0  0  0  0  0  0  0
  1  2  1  0  0  0  0
  1  6  2  0  0  0  0
  1 22  1  0  0  0  0
  2  3  1  0  0  0  0
  2 18  1  0  0  0  0
  2 23  1  0  0  0  0
  3  4  1  0  0  0  0
  3 10  1  0  0  0  0
  3 24  1  0  0  0  0
  4  5  1  0  0  0  0
  4 14  1  0  0  0  0
  4 25  1  0  0  0  0
  5  6  1  0  0  0  0
  5 26  1  0  0  0  0
  5 27  1  0  0  0  0
  6  7  1  0  0  0  0
  7  8  2  0  0  0  0
  7  9  1  0  0  0  0
 10 11  1  0  0  0  0
 10 28  1  0  0  0  0
 11 12  1  0  0  0  0
 11 13  2  0  0  0  0
 12 29  1  0  0  0  0
 12 30  1  0  0  0  0
 12 31  1  0  0  0  0
 14 15  1  0  0  0  0
 14 32  1  0  0  0  0
 15 17  1  0  0  0  0
 15 16  2  0  0  0  0
 16 33  1  0  0  0  0
 16 34  1  0  0  0  0
 17 35  1  0  0  0  0
 17 36  1  0  0  0  0
 18 19  1  0  0  0  0
 19 20  1  0  0  0  0
 19 37  1  0  0  0  0
 19 38  1  0  0  0  0
 20 21  1  0  0  0  0
 20 39  1  0  0  0  0
 20 40  1  0  0  0  0
 21 41  1  0  0  0  0
 21 42  1  0  0  0  0
 21 43  1  0  0  0  0
M  END
> <Name>
BDB5009

> <Target>
Neuraminidase A

> <IC50_in_nM>
2

> <Kd_from_ITC>
false

> <source_organism>
Influenza A virus (A/Puerto Rico/8/34/Mount Sinai(H1N1))

> <SourceTag>
NA

> <atoms in reference ligand area>
22

> <score>
-32.9013

$$$$
BDB5024
      BALL 1.4.0 (Jan  4 2012, 23:22:29)

 51 51  0999  0  0  0  0  0  0999 V2000
    8.6988   13.6702    1.0470 C   0  0  0  0  0  0  0  0  0  0  0  0
   11.0006   13.1819    1.6879 C   0  0  0  0  0  0  0  0  0  0  0  0
   10.1736   13.7775    0.5298 C   0  0  0  0  0  0  0  0  0  0  0  0
   10.2953   12.9327   -0.7361 C   0  0  0  0  0  0  0  0  0  0  0  0
   11.3301   12.3237   -1.0247 O   0  0  0  0  0  0  0  0  0  0  0  0
    9.2696   12.9374   -1.6248 O   0  5  0  0  0  0  0  0  0  0  0  0
    8.8077   12.7436    2.3117 C   0  0  0  0  0  0  0  0  0  0  0  0
   10.1347   11.9561    2.0958 C   0  0  0  0  0  0  0  0  0  0  0  0
   10.7607   11.1376    3.3158 C   0  0  0  0  0  0  0  0  0  0  0  0
    9.3635    8.9605    3.0513 C   0  0  0  0  0  0  0  0  0  0  0  0
    9.8005    9.2771    1.6050 C   0  0  0  0  0  0  0  0  0  0  0  0
    7.5815   11.9614    2.5609 N   0  0  0  0  0  0  0  0  0  0  0  0
    6.9179   11.1676    1.5399 C   0  0  0  0  0  0  0  0  0  0  0  0
    5.6733   10.9407    1.6647 N   0  3  0  0  0  0  0  0  0  0  0  0
    7.6019   10.6179    0.4027 N   0  0  0  0  0  0  0  0  0  0  0  0
    9.7689   10.0948    4.0332 C   0  0  0  0  0  0  0  0  0  0  0  0
    8.4736   10.6803    4.6546 C   0  0  0  0  0  0  0  0  0  0  0  0
    7.5204    9.5913    5.1853 C   0  0  0  0  0  0  0  0  0  0  0  0
   11.3283   12.0459    4.2944 N   0  0  0  0  0  0  0  0  0  0  0  0
   12.6006   12.6466    4.1232 C   0  0  0  0  0  0  0  0  0  0  0  0
   13.4638   12.3634    2.9194 C   0  0  0  0  0  0  0  0  0  0  0  0
   13.0165   13.4216    4.9913 O   0  0  0  0  0  0  0  0  0  0  0  0
   11.0450   14.1378    2.7540 O   0  0  0  0  0  0  0  0  0  0  0  0
    8.0989   13.2106    0.3190 H   0  0  0  0  0  0  0  0  0  0  0  0
    8.3515   14.6167    1.3276 H   0  0  0  0  0  0  0  0  0  0  0  0
   12.0241   12.9361    1.3741 H   0  0  0  0  0  0  0  0  0  0  0  0
   10.4702   14.8037    0.2723 H   0  0  0  0  0  0  0  0  0  0  0  0
    8.9788   13.4064    3.1674 H   0  0  0  0  0  0  0  0  0  0  0  0
   10.0404   11.2916    1.2492 H   0  0  0  0  0  0  0  0  0  0  0  0
   11.5674   10.5436    2.8816 H   0  0  0  0  0  0  0  0  0  0  0  0
    8.2931    8.8304    3.0782 H   0  0  0  0  0  0  0  0  0  0  0  0
    9.8228    8.0338    3.3671 H   0  0  0  0  0  0  0  0  0  0  0  0
   10.7156    8.7512    1.4044 H   0  0  0  0  0  0  0  0  0  0  0  0
    9.9859   10.3327    1.5303 H   0  0  0  0  0  0  0  0  0  0  0  0
    9.0513    8.9858    0.9217 H   0  0  0  0  0  0  0  0  0  0  0  0
    7.2474   11.8781    3.5289 H   0  0  0  0  0  0  0  0  0  0  0  0
    5.1800   11.3046    2.4466 H   0  0  0  0  0  0  0  0  0  0  0  0
    5.1990   10.3960    0.9829 H   0  0  0  0  0  0  0  0  0  0  0  0
    7.3333   10.8695   -0.5415 H   0  0  0  0  0  0  0  0  0  0  0  0
    8.3810    9.9643    0.5487 H   0  0  0  0  0  0  0  0  0  0  0  0
   10.3507    9.7354    4.8560 H   0  0  0  0  0  0  0  0  0  0  0  0
    7.9558   11.2715    3.9083 H   0  0  0  0  0  0  0  0  0  0  0  0
    8.7395   11.3480    5.4697 H   0  0  0  0  0  0  0  0  0  0  0  0
    7.2667    9.8434    6.2013 H   0  0  0  0  0  0  0  0  0  0  0  0
    8.0588    8.6584    5.1924 H   0  0  0  0  0  0  0  0  0  0  0  0
    6.6629    9.5236    4.5916 H   0  0  0  0  0  0  0  0  0  0  0  0
   10.8082   12.2613    5.1117 H   0  0  0  0  0  0  0  0  0  0  0  0
   14.4592   12.2101    3.3560 H   0  0  0  0  0  0  0  0  0  0  0  0
   13.5145   13.3363    2.4135 H   0  0  0  0  0  0  0  0  0  0  0  0
   13.1491   11.6272    2.3551 H   0  0  0  0  0  0  0  0  0  0  0  0
   11.8024   14.7469    2.6313 H   0  0  0  0  0  0  0  0  0  0  0  0
  1  7  1  0  0  0  0
  1  3  1  0  0  0  0
  1 24  1  0  0  0  0
  1 25  1  0  0  0  0
  2  8  1  0  0  0  0
  2  3  1  0  0  0  0
  2 23  1  0  0  0  0
  2 26  1  0  0  0  0
  3  4  1  0  0  0  0
  3 27  1  0  0  0  0
  4  6  1  0  0  0  0
  4  5  2  0  0  0  0
  7  8  1  0  0  0  0
  7 12  1  0  0  0  0
  7 28  1  0  0  0  0
  8  9  1  0  0  0  0
  8 29  1  0  0  0  0
  9 19  1  0  0  0  0
  9 16  1  0  0  0  0
  9 30  1  0  0  0  0
 10 16  1  0  0  0  0
 10 11  1  0  0  0  0
 10 31  1  0  0  0  0
 10 32  1  0  0  0  0
 11 33  1  0  0  0  0
 11 34  1  0  0  0  0
 11 35  1  0  0  0  0
 12 13  1  0  0  0  0
 12 36  1  0  0  0  0
 13 14  2  0  0  0  0
 13 15  1  0  0  0  0
 14 37  1  0  0  0  0
 14 38  1  0  0  0  0
 15 39  1  0  0  0  0
 15 40  1  0  0  0  0
 16 17  1  0  0  0  0
 16 41  1  0  0  0  0
 17 18  1  0  0  0  0
 17 42  1  0  0  0  0
 17 43  1  0  0  0  0
 18 44  1  0  0  0  0
 18 45  1  0  0  0  0
 18 46  1  0  0  0  0
 19 20  1  0  0  0  0
 19 47  1  0  0  0  0
 20 22  2  0  0  0  0
 20 21  1  0  0  0  0
 21 48  1  0  0  0  0
 21 49  1  0  0  0  0
 21 50  1  0  0  0  0
 23 51  1  0  0  0  0
M  END
> <Name>
BDB5024

> <Target>
Neuraminidase A

> <IC50_in_nM>
1

> <Kd_from_ITC>
false

> <source_organism>
Influenza A virus (A/Singapore/1/57(H2N2))

> <SourceTag>
NA

> <atoms in reference ligand area>
29

> <score>
-31.506

$$$$
BDB5234
      BALL 1.4.0 (Jan  4 2012, 23:22:29)

 46 46  0999  0  0  0  0  0  0999 V2000
    8.4178    9.8966    0.8412 C   0  0  0  0  0  0  0  0  0  0  0  0
    9.4960   10.5818    1.6383 C   0  0  0  0  0  0  0  0  0  0  0  0
    8.8643   11.5119    2.7733 C   0  0  0  0  0  0  0  0  0  0  0  0
    7.5713   12.2636    2.3314 C   0  0  0  0  0  0  0  0  0  0  0  0
    6.5282   11.2391    1.8890 C   0  0  0  0  0  0  0  0  0  0  0  0
    7.1028   10.1967    0.9165 C   0  0  0  0  0  0  0  0  0  0  0  0
    6.2009    9.4015    0.0941 C   0  0  0  0  0  0  0  0  0  0  0  0
    6.6114    8.3872   -0.4683 O   0  0  0  0  0  0  0  0  0  0  0  0
    4.8973    9.7650   -0.0192 O   0  5  0  0  0  0  0  0  0  0  0  0
    7.7470   13.1645    1.2697 N   0  3  0  0  0  0  0  0  0  0  0  0
    8.4945   10.8027    4.0875 N   0  0  0  0  0  0  0  0  0  0  0  0
    9.2585    9.9236    4.9941 C   0  0  0  0  0  0  0  0  0  0  0  0
   10.7474    9.7295    5.0366 C   0  0  0  0  0  0  0  0  0  0  0  0
    8.6051    9.3287    5.8594 O   0  0  0  0  0  0  0  0  0  0  0  0
   10.5365   11.0918    0.5715 N   0  3  0  0  0  0  0  0  0  0  0  0
   10.4214   12.4358   -0.1244 C   0  0  0  0  0  0  0  0  0  0  0  0
   11.7702   13.0074   -0.6729 C   0  0  0  0  0  0  0  0  0  0  0  0
   12.1534   14.3463   -0.0074 C   0  0  0  0  0  0  0  0  0  0  0  0
    9.4965   12.2777   -1.3500 C   0  0  0  0  0  0  0  0  0  0  0  0
    8.7753   13.6169   -1.6373 C   0  0  0  0  0  0  0  0  0  0  0  0
    8.7136    9.1184    0.1690 H   0  0  0  0  0  0  0  0  0  0  0  0
   10.0991    9.8422    2.1845 H   0  0  0  0  0  0  0  0  0  0  0  0
    9.6381   12.2259    3.0837 H   0  0  0  0  0  0  0  0  0  0  0  0
    7.1955   12.8440    3.1844 H   0  0  0  0  0  0  0  0  0  0  0  0
    5.7040   11.7532    1.4116 H   0  0  0  0  0  0  0  0  0  0  0  0
    6.1346   10.7310    2.7635 H   0  0  0  0  0  0  0  0  0  0  0  0
    8.4635   13.8164    1.5145 H   0  0  0  0  0  0  0  0  0  0  0  0
    6.8509   13.6276    1.0824 H   0  0  0  0  0  0  0  0  0  0  0  0
    8.0425   12.6487    0.4364 H   0  0  0  0  0  0  0  0  0  0  0  0
    7.5463   10.9213    4.3539 H   0  0  0  0  0  0  0  0  0  0  0  0
   10.8585    9.2655    6.0443 H   0  0  0  0  0  0  0  0  0  0  0  0
   11.0800   10.7804    5.2045 H   0  0  0  0  0  0  0  0  0  0  0  0
   11.1447    9.2737    4.3192 H   0  0  0  0  0  0  0  0  0  0  0  0
   11.4927   10.9776    0.9273 H   0  0  0  0  0  0  0  0  0  0  0  0
   10.4074   10.4181   -0.1915 H   0  0  0  0  0  0  0  0  0  0  0  0
   10.0538   13.1109    0.6199 H   0  0  0  0  0  0  0  0  0  0  0  0
   11.6877   13.1534   -1.7415 H   0  0  0  0  0  0  0  0  0  0  0  0
   12.5605   12.2850   -0.4996 H   0  0  0  0  0  0  0  0  0  0  0  0
   12.4153   15.0416   -0.7856 H   0  0  0  0  0  0  0  0  0  0  0  0
   13.0218   14.1770    0.6050 H   0  0  0  0  0  0  0  0  0  0  0  0
   11.3586   14.7157    0.5689 H   0  0  0  0  0  0  0  0  0  0  0  0
    8.7692   11.5172   -1.1533 H   0  0  0  0  0  0  0  0  0  0  0  0
   10.0812   11.9968   -2.2051 H   0  0  0  0  0  0  0  0  0  0  0  0
    8.6395   14.1513   -0.7200 H   0  0  0  0  0  0  0  0  0  0  0  0
    7.8199   13.4187   -2.0769 H   0  0  0  0  0  0  0  0  0  0  0  0
    9.3641   14.2054   -2.3106 H   0  0  0  0  0  0  0  0  0  0  0  0
  1  2  1  0  0  0  0
  1  6  2  0  0  0  0
  1 21  1  0  0  0  0
  2  3  1  0  0  0  0
  2 15  1  0  0  0  0
  2 22  1  0  0  0  0
  3  4  1  0  0  0  0
  3 11  1  0  0  0  0
  3 23  1  0  0  0  0
  4  5  1  0  0  0  0
  4 10  1  0  0  0  0
  4 24  1  0  0  0  0
  5  6  1  0  0  0  0
  5 25  1  0  0  0  0
  5 26  1  0  0  0  0
  6  7  1  0  0  0  0
  7  8  2  0  0  0  0
  7  9  1  0  0  0  0
 10 27  1  0  0  0  0
 10 28  1  0  0  0  0
 10 29  1  0  0  0  0
 11 12  1  0  0  0  0
 11 30  1  0  0  0  0
 12 13  1  0  0  0  0
 12 14  2  0  0  0  0
 13 31  1  0  0  0  0
 13 32  1  0  0  0  0
 13 33  1  0  0  0  0
 15 16  1  0  0  0  0
 15 34  1  0  0  0  0
 15 35  1  0  0  0  0
 16 19  1  0  0  0  0
 16 17  1  0  0  0  0
 16 36  1  0  0  0  0
 17 18  1  0  0  0  0
 17 37  1  0  0  0  0
 17 38  1  0  0  0  0
 18 39  1  0  0  0  0
 18 40  1  0  0  0  0
 18 41  1  0  0  0  0
 19 20  1  0  0  0  0
 19 42  1  0  0  0  0
 19 43  1  0  0  0  0
 20 44  1  0  0  0  0
 20 45  1  0  0  0  0
 20 46  1  0  0  0  0
M  END
> <Name>
BDB5234

> <Target>
Neuraminidase A

> <IC50_in_nM>
11

> <Kd_from_ITC>
false

> <source_organism>
Influenza A virus (A/Puerto Rico/8/34(H1N1))

> <SourceTag>
NA

> <atoms in reference ligand area>
30

> <score>
-30.8593

$$$$
BDB5013
      BALL 1.4.0 (Jan  4 2012, 23:22:29)

 49 49  0999  0  0  0  0  0  0999 V2000
   10.3738   12.5903    0.3548 C   0  0  0  0  0  0  0  0  0  0  0  0
   10.3607   11.2086    1.0069 C   0  0  0  0  0  0  0  0  0  0  0  0
    9.7842   11.3079    2.4292 C   0  0  0  0  0  0  0  0  0  0  0  0
   10.3058   12.6051    3.2275 C   0  0  0  0  0  0  0  0  0  0  0  0
    9.8517   13.8211    2.4940 C   0  0  0  0  0  0  0  0  0  0  0  0
   10.1816   13.7530    1.0231 C   0  0  0  0  0  0  0  0  0  0  0  0
   10.2317   15.0138    0.3016 C   0  0  0  0  0  0  0  0  0  0  0  0
   10.6448   15.0508   -0.8609 O   0  0  0  0  0  0  0  0  0  0  0  0
    9.8282   16.1554    0.9217 O   0  5  0  0  0  0  0  0  0  0  0  0
    8.2381   11.2224    2.4446 N   0  0  0  0  0  0  0  0  0  0  0  0
    7.1841   11.4684    1.4213 C   0  0  0  0  0  0  0  0  0  0  0  0
    7.3458   11.9181   -0.0012 C   0  0  0  0  0  0  0  0  0  0  0  0
    6.0211   11.2562    1.7813 O   0  0  0  0  0  0  0  0  0  0  0  0
   11.7844   12.8448    3.6543 N   0  0  0  0  0  0  0  0  0  0  0  0
   13.0110   13.2913    2.8840 C   0  0  0  0  0  0  0  0  0  0  0  0
   13.1067   12.8847    1.6766 N   0  3  0  0  0  0  0  0  0  0  0  0
   14.0981   14.1256    3.3216 N   0  0  0  0  0  0  0  0  0  0  0  0
   11.7015   10.5174    0.8785 O   0  0  0  0  0  0  0  0  0  0  0  0
   12.2450    9.6810    1.9382 C   0  0  0  0  0  0  0  0  0  0  0  0
   13.7491   10.1215    2.1308 C   0  0  0  0  0  0  0  0  0  0  0  0
   14.2703   10.0316    3.5921 C   0  0  0  0  0  0  0  0  0  0  0  0
   12.1431    8.1570    1.5070 C   0  0  0  0  0  0  0  0  0  0  0  0
   12.4672    7.8805    0.0147 C   0  0  0  0  0  0  0  0  0  0  0  0
   10.5464   12.6431   -0.6999 H   0  0  0  0  0  0  0  0  0  0  0  0
    9.7022   10.5470    0.4284 H   0  0  0  0  0  0  0  0  0  0  0  0
   10.0577   10.4002    2.9657 H   0  0  0  0  0  0  0  0  0  0  0  0
    9.7756   12.5859    4.1906 H   0  0  0  0  0  0  0  0  0  0  0  0
   10.3236   14.6930    2.9233 H   0  0  0  0  0  0  0  0  0  0  0  0
    8.7808   13.9303    2.6139 H   0  0  0  0  0  0  0  0  0  0  0  0
    7.8731   10.8831    3.3022 H   0  0  0  0  0  0  0  0  0  0  0  0
    7.5308   13.0090    0.1683 H   0  0  0  0  0  0  0  0  0  0  0  0
    6.2744   11.9009   -0.3248 H   0  0  0  0  0  0  0  0  0  0  0  0
    7.9548   11.4659   -0.5369 H   0  0  0  0  0  0  0  0  0  0  0  0
   11.9535   12.6921    4.6548 H   0  0  0  0  0  0  0  0  0  0  0  0
   12.4064   12.3031    1.2979 H   0  0  0  0  0  0  0  0  0  0  0  0
   13.8954   13.1524    1.1353 H   0  0  0  0  0  0  0  0  0  0  0  0
   14.9679   13.7686    3.5259 H   0  0  0  0  0  0  0  0  0  0  0  0
   13.9198   15.1163    3.5184 H   0  0  0  0  0  0  0  0  0  0  0  0
   11.7068    9.7924    2.8562 H   0  0  0  0  0  0  0  0  0  0  0  0
   14.3859    9.5030    1.4889 H   0  0  0  0  0  0  0  0  0  0  0  0
   13.8675   11.1481    1.7762 H   0  0  0  0  0  0  0  0  0  0  0  0
   15.0559   10.7694    3.6882 H   0  0  0  0  0  0  0  0  0  0  0  0
   14.7236    9.0552    3.7013 H   0  0  0  0  0  0  0  0  0  0  0  0
   13.5171   10.1830    4.2764 H   0  0  0  0  0  0  0  0  0  0  0  0
   12.8204    7.5640    2.1321 H   0  0  0  0  0  0  0  0  0  0  0  0
   11.1356    7.7924    1.7228 H   0  0  0  0  0  0  0  0  0  0  0  0
   12.4049    6.8089   -0.1232 H   0  0  0  0  0  0  0  0  0  0  0  0
   13.4989    8.1700   -0.1378 H   0  0  0  0  0  0  0  0  0  0  0  0
   11.8304    8.3856   -0.6150 H   0  0  0  0  0  0  0  0  0  0  0  0
  1  2  1  0  0  0  0
  1  6  2  0  0  0  0
  1 24  1  0  0  0  0
  2  3  1  0  0  0  0
  2 18  1  0  0  0  0
  2 25  1  0  0  0  0
  3  4  1  0  0  0  0
  3 10  1  0  0  0  0
  3 26  1  0  0  0  0
  4  5  1  0  0  0  0
  4 14  1  0  0  0  0
  4 27  1  0  0  0  0
  5  6  1  0  0  0  0
  5 28  1  0  0  0  0
  5 29  1  0  0  0  0
  6  7  1  0  0  0  0
  7  8  2  0  0  0  0
  7  9  1  0  0  0  0
 10 11  1  0  0  0  0
 10 30  1  0  0  0  0
 11 12  1  0  0  0  0
 11 13  2  0  0  0  0
 12 31  1  0  0  0  0
 12 32  1  0  0  0  0
 12 33  1  0  0  0  0
 14 15  1  0  0  0  0
 14 34  1  0  0  0  0
 15 17  1  0  0  0  0
 15 16  2  0  0  0  0
 16 35  1  0  0  0  0
 16 36  1  0  0  0  0
 17 37  1  0  0  0  0
 17 38  1  0  0  0  0
 18 19  1  0  0  0  0
 19 20  1  0  0  0  0
 19 22  1  0  0  0  0
 19 39  1  0  0  0  0
 20 21  1  0  0  0  0
 20 40  1  0  0  0  0
 20 41  1  0  0  0  0
 21 42  1  0  0  0  0
 21 43  1  0  0  0  0
 21 44  1  0  0  0  0
 22 23  1  0  0  0  0
 22 45  1  0  0  0  0
 22 46  1  0  0  0  0
 23 47  1  0  0  0  0
 23 48  1  0  0  0  0
 23 49  1  0  0  0  0
M  END
> <Name>
BDB5013

> <Target>
Neuraminidase A

> <IC50_in_nM>
0.5

> <Kd_from_ITC>
false

> <source_organism>
Influenza A virus (A/Puerto Rico/8/34/Mount Sinai(H1N1))

> <SourceTag>
NA

> <atoms in reference ligand area>
22

> <score>
-30.7761

$$$$
BDB5195
      BALL 1.4.0 (Jan  4 2012, 23:22:29)

 45 45  0999  0  0  0  0  0  0999 V2000
    7.5811   12.3879   -0.6720 C   0  0  0  0  0  0  0  0  0  0  0  0
    7.9369   12.0088    0.7419 C   0  0  0  0  0  0  0  0  0  0  0  0
    9.9364   12.7902   -0.2742 N   0  3  0  0  0  0  0  0  0  0  0  0
    8.7207   13.3953   -0.9117 C   0  0  0  0  0  0  0  0  0  0  0  0
    8.9148   13.6972   -2.3700 C   0  0  0  0  0  0  0  0  0  0  0  0
    8.1670   14.5008   -2.9382 O   0  0  0  0  0  0  0  0  0  0  0  0
    9.9145   13.0923   -3.0622 O   0  5  0  0  0  0  0  0  0  0  0  0
    9.3995   11.6507    0.5172 C   0  0  0  0  0  0  0  0  0  0  0  0
   10.6676   12.2256    1.2927 C   0  0  0  0  0  0  0  0  0  0  0  0
   11.0294   11.0997    2.4571 C   0  0  0  0  0  0  0  0  0  0  0  0
   12.4148   11.6626    2.0175 C   0  0  0  0  0  0  0  0  0  0  0  0
   13.4458   10.5223    2.0600 C   0  0  0  0  0  0  0  0  0  0  0  0
   12.8998   12.7908    2.9539 C   0  0  0  0  0  0  0  0  0  0  0  0
   10.1117   13.4056    2.0774 N   0  0  0  0  0  0  0  0  0  0  0  0
    9.3150   14.5681    2.0659 C   0  0  0  0  0  0  0  0  0  0  0  0
    9.5864   15.6827    1.0879 C   0  0  0  0  0  0  0  0  0  0  0  0
    8.3899   14.6792    2.8737 O   0  0  0  0  0  0  0  0  0  0  0  0
    7.1445   10.8392    1.2470 C   0  0  0  0  0  0  0  0  0  0  0  0
    7.6781    9.7272    1.3450 O   0  0  0  0  0  0  0  0  0  0  0  0
    4.9634   10.5562    0.5451 C   0  0  0  0  0  0  0  0  0  0  0  0
    5.8099   11.0092    1.6043 O   0  0  0  0  0  0  0  0  0  0  0  0
    6.6035   12.8908   -0.7076 H   0  0  0  0  0  0  0  0  0  0  0  0
    7.6775   11.5228   -1.3444 H   0  0  0  0  0  0  0  0  0  0  0  0
    7.7382   12.7807    1.5000 H   0  0  0  0  0  0  0  0  0  0  0  0
   10.5828   12.4459   -0.9985 H   0  0  0  0  0  0  0  0  0  0  0  0
   10.3885   13.4736    0.3498 H   0  0  0  0  0  0  0  0  0  0  0  0
    8.4926   14.3745   -0.4655 H   0  0  0  0  0  0  0  0  0  0  0  0
    9.5125   10.6934   -0.0127 H   0  0  0  0  0  0  0  0  0  0  0  0
   11.5058   12.4548    0.6182 H   0  0  0  0  0  0  0  0  0  0  0  0
   10.9197   11.2460    3.5418 H   0  0  0  0  0  0  0  0  0  0  0  0
   11.0202   10.0141    2.2799 H   0  0  0  0  0  0  0  0  0  0  0  0
   12.3089   12.0747    1.0031 H   0  0  0  0  0  0  0  0  0  0  0  0
   13.9096   10.4740    3.0563 H   0  0  0  0  0  0  0  0  0  0  0  0
   14.2220   10.6909    1.2991 H   0  0  0  0  0  0  0  0  0  0  0  0
   12.9382    9.5689    1.8521 H   0  0  0  0  0  0  0  0  0  0  0  0
   12.6361   12.5227    3.9877 H   0  0  0  0  0  0  0  0  0  0  0  0
   12.3752   13.7185    2.6820 H   0  0  0  0  0  0  0  0  0  0  0  0
   13.9873   12.9282    2.8625 H   0  0  0  0  0  0  0  0  0  0  0  0
    9.9417   12.6887    2.7972 H   0  0  0  0  0  0  0  0  0  0  0  0
   10.3759   16.2831    1.5635 H   0  0  0  0  0  0  0  0  0  0  0  0
    8.6704   16.2915    1.0999 H   0  0  0  0  0  0  0  0  0  0  0  0
    9.8592   15.3434    0.0778 H   0  0  0  0  0  0  0  0  0  0  0  0
    4.4691   11.4206    0.0776 H   0  0  0  0  0  0  0  0  0  0  0  0
    4.2006    9.8764    0.9526 H   0  0  0  0  0  0  0  0  0  0  0  0
    5.5645   10.0252   -0.2077 H   0  0  0  0  0  0  0  0  0  0  0  0
  1  4  1  0  0  0  0
  1  2  1  0  0  0  0
  1 22  1  0  0  0  0
  1 23  1  0  0  0  0
  2  8  1  0  0  0  0
  2 18  1  0  0  0  0
  2 24  1  0  0  0  0
  3  4  1  0  0  0  0
  3  8  1  0  0  0  0
  3 25  1  0  0  0  0
  3 26  1  0  0  0  0
  4  5  1  0  0  0  0
  4 27  1  0  0  0  0
  5  6  2  0  0  0  0
  5  7  1  0  0  0  0
  8  9  1  0  0  0  0
  8 28  1  0  0  0  0
  9 10  1  0  0  0  0
  9 14  1  0  0  0  0
  9 29  1  0  0  0  0
 10 11  1  0  0  0  0
 10 30  1  0  0  0  0
 10 31  1  0  0  0  0
 11 12  1  0  0  0  0
 11 13  1  0  0  0  0
 11 32  1  0  0  0  0
 12 33  1  0  0  0  0
 12 34  1  0  0  0  0
 12 35  1  0  0  0  0
 13 36  1  0  0  0  0
 13 37  1  0  0  0  0
 13 38  1  0  0  0  0
 14 15  1  0  0  0  0
 14 39  1  0  0  0  0
 15 16  1  0  0  0  0
 15 17  2  0  0  0  0
 16 40  1  0  0  0  0
 16 41  1  0  0  0  0
 16 42  1  0  0  0  0
 18 19  2  0  0  0  0
 18 21  1  0  0  0  0
 20 21  1  0  0  0  0
 20 43  1  0  0  0  0
 20 44  1  0  0  0  0
 20 45  1  0  0  0  0
M  END
> <Name>
BDB5195

> <Target>
Neuraminidase A

> <Ki_in_nM>
260

> <Kd_from_ITC>
false

> <Uniprot_ID>
P06820

> <source_organism>
Influenza A virus (A/Tokyo/3/67(H2N2))

> <SourceTag>
NA

> <atoms in reference ligand area>
26

> <score>
-30.7252

$$$$
BDB5242
      BALL 1.4.0 (Jan  4 2012, 23:22:29)

 40 40  0999  0  0  0  0  0  0999 V2000
    8.3226   11.5060   -0.2309 C   0  0  0  0  0  0  0  0  0  0  0  0
    9.7441   12.0110   -0.2003 C   0  0  0  0  0  0  0  0  0  0  0  0
   10.1792   12.4367    1.2582 C   0  0  0  0  0  0  0  0  0  0  0  0
    9.0679   13.1761    2.0757 C   0  0  0  0  0  0  0  0  0  0  0  0
    7.8821   12.2117    2.1910 C   0  0  0  0  0  0  0  0  0  0  0  0
    7.4751   11.6110    0.8204 C   0  0  0  0  0  0  0  0  0  0  0  0
    6.1466   11.0348    0.6627 C   0  0  0  0  0  0  0  0  0  0  0  0
    5.3337   11.0953    1.5859 O   0  0  0  0  0  0  0  0  0  0  0  0
    5.7943   10.4688   -0.5206 O   0  5  0  0  0  0  0  0  0  0  0  0
    8.5656   14.4372    1.5531 N   0  3  0  0  0  0  0  0  0  0  0  0
   10.6764   11.3221    2.1724 N   0  0  0  0  0  0  0  0  0  0  0  0
   10.7445   11.2011    3.6342 C   0  0  0  0  0  0  0  0  0  0  0  0
   10.2071   12.1611    4.6541 C   0  0  0  0  0  0  0  0  0  0  0  0
   11.2817   10.1779    4.0732 O   0  0  0  0  0  0  0  0  0  0  0  0
    8.6700   13.4426   -2.1464 C   0  0  0  0  0  0  0  0  0  0  0  0
    8.6322   14.9158   -2.5602 C   0  0  0  0  0  0  0  0  0  0  0  0
    8.6878   14.9934   -4.0990 C   0  0  0  0  0  0  0  0  0  0  0  0
    9.9089   13.1388   -1.3079 C   0  0  0  0  0  0  0  0  0  0  0  0
    7.9665   11.0424   -1.1270 H   0  0  0  0  0  0  0  0  0  0  0  0
   10.4585   11.2389   -0.5212 H   0  0  0  0  0  0  0  0  0  0  0  0
   11.0581   13.0870    1.1529 H   0  0  0  0  0  0  0  0  0  0  0  0
    9.4808   13.3986    3.0674 H   0  0  0  0  0  0  0  0  0  0  0  0
    7.0358   12.7364    2.6139 H   0  0  0  0  0  0  0  0  0  0  0  0
    8.1423   11.4065    2.8694 H   0  0  0  0  0  0  0  0  0  0  0  0
    7.6123   14.3660    1.3706 H   0  0  0  0  0  0  0  0  0  0  0  0
    9.0877   14.7043    0.7056 H   0  0  0  0  0  0  0  0  0  0  0  0
    8.6864   15.1607    2.2712 H   0  0  0  0  0  0  0  0  0  0  0  0
   11.0202   10.5277    1.6865 H   0  0  0  0  0  0  0  0  0  0  0  0
    9.3944   11.5428    5.1009 H   0  0  0  0  0  0  0  0  0  0  0  0
    9.6537   12.8663    3.9916 H   0  0  0  0  0  0  0  0  0  0  0  0
   10.8206   12.5431    5.2533 H   0  0  0  0  0  0  0  0  0  0  0  0
    8.6768   12.8242   -3.0307 H   0  0  0  0  0  0  0  0  0  0  0  0
    7.7872   13.2113   -1.5758 H   0  0  0  0  0  0  0  0  0  0  0  0
    9.4722   15.4248   -2.1478 H   0  0  0  0  0  0  0  0  0  0  0  0
    7.7258   15.3618   -2.2129 H   0  0  0  0  0  0  0  0  0  0  0  0
    9.0708   14.0803   -4.4979 H   0  0  0  0  0  0  0  0  0  0  0  0
    9.3081   15.8077   -4.4022 H   0  0  0  0  0  0  0  0  0  0  0  0
    7.6890   15.1518   -4.4817 H   0  0  0  0  0  0  0  0  0  0  0  0
   10.7290   12.8571   -1.9831 H   0  0  0  0  0  0  0  0  0  0  0  0
   10.2413   14.0695   -0.8211 H   0  0  0  0  0  0  0  0  0  0  0  0
  1  2  1  0  0  0  0
  1  6  2  0  0  0  0
  1 19  1  0  0  0  0
  2  3  1  0  0  0  0
  2 18  1  0  0  0  0
  2 20  1  0  0  0  0
  3  4  1  0  0  0  0
  3 11  1  0  0  0  0
  3 21  1  0  0  0  0
  4  5  1  0  0  0  0
  4 10  1  0  0  0  0
  4 22  1  0  0  0  0
  5  6  1  0  0  0  0
  5 23  1  0  0  0  0
  5 24  1  0  0  0  0
  6  7  1  0  0  0  0
  7  8  2  0  0  0  0
  7  9  1  0  0  0  0
 10 25  1  0  0  0  0
 10 26  1  0  0  0  0
 10 27  1  0  0  0  0
 11 12  1  0  0  0  0
 11 28  1  0  0  0  0
 12 13  1  0  0  0  0
 12 14  2  0  0  0  0
 13 29  1  0  0  0  0
 13 30  1  0  0  0  0
 13 31  1  0  0  0  0
 15 18  1  0  0  0  0
 15 16  1  0  0  0  0
 15 32  1  0  0  0  0
 15 33  1  0  0  0  0
 16 17  1  0  0  0  0
 16 34  1  0  0  0  0
 16 35  1  0  0  0  0
 17 36  1  0  0  0  0
 17 37  1  0  0  0  0
 17 38  1  0  0  0  0
 18 39  1  0  0  0  0
 18 40  1  0  0  0  0
M  END
> <Name>
BDB5242

> <Target>
Neuraminidase A

> <IC50_in_nM>
220

> <Kd_from_ITC>
false

> <source_organism>
Influenza A virus (A/Puerto Rico/8/34(H1N1))

> <SourceTag>
NA

> <atoms in reference ligand area>
29

> <score>
-29.7528

$$$$
BDB5015
      BALL 1.4.0 (Jan  4 2012, 23:22:29)

 44 44  0999  0  0  0  0  0  0999 V2000
   10.8036   12.9088    0.9808 C   0  0  0  0  0  0  0  0  0  0  0  0
   11.2379   12.9551    2.4965 C   0  0  0  0  0  0  0  0  0  0  0  0
   10.0513   13.1573    3.4890 C   0  0  0  0  0  0  0  0  0  0  0  0
    9.0637   12.0123    3.2928 C   0  0  0  0  0  0  0  0  0  0  0  0
    8.7301   11.7359    1.7982 C   0  0  0  0  0  0  0  0  0  0  0  0
    7.5207   10.9432    1.5083 C   0  0  0  0  0  0  0  0  0  0  0  0
    7.6151    9.9396    0.7904 O   0  0  0  0  0  0  0  0  0  0  0  0
    6.2973   11.3219    1.9640 O   0  5  0  0  0  0  0  0  0  0  0  0
   12.0508   11.7577    2.9897 N   0  0  0  0  0  0  0  0  0  0  0  0
   13.3257   11.6521    3.7102 C   0  0  0  0  0  0  0  0  0  0  0  0
   14.0572   12.7466    4.4287 C   0  0  0  0  0  0  0  0  0  0  0  0
   13.8164   10.5199    3.7887 O   0  0  0  0  0  0  0  0  0  0  0  0
    9.3137   14.3809    3.3620 N   0  3  0  0  0  0  0  0  0  0  0  0
   10.6920   14.2306    0.2709 O   0  0  0  0  0  0  0  0  0  0  0  0
   10.1680   14.2926   -1.0670 C   0  0  0  0  0  0  0  0  0  0  0  0
   11.2917   14.6742   -2.0554 C   0  0  0  0  0  0  0  0  0  0  0  0
   11.9957   15.9630   -1.5722 C   0  0  0  0  0  0  0  0  0  0  0  0
    9.0330   15.3522   -1.1444 C   0  0  0  0  0  0  0  0  0  0  0  0
    8.0649   15.0321   -2.2938 C   0  0  0  0  0  0  0  0  0  0  0  0
    9.5322   12.1213    0.7702 C   0  0  0  0  0  0  0  0  0  0  0  0
    9.1986   11.8064   -0.4878 F   0  0  0  0  0  0  0  0  0  0  0  0
   11.6393   12.4410    0.4419 H   0  0  0  0  0  0  0  0  0  0  0  0
   11.9500   13.7848    2.5974 H   0  0  0  0  0  0  0  0  0  0  0  0
   10.4570   13.1461    4.5088 H   0  0  0  0  0  0  0  0  0  0  0  0
    8.1447   12.2400    3.8249 H   0  0  0  0  0  0  0  0  0  0  0  0
    9.4747   11.1078    3.7386 H   0  0  0  0  0  0  0  0  0  0  0  0
   11.6557   10.8803    2.7470 H   0  0  0  0  0  0  0  0  0  0  0  0
   13.5609   13.6418    3.9880 H   0  0  0  0  0  0  0  0  0  0  0  0
   15.0372   12.7133    3.8991 H   0  0  0  0  0  0  0  0  0  0  0  0
   14.0862   12.7031    5.3667 H   0  0  0  0  0  0  0  0  0  0  0  0
    8.3817   14.1826    3.1209 H   0  0  0  0  0  0  0  0  0  0  0  0
    9.7645   14.9834    2.6609 H   0  0  0  0  0  0  0  0  0  0  0  0
    9.3100   14.8585    4.2693 H   0  0  0  0  0  0  0  0  0  0  0  0
    9.7756   13.3320   -1.3279 H   0  0  0  0  0  0  0  0  0  0  0  0
   10.8727   14.8405   -3.0262 H   0  0  0  0  0  0  0  0  0  0  0  0
   12.0069   13.8758   -2.1091 H   0  0  0  0  0  0  0  0  0  0  0  0
   13.0545   15.8094   -1.5672 H   0  0  0  0  0  0  0  0  0  0  0  0
   11.6666   16.1978   -0.5814 H   0  0  0  0  0  0  0  0  0  0  0  0
   11.7547   16.7728   -2.2306 H   0  0  0  0  0  0  0  0  0  0  0  0
    9.4626   16.3250   -1.3023 H   0  0  0  0  0  0  0  0  0  0  0  0
    8.4899   15.3626   -0.2135 H   0  0  0  0  0  0  0  0  0  0  0  0
    7.7798   15.9490   -2.7714 H   0  0  0  0  0  0  0  0  0  0  0  0
    7.1899   14.5626   -1.8886 H   0  0  0  0  0  0  0  0  0  0  0  0
    8.5324   14.3866   -2.9952 H   0  0  0  0  0  0  0  0  0  0  0  0
  1 20  1  0  0  0  0
  1  2  1  0  0  0  0
  1 14  1  0  0  0  0
  1 22  1  0  0  0  0
  2  3  1  0  0  0  0
  2  9  1  0  0  0  0
  2 23  1  0  0  0  0
  3  4  1  0  0  0  0
  3 13  1  0  0  0  0
  3 24  1  0  0  0  0
  4  5  1  0  0  0  0
  4 25  1  0  0  0  0
  4 26  1  0  0  0  0
  5 20  2  0  0  0  0
  5  6  1  0  0  0  0
  6  7  2  0  0  0  0
  6  8  1  0  0  0  0
  9 10  1  0  0  0  0
  9 27  1  0  0  0  0
 10 11  1  0  0  0  0
 10 12  2  0  0  0  0
 11 28  1  0  0  0  0
 11 29  1  0  0  0  0
 11 30  1  0  0  0  0
 13 31  1  0  0  0  0
 13 32  1  0  0  0  0
 13 33  1  0  0  0  0
 14 15  1  0  0  0  0
 15 16  1  0  0  0  0
 15 18  1  0  0  0  0
 15 34  1  0  0  0  0
 16 17  1  0  0  0  0
 16 35  1  0  0  0  0
 16 36  1  0  0  0  0
 17 37  1  0  0  0  0
 17 38  1  0  0  0  0
 17 39  1  0  0  0  0
 18 19  1  0  0  0  0
 18 40  1  0  0  0  0
 18 41  1  0  0  0  0
 19 42  1  0  0  0  0
 19 43  1  0  0  0  0
 19 44  1  0  0  0  0
 20 21  1  0  0  0  0
M  END
> <Name>
BDB5015

> <Target>
Neuraminidase A

> <IC50_in_nM>
3

> <Kd_from_ITC>
false

> <source_organism>
Influenza A virus (A/Puerto Rico/8/34/Mount Sinai(H1N1))

> <SourceTag>
NA

> <atoms in reference ligand area>
25

> <score>
-29.218

$$$$
BDB4972
      BALL 1.4.0 (Jan  4 2012, 23:22:29)

 65 67  0999  0  0  0  0  0  0999 V2000
    6.8988   10.8627    2.0707 C   0  0  0  0  0  0  0  0  0  0  0  0
    9.4381   11.8361    2.4952 C   0  0  0  0  0  0  0  0  0  0  0  0
    8.3447   12.8518    2.2163 C   0  0  0  0  0  0  0  0  0  0  0  0
    7.1385   12.1334    1.7297 C   0  0  0  0  0  0  0  0  0  0  0  0
    7.7582   10.1158    2.9212 O   0  0  0  0  0  0  0  0  0  0  0  0
    5.7176   10.2001    1.5154 C   0  0  0  0  0  0  0  0  0  0  0  0
    5.5745    8.9791    1.6460 O   0  0  0  0  0  0  0  0  0  0  0  0
    4.7782   10.9274    0.8563 O   0  5  0  0  0  0  0  0  0  0  0  0
    9.9201    9.8809    3.9823 C   0  0  0  0  0  0  0  0  0  0  0  0
   11.0241    9.9067    3.4269 O   0  0  0  0  0  0  0  0  0  0  0  0
    8.8505   10.8640    3.4999 C   0  0  0  0  0  0  0  0  0  0  0  0
   10.5855   12.5343    3.0907 N   0  0  0  0  0  0  0  0  0  0  0  0
   10.7003   12.9793    4.4534 C   0  0  0  0  0  0  0  0  0  0  0  0
    9.6143   12.7798    5.4924 C   0  0  0  0  0  0  0  0  0  0  0  0
   11.7391   13.5547    4.7956 O   0  0  0  0  0  0  0  0  0  0  0  0
    8.7969   13.8334    1.2203 N   0  3  0  0  0  0  0  0  0  0  0  0
   10.8809    8.4192    5.7121 C   0  0  0  0  0  0  0  0  0  0  0  0
   10.4964    7.7895    7.0679 C   0  0  0  0  0  0  0  0  0  0  0  0
   11.7243    7.2656    7.7524 C   0  0  0  0  0  0  0  0  0  0  0  0
   12.9349    7.9345    7.6176 C   0  0  0  0  0  0  0  0  0  0  0  0
   11.6510    6.1071    8.5163 C   0  0  0  0  0  0  0  0  0  0  0  0
   12.7888    5.6169    9.1459 C   0  0  0  0  0  0  0  0  0  0  0  0
    9.7167    8.9225    5.0223 N   0  0  0  0  0  0  0  0  0  0  0  0
    8.4032    8.4339    5.3934 C   0  0  0  0  0  0  0  0  0  0  0  0
    7.3982    9.6058    5.4973 C   0  0  0  0  0  0  0  0  0  0  0  0
    5.9702    9.0434    5.6066 C   0  0  0  0  0  0  0  0  0  0  0  0
   13.9997    6.2855    9.0114 C   0  0  0  0  0  0  0  0  0  0  0  0
   14.0726    7.4441    8.2473 C   0  0  0  0  0  0  0  0  0  0  0  0
   15.3503    8.1492    8.1055 C   0  0  0  0  0  0  0  0  0  0  0  0
   17.7049    8.1193    7.6055 C   0  0  0  0  0  0  0  0  0  0  0  0
   17.7708    9.4886    7.8374 C   0  0  0  0  0  0  0  0  0  0  0  0
   16.6272   10.1876    8.2030 C   0  0  0  0  0  0  0  0  0  0  0  0
   15.4163    9.5174    8.3371 C   0  0  0  0  0  0  0  0  0  0  0  0
   16.4951    7.4497    7.7395 C   0  0  0  0  0  0  0  0  0  0  0  0
    9.7744   11.3180    1.5850 H   0  0  0  0  0  0  0  0  0  0  0  0
    8.1015   13.3970    3.1402 H   0  0  0  0  0  0  0  0  0  0  0  0
    6.4274   12.6581    1.0749 H   0  0  0  0  0  0  0  0  0  0  0  0
    8.4753   11.4534    4.3495 H   0  0  0  0  0  0  0  0  0  0  0  0
   11.3864   12.7238    2.4713 H   0  0  0  0  0  0  0  0  0  0  0  0
    9.7972   13.5911    6.2124 H   0  0  0  0  0  0  0  0  0  0  0  0
    9.9116   11.8488    5.9972 H   0  0  0  0  0  0  0  0  0  0  0  0
    8.5846   12.7600    5.1059 H   0  0  0  0  0  0  0  0  0  0  0  0
    9.5128   14.4395    1.6459 H   0  0  0  0  0  0  0  0  0  0  0  0
    7.9952   14.4100    0.9277 H   0  0  0  0  0  0  0  0  0  0  0  0
    9.1932   13.3481    0.4029 H   0  0  0  0  0  0  0  0  0  0  0  0
   11.5866    9.2454    5.8837 H   0  0  0  0  0  0  0  0  0  0  0  0
   11.3721    7.6595    5.0862 H   0  0  0  0  0  0  0  0  0  0  0  0
    9.7904    6.9625    6.9014 H   0  0  0  0  0  0  0  0  0  0  0  0
   10.0210    8.5512    7.7034 H   0  0  0  0  0  0  0  0  0  0  0  0
   12.9928    8.8514    7.0128 H   0  0  0  0  0  0  0  0  0  0  0  0
   10.6925    5.5781    8.6226 H   0  0  0  0  0  0  0  0  0  0  0  0
   12.7310    4.6998    9.7506 H   0  0  0  0  0  0  0  0  0  0  0  0
    8.4657    7.9213    6.3646 H   0  0  0  0  0  0  0  0  0  0  0  0
    8.0524    7.7202    4.6334 H   0  0  0  0  0  0  0  0  0  0  0  0
    7.4754   10.2377    4.6003 H   0  0  0  0  0  0  0  0  0  0  0  0
    7.6250   10.2059    6.3909 H   0  0  0  0  0  0  0  0  0  0  0  0
    5.9963    8.0650    6.1088 H   0  0  0  0  0  0  0  0  0  0  0  0
    5.5412    8.9276    4.6003 H   0  0  0  0  0  0  0  0  0  0  0  0
    5.3473    9.7365    6.1909 H   0  0  0  0  0  0  0  0  0  0  0  0
   14.9004    5.8976    9.5097 H   0  0  0  0  0  0  0  0  0  0  0  0
   18.6106    7.5662    7.3161 H   0  0  0  0  0  0  0  0  0  0  0  0
   18.7287   10.0187    7.7312 H   0  0  0  0  0  0  0  0  0  0  0  0
   16.6797   11.2709    8.3863 H   0  0  0  0  0  0  0  0  0  0  0  0
   14.5106   10.0705    8.6265 H   0  0  0  0  0  0  0  0  0  0  0  0
   16.4426    6.3663    7.5563 H   0  0  0  0  0  0  0  0  0  0  0  0
  1  5  1  0  0  0  0
  1  4  2  0  0  0  0
  1  6  1  0  0  0  0
  2 11  1  0  0  0  0
  2  3  1  0  0  0  0
  2 12  1  0  0  0  0
  2 35  1  0  0  0  0
  3  4  1  0  0  0  0
  3 16  1  0  0  0  0
  3 36  1  0  0  0  0
  4 37  1  0  0  0  0
  5 11  1  0  0  0  0
  6  7  2  0  0  0  0
  6  8  1  0  0  0  0
  9 11  1  0  0  0  0
  9 23  1  0  0  0  0
  9 10  2  0  0  0  0
 11 38  1  0  0  0  0
 12 13  1  0  0  0  0
 12 39  1  0  0  0  0
 13 14  1  0  0  0  0
 13 15  2  0  0  0  0
 14 40  1  0  0  0  0
 14 41  1  0  0  0  0
 14 42  1  0  0  0  0
 16 43  1  0  0  0  0
 16 44  1  0  0  0  0
 16 45  1  0  0  0  0
 17 23  1  0  0  0  0
 17 18  1  0  0  0  0
 17 46  1  0  0  0  0
 17 47  1  0  0  0  0
 18 19  1  0  0  0  0
 18 48  1  0  0  0  0
 18 49  1  0  0  0  0
 19 20  2  0  0  0  0
 19 21  1  0  0  0  0
 20 28  1  0  0  0  0
 20 50  1  0  0  0  0
 21 22  2  0  0  0  0
 21 51  1  0  0  0  0
 22 27  1  0  0  0  0
 22 52  1  0  0  0  0
 23 24  1  0  0  0  0
 24 25  1  0  0  0  0
 24 53  1  0  0  0  0
 24 54  1  0  0  0  0
 25 26  1  0  0  0  0
 25 55  1  0  0  0  0
 25 56  1  0  0  0  0
 26 57  1  0  0  0  0
 26 58  1  0  0  0  0
 26 59  1  0  0  0  0
 27 28  2  0  0  0  0
 27 60  1  0  0  0  0
 28 29  1  0  0  0  0
 29 33  2  0  0  0  0
 29 34  1  0  0  0  0
 30 31  1  0  0  0  0
 30 34  2  0  0  0  0
 30 61  1  0  0  0  0
 31 32  2  0  0  0  0
 31 62  1  0  0  0  0
 32 33  1  0  0  0  0
 32 63  1  0  0  0  0
 33 64  1  0  0  0  0
 34 65  1  0  0  0  0
M  END
> <Name>
BDB4972

> <Target>
Neuraminidase A

> <IC50_in_nM>
2

> <Kd_from_ITC>
false

> <source_organism>
Influenza A virus (A/Singapore/1/57(H2N2))

> <SourceTag>
NA

> <atoms in reference ligand area>
17

> <score>
-28.8651

$$$$
BDB5219
      BALL 1.4.0 (Jan  4 2012, 23:22:29)

 37 37  0999  0  0  0  0  0  0999 V2000
   10.1276   11.9741    2.4363 C   0  0  0  0  0  0  0  0  0  0  0  0
    8.6816   12.3467    2.6475 C   0  0  0  0  0  0  0  0  0  0  0  0
    7.8362   12.1216    1.3396 C   0  0  0  0  0  0  0  0  0  0  0  0
    8.5379   12.6410    0.0559 C   0  0  0  0  0  0  0  0  0  0  0  0
    9.8362   11.8307   -0.0945 C   0  0  0  0  0  0  0  0  0  0  0  0
   10.6555   11.7526    1.2083 C   0  0  0  0  0  0  0  0  0  0  0  0
   12.0448   11.3241    1.1459 C   0  0  0  0  0  0  0  0  0  0  0  0
   12.9477   12.1544    1.0658 O   0  0  0  0  0  0  0  0  0  0  0  0
    7.5212   10.6931    1.0514 N   0  5  0  0  0  0  0  0  0  0  0  0
    6.2669   10.0676    0.7631 C   0  0  0  0  0  0  0  0  0  0  0  0
    5.2070   10.6896    0.6883 O   0  0  0  0  0  0  0  0  0  0  0  0
    8.5748   13.7167    3.1754 O   0  0  0  0  0  0  0  0  0  0  0  0
    8.8606   14.0608    0.0140 N   0  3  0  0  0  0  0  0  0  0  0  0
   12.3400    9.9996    1.2384 O   0  5  0  0  0  0  0  0  0  0  0  0
    9.5035   14.6666    2.6499 C   0  0  0  0  0  0  0  0  0  0  0  0
    8.7804   16.0318    2.5698 C   0  0  0  0  0  0  0  0  0  0  0  0
    9.8112   17.1644    2.4299 C   0  0  0  0  0  0  0  0  0  0  0  0
    6.2379    8.5824    0.5825 C   0  0  0  0  0  0  0  0  0  0  0  0
    5.6787    8.2875   -0.6416 F   0  0  0  0  0  0  0  0  0  0  0  0
    7.5248    8.0863    0.6321 F   0  0  0  0  0  0  0  0  0  0  0  0
    5.4791    8.0098    1.5832 F   0  0  0  0  0  0  0  0  0  0  0  0
   10.7632   11.8808    3.2921 H   0  0  0  0  0  0  0  0  0  0  0  0
    8.2299   11.7202    3.4310 H   0  0  0  0  0  0  0  0  0  0  0  0
    6.8674   12.6212    1.4785 H   0  0  0  0  0  0  0  0  0  0  0  0
    7.8745   12.4427   -0.7942 H   0  0  0  0  0  0  0  0  0  0  0  0
   10.4477   12.2787   -0.8711 H   0  0  0  0  0  0  0  0  0  0  0  0
    9.5909   10.8223   -0.4210 H   0  0  0  0  0  0  0  0  0  0  0  0
    9.1908   14.3024   -0.8712 H   0  0  0  0  0  0  0  0  0  0  0  0
    9.5569   14.2878    0.7361 H   0  0  0  0  0  0  0  0  0  0  0  0
    8.0017   14.5982    0.1843 H   0  0  0  0  0  0  0  0  0  0  0  0
   10.3428   14.7453    3.3002 H   0  0  0  0  0  0  0  0  0  0  0  0
    9.8097   14.3690    1.6778 H   0  0  0  0  0  0  0  0  0  0  0  0
    8.2039   16.1837    3.4600 H   0  0  0  0  0  0  0  0  0  0  0  0
    8.1244   16.0394    1.7191 H   0  0  0  0  0  0  0  0  0  0  0  0
    9.3034   18.0777    2.1970 H   0  0  0  0  0  0  0  0  0  0  0  0
   10.4921   16.9269    1.6386 H   0  0  0  0  0  0  0  0  0  0  0  0
   10.3503   17.2768    3.3460 H   0  0  0  0  0  0  0  0  0  0  0  0
  1  2  1  0  0  0  0
  1  6  2  0  0  0  0
  1 22  1  0  0  0  0
  2  3  1  0  0  0  0
  2 12  1  0  0  0  0
  2 23  1  0  0  0  0
  3  4  1  0  0  0  0
  3  9  1  0  0  0  0
  3 24  1  0  0  0  0
  4  5  1  0  0  0  0
  4 13  1  0  0  0  0
  4 25  1  0  0  0  0
  5  6  1  0  0  0  0
  5 26  1  0  0  0  0
  5 27  1  0  0  0  0
  6  7  1  0  0  0  0
  7  8  2  0  0  0  0
  7 14  1  0  0  0  0
  9 10  1  0  0  0  0
 10 18  1  0  0  0  0
 10 11  2  0  0  0  0
 12 15  1  0  0  0  0
 13 28  1  0  0  0  0
 13 29  1  0  0  0  0
 13 30  1  0  0  0  0
 15 16  1  0  0  0  0
 15 31  1  0  0  0  0
 15 32  1  0  0  0  0
 16 17  1  0  0  0  0
 16 33  1  0  0  0  0
 16 34  1  0  0  0  0
 17 35  1  0  0  0  0
 17 36  1  0  0  0  0
 17 37  1  0  0  0  0
 18 21  1  0  0  0  0
 18 19  1  0  0  0  0
 18 20  1  0  0  0  0
M  END
> <Name>
BDB5219

> <Target>
Neuraminidase A

> <IC50_in_nM>
100

> <Kd_from_ITC>
false

> <source_organism>
Influenza A virus (A/Puerto Rico/8/34(H1N1))

> <SourceTag>
NA

> <atoms in reference ligand area>
23

> <score>
-28.6911

$$$$
BDB5198
      BALL 1.4.0 (Jan  4 2012, 23:22:29)

 45 46  0999  0  0  0  0  0  0999 V2000
    7.9780   12.7422   -1.6855 C   0  0  0  0  0  0  0  0  0  0  0  0
    7.9128   12.5620   -0.1913 C   0  0  0  0  0  0  0  0  0  0  0  0
   10.1423   13.2033   -0.7004 N   0  3  0  0  0  0  0  0  0  0  0  0
    9.1741   13.7110   -1.7276 C   0  0  0  0  0  0  0  0  0  0  0  0
    9.7767   13.8105   -3.0996 C   0  0  0  0  0  0  0  0  0  0  0  0
    9.2453   14.5259   -3.9561 O   0  0  0  0  0  0  0  0  0  0  0  0
   10.9076   13.1196   -3.3970 O   0  5  0  0  0  0  0  0  0  0  0  0
    9.3666   12.1814    0.0527 C   0  0  0  0  0  0  0  0  0  0  0  0
   10.3883   12.8617    1.0692 C   0  0  0  0  0  0  0  0  0  0  0  0
   10.3719   11.9076    2.4271 C   0  0  0  0  0  0  0  0  0  0  0  0
   11.6354   12.8043    2.5978 C   0  0  0  0  0  0  0  0  0  0  0  0
   12.8844   11.9566    2.3035 C   0  0  0  0  0  0  0  0  0  0  0  0
   11.7543   13.3622    4.0329 C   0  0  0  0  0  0  0  0  0  0  0  0
    9.6780   14.1364    1.5027 N   0  0  0  0  0  0  0  0  0  0  0  0
    9.1759   14.9109    2.5677 C   0  0  0  0  0  0  0  0  0  0  0  0
    8.1776   14.3356    3.5396 C   0  0  0  0  0  0  0  0  0  0  0  0
    9.5506   16.0783    2.6999 O   0  0  0  0  0  0  0  0  0  0  0  0
    6.9711   11.4639    0.2195 C   0  0  0  0  0  0  0  0  0  0  0  0
    5.6511    9.4774    0.4208 C   0  0  0  0  0  0  0  0  0  0  0  0
    5.4857   10.3965    1.4562 C   0  0  0  0  0  0  0  0  0  0  0  0
    6.2334   11.4934    1.3176 N   0  0  0  0  0  0  0  0  0  0  0  0
    6.7650   10.0780   -0.6796 S   0  0  0  0  0  0  0  0  0  0  0  0
    7.0672   13.2321   -2.0603 H   0  0  0  0  0  0  0  0  0  0  0  0
    8.2271   11.7933   -2.1829 H   0  0  0  0  0  0  0  0  0  0  0  0
    7.5378   13.4295    0.3716 H   0  0  0  0  0  0  0  0  0  0  0  0
   10.9521   12.7650   -1.1619 H   0  0  0  0  0  0  0  0  0  0  0  0
   10.4267   13.9675   -0.0711 H   0  0  0  0  0  0  0  0  0  0  0  0
    8.8655   14.7414   -1.4973 H   0  0  0  0  0  0  0  0  0  0  0  0
    9.5887   11.1609   -0.2923 H   0  0  0  0  0  0  0  0  0  0  0  0
   11.3886   12.9990    0.6326 H   0  0  0  0  0  0  0  0  0  0  0  0
    9.7189   12.0521    3.3004 H   0  0  0  0  0  0  0  0  0  0  0  0
   10.6866   10.8536    2.4360 H   0  0  0  0  0  0  0  0  0  0  0  0
   11.5483   13.6517    1.9019 H   0  0  0  0  0  0  0  0  0  0  0  0
   13.5328   11.9248    3.1915 H   0  0  0  0  0  0  0  0  0  0  0  0
   13.4385   12.3880    1.4568 H   0  0  0  0  0  0  0  0  0  0  0  0
   12.5737   10.9331    2.0471 H   0  0  0  0  0  0  0  0  0  0  0  0
   11.4490   12.5755    4.7386 H   0  0  0  0  0  0  0  0  0  0  0  0
   11.0677   14.2157    4.1326 H   0  0  0  0  0  0  0  0  0  0  0  0
   12.7871   13.6788    4.2402 H   0  0  0  0  0  0  0  0  0  0  0  0
   10.3110   14.5752    0.8189 H   0  0  0  0  0  0  0  0  0  0  0  0
    7.7531   15.2113    4.0523 H   0  0  0  0  0  0  0  0  0  0  0  0
    8.7886   13.7971    4.2790 H   0  0  0  0  0  0  0  0  0  0  0  0
    7.4093   13.6987    3.0770 H   0  0  0  0  0  0  0  0  0  0  0  0
    5.1325    8.5107    0.3388 H   0  0  0  0  0  0  0  0  0  0  0  0
    4.8051   10.2335    2.3048 H   0  0  0  0  0  0  0  0  0  0  0  0
  1  4  1  0  0  0  0
  1  2  1  0  0  0  0
  1 23  1  0  0  0  0
  1 24  1  0  0  0  0
  2  8  1  0  0  0  0
  2 18  1  0  0  0  0
  2 25  1  0  0  0  0
  3  4  1  0  0  0  0
  3  8  1  0  0  0  0
  3 26  1  0  0  0  0
  3 27  1  0  0  0  0
  4  5  1  0  0  0  0
  4 28  1  0  0  0  0
  5  6  2  0  0  0  0
  5  7  1  0  0  0  0
  8  9  1  0  0  0  0
  8 29  1  0  0  0  0
  9 10  1  0  0  0  0
  9 14  1  0  0  0  0
  9 30  1  0  0  0  0
 10 11  1  0  0  0  0
 10 31  1  0  0  0  0
 10 32  1  0  0  0  0
 11 12  1  0  0  0  0
 11 13  1  0  0  0  0
 11 33  1  0  0  0  0
 12 34  1  0  0  0  0
 12 35  1  0  0  0  0
 12 36  1  0  0  0  0
 13 37  1  0  0  0  0
 13 38  1  0  0  0  0
 13 39  1  0  0  0  0
 14 15  1  0  0  0  0
 14 40  1  0  0  0  0
 15 16  1  0  0  0  0
 15 17  2  0  0  0  0
 16 41  1  0  0  0  0
 16 42  1  0  0  0  0
 16 43  1  0  0  0  0
 18 21  2  0  0  0  0
 18 22  1  0  0  0  0
 19 20  2  0  0  0  0
 19 22  1  0  0  0  0
 19 44  1  0  0  0  0
 20 21  1  0  0  0  0
 20 45  1  0  0  0  0
M  END
> <Name>
BDB5198

> <Target>
Neuraminidase A

> <Ki_in_nM>
310

> <Kd_from_ITC>
false

> <Uniprot_ID>
P06820

> <source_organism>
Influenza A virus (A/Tokyo/3/67(H2N2))

> <SourceTag>
NA

> <atoms in reference ligand area>
32

> <score>
-28.4904

$$$$
BDB4977
      BALL 1.4.0 (Jan  4 2012, 23:22:29)

 46 47  0999  0  0  0  0  0  0999 V2000
    9.4291   12.3664    0.0634 C   0  0  0  0  0  0  0  0  0  0  0  0
    9.5348   12.9592   -1.4009 C   0  0  0  0  0  0  0  0  0  0  0  0
    8.6121   14.1770   -1.5275 C   0  0  0  0  0  0  0  0  0  0  0  0
    8.8565   15.0986   -0.3581 C   0  0  0  0  0  0  0  0  0  0  0  0
    9.3820   14.6623    0.8076 C   0  0  0  0  0  0  0  0  0  0  0  0
    9.7747   13.3183    1.0527 O   0  0  0  0  0  0  0  0  0  0  0  0
    9.6337   15.6104    1.8889 C   0  0  0  0  0  0  0  0  0  0  0  0
    9.4826   16.8231    1.6742 O   0  0  0  0  0  0  0  0  0  0  0  0
   10.0281   15.1837    3.1058 O   0  5  0  0  0  0  0  0  0  0  0  0
    7.1840   13.7891   -1.5946 N   0  3  0  0  0  0  0  0  0  0  0  0
   10.9188   13.2987   -1.9487 N   0  0  0  0  0  0  0  0  0  0  0  0
   11.1265   15.9302   -1.9255 C   0  0  0  0  0  0  0  0  0  0  0  0
   11.5712   14.5580   -2.2879 C   0  0  0  0  0  0  0  0  0  0  0  0
   12.6453   14.4708   -2.8940 O   0  0  0  0  0  0  0  0  0  0  0  0
    7.1326   12.0561   -0.4474 O   0  0  0  0  0  0  0  0  0  0  0  0
    8.0272   11.7330    0.3414 C   0  0  0  0  0  0  0  0  0  0  0  0
    8.4959    9.9772    2.3308 C   0  0  0  0  0  0  0  0  0  0  0  0
    7.6149    8.7453    2.6018 C   0  0  0  0  0  0  0  0  0  0  0  0
    6.2717    9.4606    2.7461 C   0  0  0  0  0  0  0  0  0  0  0  0
    6.2932   10.2661    1.4364 C   0  0  0  0  0  0  0  0  0  0  0  0
    7.6501   10.7308    1.3757 N   0  0  0  0  0  0  0  0  0  0  0  0
    6.0645    9.2997    0.2580 C   0  0  0  0  0  0  0  0  0  0  0  0
    8.6005   10.6893    3.7078 C   0  0  0  0  0  0  0  0  0  0  0  0
   10.1333   11.5227    0.1171 H   0  0  0  0  0  0  0  0  0  0  0  0
    9.1817   12.2014   -2.1132 H   0  0  0  0  0  0  0  0  0  0  0  0
    8.8196   14.6865   -2.4764 H   0  0  0  0  0  0  0  0  0  0  0  0
    8.6048   16.1339   -0.4555 H   0  0  0  0  0  0  0  0  0  0  0  0
    6.6934   14.0540   -0.7835 H   0  0  0  0  0  0  0  0  0  0  0  0
    7.1228   12.7671   -1.6999 H   0  0  0  0  0  0  0  0  0  0  0  0
    6.7485   14.2399   -2.4073 H   0  0  0  0  0  0  0  0  0  0  0  0
   11.4615   12.4978   -2.1755 H   0  0  0  0  0  0  0  0  0  0  0  0
   10.0224   15.8138   -2.0178 H   0  0  0  0  0  0  0  0  0  0  0  0
   11.4028   16.4819   -2.8531 H   0  0  0  0  0  0  0  0  0  0  0  0
   11.4435   16.2878   -1.1157 H   0  0  0  0  0  0  0  0  0  0  0  0
    9.4765    9.7045    1.9434 H   0  0  0  0  0  0  0  0  0  0  0  0
    7.8800    8.3105    3.4927 H   0  0  0  0  0  0  0  0  0  0  0  0
    7.6016    8.1319    1.7756 H   0  0  0  0  0  0  0  0  0  0  0  0
    5.5017    8.7759    2.7269 H   0  0  0  0  0  0  0  0  0  0  0  0
    6.2947   10.0983    3.5517 H   0  0  0  0  0  0  0  0  0  0  0  0
    5.5514   11.0759    1.4190 H   0  0  0  0  0  0  0  0  0  0  0  0
    5.0478    9.3438   -0.0632 H   0  0  0  0  0  0  0  0  0  0  0  0
    6.3098    8.3019    0.5462 H   0  0  0  0  0  0  0  0  0  0  0  0
    6.7039    9.5916   -0.5670 H   0  0  0  0  0  0  0  0  0  0  0  0
    8.1940   11.6791    3.6049 H   0  0  0  0  0  0  0  0  0  0  0  0
    9.6412   10.7707    3.9648 H   0  0  0  0  0  0  0  0  0  0  0  0
    8.0785   10.1491    4.4437 H   0  0  0  0  0  0  0  0  0  0  0  0
  1  6  1  0  0  0  0
  1  2  1  0  0  0  0
  1 16  1  0  0  0  0
  1 24  1  0  0  0  0
  2  3  1  0  0  0  0
  2 11  1  0  0  0  0
  2 25  1  0  0  0  0
  3  4  1  0  0  0  0
  3 10  1  0  0  0  0
  3 26  1  0  0  0  0
  4  5  2  0  0  0  0
  4 27  1  0  0  0  0
  5  6  1  0  0  0  0
  5  7  1  0  0  0  0
  7  8  2  0  0  0  0
  7  9  1  0  0  0  0
 10 28  1  0  0  0  0
 10 29  1  0  0  0  0
 10 30  1  0  0  0  0
 11 13  1  0  0  0  0
 11 31  1  0  0  0  0
 12 13  1  0  0  0  0
 12 32  1  0  0  0  0
 12 33  1  0  0  0  0
 12 34  1  0  0  0  0
 13 14  2  0  0  0  0
 15 16  2  0  0  0  0
 16 21  1  0  0  0  0
 17 21  1  0  0  0  0
 17 18  1  0  0  0  0
 17 23  1  0  0  0  0
 17 35  1  0  0  0  0
 18 19  1  0  0  0  0
 18 36  1  0  0  0  0
 18 37  1  0  0  0  0
 19 20  1  0  0  0  0
 19 38  1  0  0  0  0
 19 39  1  0  0  0  0
 20 21  1  0  0  0  0
 20 22  1  0  0  0  0
 20 40  1  0  0  0  0
 22 41  1  0  0  0  0
 22 42  1  0  0  0  0
 22 43  1  0  0  0  0
 23 44  1  0  0  0  0
 23 45  1  0  0  0  0
 23 46  1  0  0  0  0
M  END
> <Name>
BDB4977

> <Target>
Neuraminidase A

> <IC50_in_nM>
110

> <Kd_from_ITC>
false

> <source_organism>
Influenza A virus (A/Singapore/1/57(H2N2))

> <SourceTag>
NA

> <atoms in reference ligand area>
22

> <score>
-28.3786

$$$$
BDB5233
      BALL 1.4.0 (Jan  4 2012, 23:22:29)

 40 40  0999  0  0  0  0  0  0999 V2000
    8.5861   10.4104    0.7167 C   0  0  0  0  0  0  0  0  0  0  0  0
    9.6528   10.7230    1.7387 C   0  0  0  0  0  0  0  0  0  0  0  0
    9.0802   11.6547    2.8818 C   0  0  0  0  0  0  0  0  0  0  0  0
    8.0677   12.7681    2.4075 C   0  0  0  0  0  0  0  0  0  0  0  0
    6.8965   12.0500    1.7388 C   0  0  0  0  0  0  0  0  0  0  0  0
    7.3718   11.0071    0.6876 C   0  0  0  0  0  0  0  0  0  0  0  0
    6.4356   10.5512   -0.3307 C   0  0  0  0  0  0  0  0  0  0  0  0
    6.7344   10.6360   -1.5241 O   0  0  0  0  0  0  0  0  0  0  0  0
    5.2580    9.9878    0.0385 O   0  5  0  0  0  0  0  0  0  0  0  0
    8.5220   13.7997    1.4789 N   0  3  0  0  0  0  0  0  0  0  0  0
    8.3708   10.9323    4.0299 N   0  0  0  0  0  0  0  0  0  0  0  0
    8.8073    9.8792    4.9633 C   0  0  0  0  0  0  0  0  0  0  0  0
   10.1991    9.3500    5.1590 C   0  0  0  0  0  0  0  0  0  0  0  0
    7.9340    9.4057    5.6990 O   0  0  0  0  0  0  0  0  0  0  0  0
   10.8997   11.2255    1.0041 N   0  3  0  0  0  0  0  0  0  0  0  0
   10.7491   12.4843    0.3238 C   0  0  0  0  0  0  0  0  0  0  0  0
   12.0762   13.1869    0.0609 C   0  0  0  0  0  0  0  0  0  0  0  0
   12.1940   13.4128   -1.4618 C   0  0  0  0  0  0  0  0  0  0  0  0
    8.8031    9.6738   -0.0283 H   0  0  0  0  0  0  0  0  0  0  0  0
   10.0156    9.8107    2.2358 H   0  0  0  0  0  0  0  0  0  0  0  0
    9.9430   12.1193    3.3772 H   0  0  0  0  0  0  0  0  0  0  0  0
    7.7340   13.3015    3.3061 H   0  0  0  0  0  0  0  0  0  0  0  0
    6.2615   12.7782    1.2545 H   0  0  0  0  0  0  0  0  0  0  0  0
    6.3065   11.5482    2.4967 H   0  0  0  0  0  0  0  0  0  0  0  0
    7.8484   14.5190    1.4050 H   0  0  0  0  0  0  0  0  0  0  0  0
    8.7324   13.3827    0.5584 H   0  0  0  0  0  0  0  0  0  0  0  0
    9.3749   14.2244    1.8607 H   0  0  0  0  0  0  0  0  0  0  0  0
    7.4278   11.2127    4.1566 H   0  0  0  0  0  0  0  0  0  0  0  0
   10.4052    9.7133    6.1931 H   0  0  0  0  0  0  0  0  0  0  0  0
   10.7733   10.0632    4.5223 H   0  0  0  0  0  0  0  0  0  0  0  0
   10.3414    8.4372    4.9992 H   0  0  0  0  0  0  0  0  0  0  0  0
   11.6723   11.2977    1.6810 H   0  0  0  0  0  0  0  0  0  0  0  0
   11.1499   10.5288    0.2899 H   0  0  0  0  0  0  0  0  0  0  0  0
   10.2413   12.3168   -0.6233 H   0  0  0  0  0  0  0  0  0  0  0  0
   10.1151   13.1344    0.9173 H   0  0  0  0  0  0  0  0  0  0  0  0
   12.8774   12.5739    0.3926 H   0  0  0  0  0  0  0  0  0  0  0  0
   12.0897   14.1257    0.5630 H   0  0  0  0  0  0  0  0  0  0  0  0
   12.4954   12.5142   -1.9498 H   0  0  0  0  0  0  0  0  0  0  0  0
   12.8910   14.1920   -1.6703 H   0  0  0  0  0  0  0  0  0  0  0  0
   11.2205   13.7068   -1.8487 H   0  0  0  0  0  0  0  0  0  0  0  0
  1  2  1  0  0  0  0
  1  6  2  0  0  0  0
  1 19  1  0  0  0  0
  2  3  1  0  0  0  0
  2 15  1  0  0  0  0
  2 20  1  0  0  0  0
  3  4  1  0  0  0  0
  3 11  1  0  0  0  0
  3 21  1  0  0  0  0
  4  5  1  0  0  0  0
  4 10  1  0  0  0  0
  4 22  1  0  0  0  0
  5  6  1  0  0  0  0
  5 23  1  0  0  0  0
  5 24  1  0  0  0  0
  6  7  1  0  0  0  0
  7  8  2  0  0  0  0
  7  9  1  0  0  0  0
 10 25  1  0  0  0  0
 10 26  1  0  0  0  0
 10 27  1  0  0  0  0
 11 12  1  0  0  0  0
 11 28  1  0  0  0  0
 12 13  1  0  0  0  0
 12 14  2  0  0  0  0
 13 29  1  0  0  0  0
 13 30  1  0  0  0  0
 13 31  1  0  0  0  0
 15 16  1  0  0  0  0
 15 32  1  0  0  0  0
 15 33  1  0  0  0  0
 16 17  1  0  0  0  0
 16 34  1  0  0  0  0
 16 35  1  0  0  0  0
 17 18  1  0  0  0  0
 17 36  1  0  0  0  0
 17 37  1  0  0  0  0
 18 38  1  0  0  0  0
 18 39  1  0  0  0  0
 18 40  1  0  0  0  0
M  END
> <Name>
BDB5233

> <Target>
Neuraminidase A

> <IC50_in_nM>
200

> <Kd_from_ITC>
false

> <source_organism>
Influenza A virus (A/Puerto Rico/8/34(H1N1))

> <SourceTag>
NA

> <atoms in reference ligand area>
28

> <score>
-28.0715

$$$$
BDB5222
      BALL 1.4.0 (Jan  4 2012, 23:22:29)

 41 41  0999  0  0  0  0  0  0999 V2000
    9.1289   13.6668    1.7423 C   0  0  0  0  0  0  0  0  0  0  0  0
    9.2309   12.1758    1.9533 C   0  0  0  0  0  0  0  0  0  0  0  0
   10.5408   11.5824    1.3203 C   0  0  0  0  0  0  0  0  0  0  0  0
   10.6912   12.1118   -0.1432 C   0  0  0  0  0  0  0  0  0  0  0  0
   10.8648   13.6365   -0.1030 C   0  0  0  0  0  0  0  0  0  0  0  0
    9.8277   14.3263    0.8026 C   0  0  0  0  0  0  0  0  0  0  0  0
    9.6424   15.7655    0.6878 C   0  0  0  0  0  0  0  0  0  0  0  0
    9.6043   16.2941   -0.4287 O   0  0  0  0  0  0  0  0  0  0  0  0
   11.8621   11.7615    2.0813 N   0  0  0  0  0  0  0  0  0  0  0  0
    8.0358   11.6188    1.3193 O   0  0  0  0  0  0  0  0  0  0  0  0
    9.5077   16.5224    1.8047 O   0  5  0  0  0  0  0  0  0  0  0  0
    7.7753   10.2698    1.7654 C   0  0  0  0  0  0  0  0  0  0  0  0
    6.2509   10.0011    1.8963 C   0  0  0  0  0  0  0  0  0  0  0  0
    5.4787   10.5245    0.6751 C   0  0  0  0  0  0  0  0  0  0  0  0
   12.2723   12.6502    3.1812 C   0  0  0  0  0  0  0  0  0  0  0  0
   11.3964   13.5162    4.0315 C   0  0  0  0  0  0  0  0  0  0  0  0
   13.4739   12.6401    3.4716 O   0  0  0  0  0  0  0  0  0  0  0  0
    9.5496   11.7780   -1.0536 N   0  0  0  0  0  0  0  0  0  0  0  0
    8.3327   12.5439   -0.9932 C   0  0  0  0  0  0  0  0  0  0  0  0
    7.2788   12.0486   -0.4972 N   0  3  0  0  0  0  0  0  0  0  0  0
    8.4681   14.2259    2.3714 H   0  0  0  0  0  0  0  0  0  0  0  0
    9.1734   11.9163    3.0195 H   0  0  0  0  0  0  0  0  0  0  0  0
   10.4287   10.4944    1.2832 H   0  0  0  0  0  0  0  0  0  0  0  0
   11.5890   11.6515   -0.5793 H   0  0  0  0  0  0  0  0  0  0  0  0
   10.7772   14.0317   -1.1072 H   0  0  0  0  0  0  0  0  0  0  0  0
   11.8623   13.8724    0.2548 H   0  0  0  0  0  0  0  0  0  0  0  0
   12.5923   11.1735    1.7544 H   0  0  0  0  0  0  0  0  0  0  0  0
    8.2473   10.1135    2.7211 H   0  0  0  0  0  0  0  0  0  0  0  0
    8.2010    9.5727    1.0588 H   0  0  0  0  0  0  0  0  0  0  0  0
    5.8782   10.4838    2.7855 H   0  0  0  0  0  0  0  0  0  0  0  0
    6.0829    8.9376    1.9947 H   0  0  0  0  0  0  0  0  0  0  0  0
    4.5543   10.9525    1.0157 H   0  0  0  0  0  0  0  0  0  0  0  0
    5.2578    9.6935    0.0312 H   0  0  0  0  0  0  0  0  0  0  0  0
    6.0506   11.2468    0.1599 H   0  0  0  0  0  0  0  0  0  0  0  0
   12.1399   13.8688    4.7846 H   0  0  0  0  0  0  0  0  0  0  0  0
   10.8271   12.7344    4.5874 H   0  0  0  0  0  0  0  0  0  0  0  0
   10.8903   14.1767    3.6007 H   0  0  0  0  0  0  0  0  0  0  0  0
    9.4639   10.8073   -1.3838 H   0  0  0  0  0  0  0  0  0  0  0  0
    8.3186   13.5444   -1.3723 H   0  0  0  0  0  0  0  0  0  0  0  0
    7.2819   11.1185   -0.1584 H   0  0  0  0  0  0  0  0  0  0  0  0
    6.4492   12.5940   -0.4507 H   0  0  0  0  0  0  0  0  0  0  0  0
  1  2  1  0  0  0  0
  1  6  2  0  0  0  0
  1 21  1  0  0  0  0
  2  3  1  0  0  0  0
  2 10  1  0  0  0  0
  2 22  1  0  0  0  0
  3  4  1  0  0  0  0
  3  9  1  0  0  0  0
  3 23  1  0  0  0  0
  4  5  1  0  0  0  0
  4 18  1  0  0  0  0
  4 24  1  0  0  0  0
  5  6  1  0  0  0  0
  5 25  1  0  0  0  0
  5 26  1  0  0  0  0
  6  7  1  0  0  0  0
  7  8  2  0  0  0  0
  7 11  1  0  0  0  0
  9 15  1  0  0  0  0
  9 27  1  0  0  0  0
 10 12  1  0  0  0  0
 12 13  1  0  0  0  0
 12 28  1  0  0  0  0
 12 29  1  0  0  0  0
 13 14  1  0  0  0  0
 13 30  1  0  0  0  0
 13 31  1  0  0  0  0
 14 32  1  0  0  0  0
 14 33  1  0  0  0  0
 14 34  1  0  0  0  0
 15 16  1  0  0  0  0
 15 17  2  0  0  0  0
 16 35  1  0  0  0  0
 16 36  1  0  0  0  0
 16 37  1  0  0  0  0
 18 19  1  0  0  0  0
 18 38  1  0  0  0  0
 19 20  2  0  0  0  0
 19 39  1  0  0  0  0
 20 40  1  0  0  0  0
 20 41  1  0  0  0  0
M  END
> <Name>
BDB5222

> <Target>
Neuraminidase A

> <IC50_in_nM>
140

> <Kd_from_ITC>
false

> <source_organism>
Influenza A virus (A/Puerto Rico/8/34(H1N1))

> <SourceTag>
NA

> <atoms in reference ligand area>
27

> <score>
-27.8859

$$$$
BDB4997
      BALL 1.4.0 (Jan  4 2012, 23:22:29)

 59 59  0999  0  0  0  0  0  0999 V2000
   10.7545   11.2786    2.4932 C   0  0  0  0  0  0  0  0  0  0  0  0
   10.4910   10.2687    3.5756 C   0  0  0  0  0  0  0  0  0  0  0  0
    9.1483   10.6216    4.3794 C   0  0  0  0  0  0  0  0  0  0  0  0
    8.9323   12.1515    4.6495 C   0  0  0  0  0  0  0  0  0  0  0  0
    8.9385   12.8880    3.3070 C   0  0  0  0  0  0  0  0  0  0  0  0
   10.1070   12.4575    2.3828 C   0  0  0  0  0  0  0  0  0  0  0  0
   10.4756   13.3059    1.2580 C   0  0  0  0  0  0  0  0  0  0  0  0
   10.7561   14.4916    1.4485 O   0  0  0  0  0  0  0  0  0  0  0  0
   10.5389   12.7831    0.0081 O   0  5  0  0  0  0  0  0  0  0  0  0
    9.8883   12.7877    5.4903 N   0  3  0  0  0  0  0  0  0  0  0  0
    7.8420   10.1180    3.7502 N   0  0  0  0  0  0  0  0  0  0  0  0
    7.0875   10.5315    2.5571 C   0  0  0  0  0  0  0  0  0  0  0  0
    7.5808   11.3690    1.4139 C   0  0  0  0  0  0  0  0  0  0  0  0
    5.9409   10.0801    2.4516 O   0  0  0  0  0  0  0  0  0  0  0  0
   11.8090   10.0615    4.3223 O   0  0  0  0  0  0  0  0  0  0  0  0
   13.0132    9.6529    3.6208 C   0  0  0  0  0  0  0  0  0  0  0  0
   13.5616   10.8127    2.7402 C   0  0  0  0  0  0  0  0  0  0  0  0
   13.1968   12.1788    3.3501 C   0  0  0  0  0  0  0  0  0  0  0  0
   14.1510    9.2853    4.5877 C   0  0  0  0  0  0  0  0  0  0  0  0
   15.3669    9.0215    3.6673 C   0  0  0  0  0  0  0  0  0  0  0  0
   16.6871    8.8395    4.4232 C   0  0  0  0  0  0  0  0  0  0  0  0
   16.6599    9.8553    5.5854 C   0  0  0  0  0  0  0  0  0  0  0  0
   17.8705    9.6818    6.5121 C   0  0  0  0  0  0  0  0  0  0  0  0
   17.6406   10.5327    7.7781 C   0  0  0  0  0  0  0  0  0  0  0  0
   16.1577   10.4771    8.1823 C   0  0  0  0  0  0  0  0  0  0  0  0
   11.5030   11.0479    1.7642 H   0  0  0  0  0  0  0  0  0  0  0  0
   10.3174    9.2723    3.1443 H   0  0  0  0  0  0  0  0  0  0  0  0
    9.1824   10.0728    5.3298 H   0  0  0  0  0  0  0  0  0  0  0  0
    7.9625   12.2760    5.1487 H   0  0  0  0  0  0  0  0  0  0  0  0
    9.0040   13.9560    3.4871 H   0  0  0  0  0  0  0  0  0  0  0  0
    7.9955   12.7054    2.7965 H   0  0  0  0  0  0  0  0  0  0  0  0
   10.7819   12.6588    5.1245 H   0  0  0  0  0  0  0  0  0  0  0  0
    9.8097   12.4066    6.4405 H   0  0  0  0  0  0  0  0  0  0  0  0
    9.6950   13.7930    5.5115 H   0  0  0  0  0  0  0  0  0  0  0  0
    7.3901    9.4114    4.2813 H   0  0  0  0  0  0  0  0  0  0  0  0
    6.7907   12.1545    1.3864 H   0  0  0  0  0  0  0  0  0  0  0  0
    7.3143   10.7110    0.5548 H   0  0  0  0  0  0  0  0  0  0  0  0
    8.4697   11.6701    1.4511 H   0  0  0  0  0  0  0  0  0  0  0  0
   12.8092    8.7624    3.0295 H   0  0  0  0  0  0  0  0  0  0  0  0
   13.1425   10.7408    1.7533 H   0  0  0  0  0  0  0  0  0  0  0  0
   14.6333   10.7297    2.6670 H   0  0  0  0  0  0  0  0  0  0  0  0
   12.1843   12.4161    3.0888 H   0  0  0  0  0  0  0  0  0  0  0  0
   13.8479   12.9263    2.9412 H   0  0  0  0  0  0  0  0  0  0  0  0
   13.3008   12.1453    4.4071 H   0  0  0  0  0  0  0  0  0  0  0  0
   13.9060    8.4107    5.1116 H   0  0  0  0  0  0  0  0  0  0  0  0
   14.3553   10.0970    5.2240 H   0  0  0  0  0  0  0  0  0  0  0  0
   15.1742    8.1290    3.0700 H   0  0  0  0  0  0  0  0  0  0  0  0
   15.4707    9.8494    2.9686 H   0  0  0  0  0  0  0  0  0  0  0  0
   17.4986    9.0537    3.7828 H   0  0  0  0  0  0  0  0  0  0  0  0
   16.7451    7.8561    4.8104 H   0  0  0  0  0  0  0  0  0  0  0  0
   16.6603   10.8584    5.1829 H   0  0  0  0  0  0  0  0  0  0  0  0
   15.7547    9.7216    6.1553 H   0  0  0  0  0  0  0  0  0  0  0  0
   18.7518   10.0142    6.0152 H   0  0  0  0  0  0  0  0  0  0  0  0
   17.9675    8.6542    6.7854 H   0  0  0  0  0  0  0  0  0  0  0  0
   17.9176   11.5483    7.5814 H   0  0  0  0  0  0  0  0  0  0  0  0
   18.2434   10.1503    8.5802 H   0  0  0  0  0  0  0  0  0  0  0  0
   15.5983   11.1566    7.5732 H   0  0  0  0  0  0  0  0  0  0  0  0
   16.0595   10.7598    9.2100 H   0  0  0  0  0  0  0  0  0  0  0  0
   15.7844    9.4835    8.0467 H   0  0  0  0  0  0  0  0  0  0  0  0
  1  2  1  0  0  0  0
  1  6  2  0  0  0  0
  1 26  1  0  0  0  0
  2  3  1  0  0  0  0
  2 15  1  0  0  0  0
  2 27  1  0  0  0  0
  3  4  1  0  0  0  0
  3 11  1  0  0  0  0
  3 28  1  0  0  0  0
  4  5  1  0  0  0  0
  4 10  1  0  0  0  0
  4 29  1  0  0  0  0
  5  6  1  0  0  0  0
  5 30  1  0  0  0  0
  5 31  1  0  0  0  0
  6  7  1  0  0  0  0
  7  8  2  0  0  0  0
  7  9  1  0  0  0  0
 10 32  1  0  0  0  0
 10 33  1  0  0  0  0
 10 34  1  0  0  0  0
 11 12  1  0  0  0  0
 11 35  1  0  0  0  0
 12 13  1  0  0  0  0
 12 14  2  0  0  0  0
 13 36  1  0  0  0  0
 13 37  1  0  0  0  0
 13 38  1  0  0  0  0
 15 16  1  0  0  0  0
 16 19  1  0  0  0  0
 16 17  1  0  0  0  0
 16 39  1  0  0  0  0
 17 18  1  0  0  0  0
 17 40  1  0  0  0  0
 17 41  1  0  0  0  0
 18 42  1  0  0  0  0
 18 43  1  0  0  0  0
 18 44  1  0  0  0  0
 19 20  1  0  0  0  0
 19 45  1  0  0  0  0
 19 46  1  0  0  0  0
 20 21  1  0  0  0  0
 20 47  1  0  0  0  0
 20 48  1  0  0  0  0
 21 22  1  0  0  0  0
 21 49  1  0  0  0  0
 21 50  1  0  0  0  0
 22 23  1  0  0  0  0
 22 51  1  0  0  0  0
 22 52  1  0  0  0  0
 23 24  1  0  0  0  0
 23 53  1  0  0  0  0
 23 54  1  0  0  0  0
 24 25  1  0  0  0  0
 24 55  1  0  0  0  0
 24 56  1  0  0  0  0
 25 57  1  0  0  0  0
 25 58  1  0  0  0  0
 25 59  1  0  0  0  0
M  END
> <Name>
BDB4997

> <Target>
Neuraminidase A

> <IC50_in_nM>
1

> <Kd_from_ITC>
false

> <source_organism>
Influenza A virus (A/Puerto Rico/8/34/Mount Sinai(H1N1))

> <SourceTag>
NA

> <atoms in reference ligand area>
16

> <score>
-27.6923

$$$$
BDB4948
      BALL 1.4.0 (Jan  4 2012, 23:22:29)

 66 66  0999  0  0  0  0  0  0999 V2000
    9.1043   11.6970    2.7578 C   0  0  0  0  0  0  0  0  0  0  0  0
    7.4727    9.4816    2.6827 C   0  0  0  0  0  0  0  0  0  0  0  0
    7.1140   10.6373    1.7657 C   0  0  0  0  0  0  0  0  0  0  0  0
    7.9155   11.8251    2.1588 C   0  0  0  0  0  0  0  0  0  0  0  0
    9.6904   10.4357    3.0495 O   0  0  0  0  0  0  0  0  0  0  0  0
    9.8179   12.9091    3.1629 C   0  0  0  0  0  0  0  0  0  0  0  0
   10.9857   12.8354    3.5618 O   0  0  0  0  0  0  0  0  0  0  0  0
    9.1964   14.1157    3.1005 O   0  5  0  0  0  0  0  0  0  0  0  0
    9.4277    8.0410    3.3003 C   0  0  0  0  0  0  0  0  0  0  0  0
   10.1159    7.2148    2.6946 O   0  0  0  0  0  0  0  0  0  0  0  0
    8.9704    9.2916    2.5390 C   0  0  0  0  0  0  0  0  0  0  0  0
    6.7713    8.2779    2.2159 N   0  0  0  0  0  0  0  0  0  0  0  0
    5.5879    7.7013    2.7949 C   0  0  0  0  0  0  0  0  0  0  0  0
    4.8828    8.2794    4.0063 C   0  0  0  0  0  0  0  0  0  0  0  0
    5.1210    6.6806    2.2777 O   0  0  0  0  0  0  0  0  0  0  0  0
    5.6770   10.9339    1.8507 N   0  3  0  0  0  0  0  0  0  0  0  0
    9.0886    7.7621    4.6611 N   0  0  0  0  0  0  0  0  0  0  0  0
    9.0356    6.3789    5.0765 C   0  0  0  0  0  0  0  0  0  0  0  0
    8.7630    8.7998    5.6169 C   0  0  0  0  0  0  0  0  0  0  0  0
   10.0490    9.3235    6.2989 C   0  0  0  0  0  0  0  0  0  0  0  0
    9.9432    9.1105    7.8186 C   0  0  0  0  0  0  0  0  0  0  0  0
    9.6258    6.2164    6.4914 C   0  0  0  0  0  0  0  0  0  0  0  0
    8.7589    5.2542    7.3160 C   0  0  0  0  0  0  0  0  0  0  0  0
    9.4687    4.9724    8.6500 C   0  0  0  0  0  0  0  0  0  0  0  0
    8.4414    4.9471    9.7924 C   0  0  0  0  0  0  0  0  0  0  0  0
    9.1159    5.4417   11.0829 C   0  0  0  0  0  0  0  0  0  0  0  0
    9.8345    6.7735   10.8125 C   0  0  0  0  0  0  0  0  0  0  0  0
    9.2457    7.8630   11.7262 C   0  0  0  0  0  0  0  0  0  0  0  0
    8.8722    9.0944   10.8821 C   0  0  0  0  0  0  0  0  0  0  0  0
    7.1908    9.6704    3.7290 H   0  0  0  0  0  0  0  0  0  0  0  0
    7.3412   10.3675    0.7238 H   0  0  0  0  0  0  0  0  0  0  0  0
    7.5226   12.8315    1.9526 H   0  0  0  0  0  0  0  0  0  0  0  0
    9.1876    9.1761    1.4669 H   0  0  0  0  0  0  0  0  0  0  0  0
    7.1659    7.8002    1.3931 H   0  0  0  0  0  0  0  0  0  0  0  0
    3.8481    8.4160    3.6587 H   0  0  0  0  0  0  0  0  0  0  0  0
    5.3125    9.2881    4.0948 H   0  0  0  0  0  0  0  0  0  0  0  0
    4.9609    7.6865    4.9295 H   0  0  0  0  0  0  0  0  0  0  0  0
    5.4274   11.6046    1.1100 H   0  0  0  0  0  0  0  0  0  0  0  0
    5.4734   11.3524    2.7695 H   0  0  0  0  0  0  0  0  0  0  0  0
    5.1317   10.0680    1.7342 H   0  0  0  0  0  0  0  0  0  0  0  0
    9.6113    5.7634    4.3696 H   0  0  0  0  0  0  0  0  0  0  0  0
    7.9893    6.0393    5.0775 H   0  0  0  0  0  0  0  0  0  0  0  0
    8.0853    8.3926    6.3817 H   0  0  0  0  0  0  0  0  0  0  0  0
    8.2622    9.6299    5.0971 H   0  0  0  0  0  0  0  0  0  0  0  0
   10.1673   10.3964    6.0869 H   0  0  0  0  0  0  0  0  0  0  0  0
   10.9197    8.7740    5.9118 H   0  0  0  0  0  0  0  0  0  0  0  0
   10.6501    9.7771    8.3343 H   0  0  0  0  0  0  0  0  0  0  0  0
   10.1817    8.0646    8.0617 H   0  0  0  0  0  0  0  0  0  0  0  0
    8.9193    9.3378    8.1501 H   0  0  0  0  0  0  0  0  0  0  0  0
   10.6471    5.8149    6.4173 H   0  0  0  0  0  0  0  0  0  0  0  0
    9.6575    7.1966    6.9898 H   0  0  0  0  0  0  0  0  0  0  0  0
    8.6252    4.3121    6.7642 H   0  0  0  0  0  0  0  0  0  0  0  0
    7.7792    5.7150    7.5105 H   0  0  0  0  0  0  0  0  0  0  0  0
    9.9778    3.9988    8.5951 H   0  0  0  0  0  0  0  0  0  0  0  0
   10.2111    5.7605    8.8442 H   0  0  0  0  0  0  0  0  0  0  0  0
    7.5973    5.6069    9.5429 H   0  0  0  0  0  0  0  0  0  0  0  0
    8.0778    3.9193    9.9389 H   0  0  0  0  0  0  0  0  0  0  0  0
    8.3531    5.5893   11.8618 H   0  0  0  0  0  0  0  0  0  0  0  0
    9.8473    4.6946   11.4248 H   0  0  0  0  0  0  0  0  0  0  0  0
   10.9085    6.6604   11.0219 H   0  0  0  0  0  0  0  0  0  0  0  0
    9.6926    7.0616    9.7605 H   0  0  0  0  0  0  0  0  0  0  0  0
    8.3460    7.4753   12.2264 H   0  0  0  0  0  0  0  0  0  0  0  0
    9.9907    8.1504   12.4829 H   0  0  0  0  0  0  0  0  0  0  0  0
    8.6213    9.9337   11.5475 H   0  0  0  0  0  0  0  0  0  0  0  0
    8.0043    8.8569   10.2495 H   0  0  0  0  0  0  0  0  0  0  0  0
    9.7236    9.3750   10.2446 H   0  0  0  0  0  0  0  0  0  0  0  0
  1  5  1  0  0  0  0
  1  4  2  0  0  0  0
  1  6  1  0  0  0  0
  2 11  1  0  0  0  0
  2  3  1  0  0  0  0
  2 12  1  0  0  0  0
  2 30  1  0  0  0  0
  3  4  1  0  0  0  0
  3 16  1  0  0  0  0
  3 31  1  0  0  0  0
  4 32  1  0  0  0  0
  5 11  1  0  0  0  0
  6  7  2  0  0  0  0
  6  8  1  0  0  0  0
  9 11  1  0  0  0  0
  9 17  1  0  0  0  0
  9 10  2  0  0  0  0
 11 33  1  0  0  0  0
 12 13  1  0  0  0  0
 12 34  1  0  0  0  0
 13 14  1  0  0  0  0
 13 15  2  0  0  0  0
 14 35  1  0  0  0  0
 14 36  1  0  0  0  0
 14 37  1  0  0  0  0
 16 38  1  0  0  0  0
 16 39  1  0  0  0  0
 16 40  1  0  0  0  0
 17 18  1  0  0  0  0
 17 19  1  0  0  0  0
 18 22  1  0  0  0  0
 18 41  1  0  0  0  0
 18 42  1  0  0  0  0
 19 20  1  0  0  0  0
 19 43  1  0  0  0  0
 19 44  1  0  0  0  0
 20 21  1  0  0  0  0
 20 45  1  0  0  0  0
 20 46  1  0  0  0  0
 21 47  1  0  0  0  0
 21 48  1  0  0  0  0
 21 49  1  0  0  0  0
 22 23  1  0  0  0  0
 22 50  1  0  0  0  0
 22 51  1  0  0  0  0
 23 24  1  0  0  0  0
 23 52  1  0  0  0  0
 23 53  1  0  0  0  0
 24 25  1  0  0  0  0
 24 54  1  0  0  0  0
 24 55  1  0  0  0  0
 25 26  1  0  0  0  0
 25 56  1  0  0  0  0
 25 57  1  0  0  0  0
 26 27  1  0  0  0  0
 26 58  1  0  0  0  0
 26 59  1  0  0  0  0
 27 28  1  0  0  0  0
 27 60  1  0  0  0  0
 27 61  1  0  0  0  0
 28 29  1  0  0  0  0
 28 62  1  0  0  0  0
 28 63  1  0  0  0  0
 29 64  1  0  0  0  0
 29 65  1  0  0  0  0
 29 66  1  0  0  0  0
M  END
> <Name>
BDB4948

> <Target>
Neuraminidase A

> <IC50_in_nM>
23

> <Kd_from_ITC>
false

> <source_organism>
Influenza A virus (A/Singapore/1/57(H2N2))

> <SourceTag>
NA

> <atoms in reference ligand area>
12

> <score>
-27.1118

$$$$
BDB5232
      BALL 1.4.0 (Jan  4 2012, 23:22:29)

 49 49  0999  0  0  0  0  0  0999 V2000
    8.9384   10.1761    2.4044 C   0  0  0  0  0  0  0  0  0  0  0  0
   10.2825   10.8562    2.5840 C   0  0  0  0  0  0  0  0  0  0  0  0
   10.5488   11.1373    4.1210 C   0  0  0  0  0  0  0  0  0  0  0  0
    9.2856   11.5860    4.9542 C   0  0  0  0  0  0  0  0  0  0  0  0
    8.2569   10.4650    4.8566 C   0  0  0  0  0  0  0  0  0  0  0  0
    8.0249   10.0193    3.3902 C   0  0  0  0  0  0  0  0  0  0  0  0
    6.8071    9.2953    3.0514 C   0  0  0  0  0  0  0  0  0  0  0  0
    6.6845    8.1120    3.3732 O   0  0  0  0  0  0  0  0  0  0  0  0
    5.7917    9.9398    2.4223 O   0  5  0  0  0  0  0  0  0  0  0  0
    8.5998   12.8161    4.5841 N   0  3  0  0  0  0  0  0  0  0  0  0
   11.1743    9.9880    4.9130 N   0  0  0  0  0  0  0  0  0  0  0  0
   11.1733    8.5308    4.7152 C   0  0  0  0  0  0  0  0  0  0  0  0
   10.7118    7.7762    3.5024 C   0  0  0  0  0  0  0  0  0  0  0  0
   11.6493    7.8544    5.6344 O   0  0  0  0  0  0  0  0  0  0  0  0
   10.8900   11.8406    0.3154 C   0  0  0  0  0  0  0  0  0  0  0  0
   10.4348   12.1096    1.6631 N   0  3  0  0  0  0  0  0  0  0  0  0
   11.3522   13.1440    2.2507 C   0  0  0  0  0  0  0  0  0  0  0  0
   12.8530   12.7604    2.2334 C   0  0  0  0  0  0  0  0  0  0  0  0
   13.4666   13.0513    3.6147 C   0  0  0  0  0  0  0  0  0  0  0  0
   10.8570   13.0748   -0.5909 C   0  0  0  0  0  0  0  0  0  0  0  0
   12.2823   13.3023   -1.1353 C   0  0  0  0  0  0  0  0  0  0  0  0
    8.6969    9.7953    1.4340 H   0  0  0  0  0  0  0  0  0  0  0  0
   11.1065   10.2108    2.2455 H   0  0  0  0  0  0  0  0  0  0  0  0
   11.3226   11.9150    4.1680 H   0  0  0  0  0  0  0  0  0  0  0  0
    9.6137   11.7214    5.9926 H   0  0  0  0  0  0  0  0  0  0  0  0
    7.3214   10.8018    5.2775 H   0  0  0  0  0  0  0  0  0  0  0  0
    8.5975    9.6170    5.4369 H   0  0  0  0  0  0  0  0  0  0  0  0
    8.8233   13.0653    3.6483 H   0  0  0  0  0  0  0  0  0  0  0  0
    8.8418   13.5706    5.2454 H   0  0  0  0  0  0  0  0  0  0  0  0
    7.5880   12.6457    4.6209 H   0  0  0  0  0  0  0  0  0  0  0  0
   11.6506   10.2800    5.7331 H   0  0  0  0  0  0  0  0  0  0  0  0
   11.1954    6.7889    3.6860 H   0  0  0  0  0  0  0  0  0  0  0  0
   11.3621    8.2356    2.7224 H   0  0  0  0  0  0  0  0  0  0  0  0
    9.7898    7.7648    3.3257 H   0  0  0  0  0  0  0  0  0  0  0  0
   11.9066   11.4552    0.3550 H   0  0  0  0  0  0  0  0  0  0  0  0
   10.2697   11.0641   -0.1200 H   0  0  0  0  0  0  0  0  0  0  0  0
    9.5027   12.5414    1.6110 H   0  0  0  0  0  0  0  0  0  0  0  0
   11.0494   13.3420    3.2807 H   0  0  0  0  0  0  0  0  0  0  0  0
   11.2201   14.0846    1.7068 H   0  0  0  0  0  0  0  0  0  0  0  0
   13.3606   13.3360    1.4903 H   0  0  0  0  0  0  0  0  0  0  0  0
   12.9527   11.7172    2.0111 H   0  0  0  0  0  0  0  0  0  0  0  0
   12.9524   13.8696    4.0718 H   0  0  0  0  0  0  0  0  0  0  0  0
   14.5013   13.2964    3.5044 H   0  0  0  0  0  0  0  0  0  0  0  0
   13.3726   12.1804    4.2381 H   0  0  0  0  0  0  0  0  0  0  0  0
   10.5513   13.9234   -0.0287 H   0  0  0  0  0  0  0  0  0  0  0  0
   10.1879   12.9048   -1.4027 H   0  0  0  0  0  0  0  0  0  0  0  0
   12.9967   12.7933   -0.5287 H   0  0  0  0  0  0  0  0  0  0  0  0
   12.5066   14.3445   -1.1636 H   0  0  0  0  0  0  0  0  0  0  0  0
   12.3399   12.9070   -2.1454 H   0  0  0  0  0  0  0  0  0  0  0  0
  1  2  1  0  0  0  0
  1  6  2  0  0  0  0
  1 22  1  0  0  0  0
  2  3  1  0  0  0  0
  2 16  1  0  0  0  0
  2 23  1  0  0  0  0
  3  4  1  0  0  0  0
  3 11  1  0  0  0  0
  3 24  1  0  0  0  0
  4  5  1  0  0  0  0
  4 10  1  0  0  0  0
  4 25  1  0  0  0  0
  5  6  1  0  0  0  0
  5 26  1  0  0  0  0
  5 27  1  0  0  0  0
  6  7  1  0  0  0  0
  7  8  2  0  0  0  0
  7  9  1  0  0  0  0
 10 28  1  0  0  0  0
 10 29  1  0  0  0  0
 10 30  1  0  0  0  0
 11 12  1  0  0  0  0
 11 31  1  0  0  0  0
 12 13  1  0  0  0  0
 12 14  2  0  0  0  0
 13 32  1  0  0  0  0
 13 33  1  0  0  0  0
 13 34  1  0  0  0  0
 15 16  1  0  0  0  0
 15 20  1  0  0  0  0
 15 35  1  0  0  0  0
 15 36  1  0  0  0  0
 16 17  1  0  0  0  0
 16 37  1  0  0  0  0
 17 18  1  0  0  0  0
 17 38  1  0  0  0  0
 17 39  1  0  0  0  0
 18 19  1  0  0  0  0
 18 40  1  0  0  0  0
 18 41  1  0  0  0  0
 19 42  1  0  0  0  0
 19 43  1  0  0  0  0
 19 44  1  0  0  0  0
 20 21  1  0  0  0  0
 20 45  1  0  0  0  0
 20 46  1  0  0  0  0
 21 47  1  0  0  0  0
 21 48  1  0  0  0  0
 21 49  1  0  0  0  0
M  END
> <Name>
BDB5232

> <Target>
Neuraminidase A

> <IC50_in_nM>
12

> <Kd_from_ITC>
false

> <source_organism>
Influenza A virus (A/Puerto Rico/8/34(H1N1))

> <SourceTag>
NA

> <atoms in reference ligand area>
16

> <score>
-27.0128

$$$$
BDB5257
      BALL 1.4.0 (Jan  4 2012, 23:22:29)

 41 42  0999  0  0  0  0  0  0999 V2000
    9.4691   11.5917    1.4611 C   0  0  0  0  0  0  0  0  0  0  0  0
   10.0558   12.9069    1.0105 C   0  0  0  0  0  0  0  0  0  0  0  0
    9.9333   14.0077    2.1445 C   0  0  0  0  0  0  0  0  0  0  0  0
    8.5997   13.9388    2.9818 C   0  0  0  0  0  0  0  0  0  0  0  0
    8.5535   12.5588    3.6403 C   0  0  0  0  0  0  0  0  0  0  0  0
    8.7852   11.4249    2.6167 C   0  0  0  0  0  0  0  0  0  0  0  0
    8.3439   10.0727    2.9265 C   0  0  0  0  0  0  0  0  0  0  0  0
    7.1827    9.7360    2.6976 O   0  0  0  0  0  0  0  0  0  0  0  0
    9.2312    9.1716    3.4212 O   0  5  0  0  0  0  0  0  0  0  0  0
    7.3338   14.1193    2.2898 N   0  3  0  0  0  0  0  0  0  0  0  0
   11.0404   14.0197    3.1994 N   0  0  0  0  0  0  0  0  0  0  0  0
   12.4153   13.4973    3.1921 C   0  0  0  0  0  0  0  0  0  0  0  0
   13.1818   12.9698    2.0129 C   0  0  0  0  0  0  0  0  0  0  0  0
   13.0209   13.5339    4.2697 O   0  0  0  0  0  0  0  0  0  0  0  0
    7.3944   13.3441   -1.6992 C   0  0  0  0  0  0  0  0  0  0  0  0
    9.1343   14.7749   -2.2870 C   0  0  0  0  0  0  0  0  0  0  0  0
    9.7722   14.5801   -0.9046 C   0  0  0  0  0  0  0  0  0  0  0  0
    8.0207   13.1153   -0.3052 C   0  0  0  0  0  0  0  0  0  0  0  0
    7.7189   14.6537   -2.1719 O   0  0  0  0  0  0  0  0  0  0  0  0
    9.4859   13.2562   -0.3750 N   0  0  0  0  0  0  0  0  0  0  0  0
    9.6018   10.7392    0.8283 H   0  0  0  0  0  0  0  0  0  0  0  0
   11.1295   12.8002    0.7976 H   0  0  0  0  0  0  0  0  0  0  0  0
   10.0317   14.9880    1.6594 H   0  0  0  0  0  0  0  0  0  0  0  0
    8.6505   14.7269    3.7444 H   0  0  0  0  0  0  0  0  0  0  0  0
    7.5921   12.4205    4.1116 H   0  0  0  0  0  0  0  0  0  0  0  0
    9.3131   12.5051    4.4095 H   0  0  0  0  0  0  0  0  0  0  0  0
    7.3587   14.9485    1.7412 H   0  0  0  0  0  0  0  0  0  0  0  0
    6.5587   14.1400    2.9691 H   0  0  0  0  0  0  0  0  0  0  0  0
    7.2009   13.3282    1.6472 H   0  0  0  0  0  0  0  0  0  0  0  0
   10.7730   14.4373    4.0593 H   0  0  0  0  0  0  0  0  0  0  0  0
   14.2251   13.1854    2.3396 H   0  0  0  0  0  0  0  0  0  0  0  0
   12.9784   13.7720    1.2668 H   0  0  0  0  0  0  0  0  0  0  0  0
   13.0019   12.0889    1.7404 H   0  0  0  0  0  0  0  0  0  0  0  0
    6.3271   13.2430   -1.6318 H   0  0  0  0  0  0  0  0  0  0  0  0
    7.7745   12.6130   -2.3841 H   0  0  0  0  0  0  0  0  0  0  0  0
    9.3812   15.7454   -2.6589 H   0  0  0  0  0  0  0  0  0  0  0  0
    9.5039   14.0272   -2.9590 H   0  0  0  0  0  0  0  0  0  0  0  0
   10.8379   14.7095   -0.9835 H   0  0  0  0  0  0  0  0  0  0  0  0
    9.3875   15.3261   -0.2261 H   0  0  0  0  0  0  0  0  0  0  0  0
    7.7730   12.1272    0.0393 H   0  0  0  0  0  0  0  0  0  0  0  0
    7.6252   13.8349    0.3847 H   0  0  0  0  0  0  0  0  0  0  0  0
  1  2  1  0  0  0  0
  1  6  2  0  0  0  0
  1 21  1  0  0  0  0
  2  3  1  0  0  0  0
  2 20  1  0  0  0  0
  2 22  1  0  0  0  0
  3  4  1  0  0  0  0
  3 11  1  0  0  0  0
  3 23  1  0  0  0  0
  4  5  1  0  0  0  0
  4 10  1  0  0  0  0
  4 24  1  0  0  0  0
  5  6  1  0  0  0  0
  5 25  1  0  0  0  0
  5 26  1  0  0  0  0
  6  7  1  0  0  0  0
  7  8  2  0  0  0  0
  7  9  1  0  0  0  0
 10 27  1  0  0  0  0
 10 28  1  0  0  0  0
 10 29  1  0  0  0  0
 11 12  1  0  0  0  0
 11 30  1  0  0  0  0
 12 13  1  0  0  0  0
 12 14  2  0  0  0  0
 13 31  1  0  0  0  0
 13 32  1  0  0  0  0
 13 33  1  0  0  0  0
 15 19  1  0  0  0  0
 15 18  1  0  0  0  0
 15 34  1  0  0  0  0
 15 35  1  0  0  0  0
 16 19  1  0  0  0  0
 16 17  1  0  0  0  0
 16 36  1  0  0  0  0
 16 37  1  0  0  0  0
 17 20  1  0  0  0  0
 17 38  1  0  0  0  0
 17 39  1  0  0  0  0
 18 20  1  0  0  0  0
 18 40  1  0  0  0  0
 18 41  1  0  0  0  0
M  END
> <Name>
BDB5257

> <Target>
Neuraminidase A

> <IC50_in_nM>
260

> <Kd_from_ITC>
false

> <source_organism>
Influenza A virus (A/Puerto Rico/8/34(H1N1))

> <SourceTag>
NA

> <atoms in reference ligand area>
28

> <score>
-26.8315

$$$$
BDB5003
      BALL 1.4.0 (Jan  4 2012, 23:22:29)

 54 55  0999  0  0  0  0  0  0999 V2000
    8.5675   13.2511   -0.1996 C   0  0  0  0  0  0  0  0  0  0  0  0
    9.2904   13.4066    1.1077 C   0  0  0  0  0  0  0  0  0  0  0  0
   10.8650   13.1656    0.9105 C   0  0  0  0  0  0  0  0  0  0  0  0
   11.2181   11.9553   -0.0028 C   0  0  0  0  0  0  0  0  0  0  0  0
   10.5737   12.1531   -1.3722 C   0  0  0  0  0  0  0  0  0  0  0  0
    9.1013   12.6627   -1.2877 C   0  0  0  0  0  0  0  0  0  0  0  0
    8.2822   12.6223   -2.4888 C   0  0  0  0  0  0  0  0  0  0  0  0
    7.0984   12.9756   -2.4354 O   0  0  0  0  0  0  0  0  0  0  0  0
    8.8291   12.2520   -3.6710 O   0  5  0  0  0  0  0  0  0  0  0  0
   10.7848   10.7180    0.4745 N   0  3  0  0  0  0  0  0  0  0  0  0
   11.6741   14.3687    0.3947 N   0  0  0  0  0  0  0  0  0  0  0  0
   11.3308   15.5093   -0.4772 C   0  0  0  0  0  0  0  0  0  0  0  0
    9.9651   16.0669   -0.7585 C   0  0  0  0  0  0  0  0  0  0  0  0
   12.2832   16.1352   -0.9562 O   0  0  0  0  0  0  0  0  0  0  0  0
    8.5090   12.6099    2.1779 O   0  0  0  0  0  0  0  0  0  0  0  0
    8.2628   11.1708    2.0291 C   0  0  0  0  0  0  0  0  0  0  0  0
    6.8494   10.7654    2.4212 C   0  0  0  0  0  0  0  0  0  0  0  0
    6.5909    9.5245    1.5337 C   0  0  0  0  0  0  0  0  0  0  0  0
    5.6980    8.5351    2.1849 C   0  0  0  0  0  0  0  0  0  0  0  0
    4.6735    7.7221    4.2066 C   0  0  0  0  0  0  0  0  0  0  0  0
    3.9710    6.7770    3.4563 C   0  0  0  0  0  0  0  0  0  0  0  0
    4.1355    6.7173    2.0840 C   0  0  0  0  0  0  0  0  0  0  0  0
    5.0025    7.6106    1.4455 C   0  0  0  0  0  0  0  0  0  0  0  0
    5.5351    8.5964    3.5789 C   0  0  0  0  0  0  0  0  0  0  0  0
    9.1867   10.3190    2.9622 C   0  0  0  0  0  0  0  0  0  0  0  0
    8.6762   10.3233    4.4114 C   0  0  0  0  0  0  0  0  0  0  0  0
    7.5695   13.6302   -0.2709 H   0  0  0  0  0  0  0  0  0  0  0  0
    9.2023   14.4370    1.4806 H   0  0  0  0  0  0  0  0  0  0  0  0
   11.2877   13.0068    1.9114 H   0  0  0  0  0  0  0  0  0  0  0  0
   12.3096   11.8897   -0.0893 H   0  0  0  0  0  0  0  0  0  0  0  0
   10.5931   11.2130   -1.9137 H   0  0  0  0  0  0  0  0  0  0  0  0
   11.1645   12.8654   -1.9439 H   0  0  0  0  0  0  0  0  0  0  0  0
   10.5734   10.1613   -0.2848 H   0  0  0  0  0  0  0  0  0  0  0  0
    9.9730   10.8598    1.0896 H   0  0  0  0  0  0  0  0  0  0  0  0
   11.5379   10.2699    0.9955 H   0  0  0  0  0  0  0  0  0  0  0  0
   12.6372   14.3252    0.6252 H   0  0  0  0  0  0  0  0  0  0  0  0
    9.8193   15.7131   -1.8060 H   0  0  0  0  0  0  0  0  0  0  0  0
   10.2155   17.1458   -0.8897 H   0  0  0  0  0  0  0  0  0  0  0  0
    9.2818   15.8662   -0.1490 H   0  0  0  0  0  0  0  0  0  0  0  0
    8.3842   10.8872    0.9822 H   0  0  0  0  0  0  0  0  0  0  0  0
    6.1786   11.5240    2.1735 H   0  0  0  0  0  0  0  0  0  0  0  0
    6.8231   10.4925    3.4299 H   0  0  0  0  0  0  0  0  0  0  0  0
    6.1447    9.8425    0.5968 H   0  0  0  0  0  0  0  0  0  0  0  0
    7.5352    9.0493    1.3008 H   0  0  0  0  0  0  0  0  0  0  0  0
    4.5433    7.7679    5.2676 H   0  0  0  0  0  0  0  0  0  0  0  0
    3.3038    6.0973    3.9439 H   0  0  0  0  0  0  0  0  0  0  0  0
    3.6004    5.9888    1.5116 H   0  0  0  0  0  0  0  0  0  0  0  0
    5.1232    7.5735    0.3829 H   0  0  0  0  0  0  0  0  0  0  0  0
    6.0779    9.3193    4.1515 H   0  0  0  0  0  0  0  0  0  0  0  0
   10.1868   10.7198    2.9370 H   0  0  0  0  0  0  0  0  0  0  0  0
    9.2205    9.3019    2.5995 H   0  0  0  0  0  0  0  0  0  0  0  0
    8.1856   11.2603    4.5973 H   0  0  0  0  0  0  0  0  0  0  0  0
    9.5199   10.2378    5.0704 H   0  0  0  0  0  0  0  0  0  0  0  0
    8.0062    9.5211    4.5674 H   0  0  0  0  0  0  0  0  0  0  0  0
  1  2  1  0  0  0  0
  1  6  2  0  0  0  0
  1 27  1  0  0  0  0
  2  3  1  0  0  0  0
  2 15  1  0  0  0  0
  2 28  1  0  0  0  0
  3  4  1  0  0  0  0
  3 11  1  0  0  0  0
  3 29  1  0  0  0  0
  4  5  1  0  0  0  0
  4 10  1  0  0  0  0
  4 30  1  0  0  0  0
  5  6  1  0  0  0  0
  5 31  1  0  0  0  0
  5 32  1  0  0  0  0
  6  7  1  0  0  0  0
  7  8  2  0  0  0  0
  7  9  1  0  0  0  0
 10 33  1  0  0  0  0
 10 34  1  0  0  0  0
 10 35  1  0  0  0  0
 11 12  1  0  0  0  0
 11 36  1  0  0  0  0
 12 13  1  0  0  0  0
 12 14  2  0  0  0  0
 13 37  1  0  0  0  0
 13 38  1  0  0  0  0
 13 39  1  0  0  0  0
 15 16  1  0  0  0  0
 16 17  1  0  0  0  0
 16 25  1  0  0  0  0
 16 40  1  0  0  0  0
 17 18  1  0  0  0  0
 17 41  1  0  0  0  0
 17 42  1  0  0  0  0
 18 19  1  0  0  0  0
 18 43  1  0  0  0  0
 18 44  1  0  0  0  0
 19 23  2  0  0  0  0
 19 24  1  0  0  0  0
 20 21  1  0  0  0  0
 20 24  2  0  0  0  0
 20 45  1  0  0  0  0
 21 22  2  0  0  0  0
 21 46  1  0  0  0  0
 22 23  1  0  0  0  0
 22 47  1  0  0  0  0
 23 48  1  0  0  0  0
 24 49  1  0  0  0  0
 25 26  1  0  0  0  0
 25 50  1  0  0  0  0
 25 51  1  0  0  0  0
 26 52  1  0  0  0  0
 26 53  1  0  0  0  0
 26 54  1  0  0  0  0
M  END
> <Name>
BDB5003

> <Target>
Neuraminidase A

> <IC50_in_nM>
0.3

> <Kd_from_ITC>
false

> <source_organism>
Influenza A virus (A/Puerto Rico/8/34/Mount Sinai(H1N1))

> <SourceTag>
NA

> <atoms in reference ligand area>
27

> <score>
-26.4383

$$$$
BDB4965
      BALL 1.4.0 (Jan  4 2012, 23:22:29)

 59 60  0999  0  0  0  0  0  0999 V2000
   12.6083    7.1482    4.1080 C   0  0  0  0  0  0  0  0  0  0  0  0
   12.8305    7.7648    1.4347 C   0  0  0  0  0  0  0  0  0  0  0  0
   12.9206    6.2982    1.8170 C   0  0  0  0  0  0  0  0  0  0  0  0
   13.0755    6.1978    3.2914 C   0  0  0  0  0  0  0  0  0  0  0  0
   11.9270    8.3037    3.6384 O   0  0  0  0  0  0  0  0  0  0  0  0
   12.8392    7.0101    5.5468 C   0  0  0  0  0  0  0  0  0  0  0  0
   13.9726    6.7552    5.9697 O   0  0  0  0  0  0  0  0  0  0  0  0
   11.8076    7.1622    6.4176 O   0  5  0  0  0  0  0  0  0  0  0  0
   11.3676    9.7644    1.7922 C   0  0  0  0  0  0  0  0  0  0  0  0
   10.8418    9.9475    0.6887 O   0  0  0  0  0  0  0  0  0  0  0  0
   11.6587    8.3234    2.2187 C   0  0  0  0  0  0  0  0  0  0  0  0
   12.5552    7.8575   -0.0055 N   0  0  0  0  0  0  0  0  0  0  0  0
   13.4794    7.5761   -1.0709 C   0  0  0  0  0  0  0  0  0  0  0  0
   14.9104    7.1311   -0.8407 C   0  0  0  0  0  0  0  0  0  0  0  0
   13.0863    7.7039   -2.2356 O   0  0  0  0  0  0  0  0  0  0  0  0
   14.0540    5.6578    1.1347 N   0  3  0  0  0  0  0  0  0  0  0  0
   11.2960   12.2074    2.0730 C   0  0  0  0  0  0  0  0  0  0  0  0
   11.9439   12.4819    0.6991 C   0  0  0  0  0  0  0  0  0  0  0  0
   11.5129   13.8268    0.1927 C   0  0  0  0  0  0  0  0  0  0  0  0
   10.1665   15.8085    0.4224 C   0  0  0  0  0  0  0  0  0  0  0  0
   10.5691   14.5656    0.8964 C   0  0  0  0  0  0  0  0  0  0  0  0
   12.0539   14.3302   -0.9841 C   0  0  0  0  0  0  0  0  0  0  0  0
   11.6512   15.5731   -1.4579 C   0  0  0  0  0  0  0  0  0  0  0  0
   11.6824   10.9127    2.5820 N   0  0  0  0  0  0  0  0  0  0  0  0
   12.3790   10.8259    3.8505 C   0  0  0  0  0  0  0  0  0  0  0  0
   13.7612   11.5152    3.7585 C   0  0  0  0  0  0  0  0  0  0  0  0
   13.5635   13.0336    3.6069 C   0  0  0  0  0  0  0  0  0  0  0  0
   10.7076   16.3122   -0.7545 C   0  0  0  0  0  0  0  0  0  0  0  0
    9.2165   16.5534    1.1298 O   0  0  0  0  0  0  0  0  0  0  0  0
    9.8205   17.2334    2.2387 C   0  0  0  0  0  0  0  0  0  0  0  0
   13.7578    8.3150    1.6525 H   0  0  0  0  0  0  0  0  0  0  0  0
   12.0027    5.7776    1.5064 H   0  0  0  0  0  0  0  0  0  0  0  0
   13.5856    5.3229    3.7204 H   0  0  0  0  0  0  0  0  0  0  0  0
   10.7862    7.6881    2.0065 H   0  0  0  0  0  0  0  0  0  0  0  0
   11.6071    8.1529   -0.2791 H   0  0  0  0  0  0  0  0  0  0  0  0
   15.4626    7.6112   -1.6621 H   0  0  0  0  0  0  0  0  0  0  0  0
   14.8846    6.0566   -1.0752 H   0  0  0  0  0  0  0  0  0  0  0  0
   15.3230    7.3534    0.1544 H   0  0  0  0  0  0  0  0  0  0  0  0
   14.8950    5.7474    1.7226 H   0  0  0  0  0  0  0  0  0  0  0  0
   14.2171    6.1323    0.2352 H   0  0  0  0  0  0  0  0  0  0  0  0
   13.8486    4.6620    0.9706 H   0  0  0  0  0  0  0  0  0  0  0  0
   11.6108   12.9856    2.7837 H   0  0  0  0  0  0  0  0  0  0  0  0
   10.2013   12.2441    1.9711 H   0  0  0  0  0  0  0  0  0  0  0  0
   11.6320   11.7059   -0.0154 H   0  0  0  0  0  0  0  0  0  0  0  0
   13.0390   12.4638    0.8008 H   0  0  0  0  0  0  0  0  0  0  0  0
   10.1411   14.1668    1.8279 H   0  0  0  0  0  0  0  0  0  0  0  0
   12.8008   13.7450   -1.5405 H   0  0  0  0  0  0  0  0  0  0  0  0
   12.0794   15.9718   -2.3894 H   0  0  0  0  0  0  0  0  0  0  0  0
   12.5173    9.7682    4.1190 H   0  0  0  0  0  0  0  0  0  0  0  0
   11.7783   11.3177    4.6298 H   0  0  0  0  0  0  0  0  0  0  0  0
   14.3083   11.1281    2.8863 H   0  0  0  0  0  0  0  0  0  0  0  0
   14.3354   11.3100    4.6740 H   0  0  0  0  0  0  0  0  0  0  0  0
   12.6174   13.2320    3.0819 H   0  0  0  0  0  0  0  0  0  0  0  0
   14.3986   13.4587    3.0308 H   0  0  0  0  0  0  0  0  0  0  0  0
   13.5328   13.5000    4.6025 H   0  0  0  0  0  0  0  0  0  0  0  0
   10.3888   17.2959   -1.1295 H   0  0  0  0  0  0  0  0  0  0  0  0
   10.8060   17.6125    1.9303 H   0  0  0  0  0  0  0  0  0  0  0  0
    9.9515   16.5199    3.0657 H   0  0  0  0  0  0  0  0  0  0  0  0
    9.1832   18.0691    2.5634 H   0  0  0  0  0  0  0  0  0  0  0  0
  1  5  1  0  0  0  0
  1  4  2  0  0  0  0
  1  6  1  0  0  0  0
  2 11  1  0  0  0  0
  2  3  1  0  0  0  0
  2 12  1  0  0  0  0
  2 31  1  0  0  0  0
  3  4  1  0  0  0  0
  3 16  1  0  0  0  0
  3 32  1  0  0  0  0
  4 33  1  0  0  0  0
  5 11  1  0  0  0  0
  6  7  2  0  0  0  0
  6  8  1  0  0  0  0
  9 11  1  0  0  0  0
  9 24  1  0  0  0  0
  9 10  2  0  0  0  0
 11 34  1  0  0  0  0
 12 13  1  0  0  0  0
 12 35  1  0  0  0  0
 13 14  1  0  0  0  0
 13 15  2  0  0  0  0
 14 36  1  0  0  0  0
 14 37  1  0  0  0  0
 14 38  1  0  0  0  0
 16 39  1  0  0  0  0
 16 40  1  0  0  0  0
 16 41  1  0  0  0  0
 17 24  1  0  0  0  0
 17 18  1  0  0  0  0
 17 42  1  0  0  0  0
 17 43  1  0  0  0  0
 18 19  1  0  0  0  0
 18 44  1  0  0  0  0
 18 45  1  0  0  0  0
 19 21  2  0  0  0  0
 19 22  1  0  0  0  0
 20 28  2  0  0  0  0
 20 21  1  0  0  0  0
 20 29  1  0  0  0  0
 21 46  1  0  0  0  0
 22 23  2  0  0  0  0
 22 47  1  0  0  0  0
 23 28  1  0  0  0  0
 23 48  1  0  0  0  0
 24 25  1  0  0  0  0
 25 26  1  0  0  0  0
 25 49  1  0  0  0  0
 25 50  1  0  0  0  0
 26 27  1  0  0  0  0
 26 51  1  0  0  0  0
 26 52  1  0  0  0  0
 27 53  1  0  0  0  0
 27 54  1  0  0  0  0
 27 55  1  0  0  0  0
 28 56  1  0  0  0  0
 29 30  1  0  0  0  0
 30 57  1  0  0  0  0
 30 58  1  0  0  0  0
 30 59  1  0  0  0  0
M  END
> <Name>
BDB4965

> <Target>
Neuraminidase A

> <IC50_in_nM>
5

> <Kd_from_ITC>
false

> <source_organism>
Influenza A virus (A/Singapore/1/57(H2N2))

> <SourceTag>
NA

> <atoms in reference ligand area>
10

> <score>
-25.3755

$$$$
BDB5228
      BALL 1.4.0 (Jan  4 2012, 23:22:29)

 49 50  0999  0  0  0  0  0  0999 V2000
   11.6063   12.4615    2.3571 C   0  0  0  0  0  0  0  0  0  0  0  0
   12.1435   11.5296    1.3146 C   0  0  0  0  0  0  0  0  0  0  0  0
   11.2948   11.6732   -0.0365 C   0  0  0  0  0  0  0  0  0  0  0  0
    9.7586   11.6976    0.1815 C   0  0  0  0  0  0  0  0  0  0  0  0
    9.4190   12.8934    1.0603 C   0  0  0  0  0  0  0  0  0  0  0  0
   10.3885   13.0401    2.2806 C   0  0  0  0  0  0  0  0  0  0  0  0
   12.2588   10.1171    1.9829 N   0  0  0  0  0  0  0  0  0  0  0  0
   13.3931   10.0038    2.9224 C   0  0  0  0  0  0  0  0  0  0  0  0
   12.0345    8.8918    1.1521 C   0  0  0  0  0  0  0  0  0  0  0  0
   13.3118    8.0273    0.9504 C   0  0  0  0  0  0  0  0  0  0  0  0
   10.0280   13.9658    3.3389 C   0  0  0  0  0  0  0  0  0  0  0  0
    9.8084   13.5381    4.4776 O   0  0  0  0  0  0  0  0  0  0  0  0
   10.0180   15.2982    3.0974 O   0  5  0  0  0  0  0  0  0  0  0  0
    9.2292   10.5573    0.8265 N   0  3  0  0  0  0  0  0  0  0  0  0
   11.6727   12.8645   -0.9434 N   0  0  0  0  0  0  0  0  0  0  0  0
   11.2185   13.3117   -2.2857 C   0  0  0  0  0  0  0  0  0  0  0  0
   10.0398   12.8272   -3.0779 C   0  0  0  0  0  0  0  0  0  0  0  0
   11.8579   14.2394   -2.7929 O   0  0  0  0  0  0  0  0  0  0  0  0
   13.2236    7.2839   -0.3881 C   0  0  0  0  0  0  0  0  0  0  0  0
   13.0774    5.8746   -2.7943 C   0  0  0  0  0  0  0  0  0  0  0  0
   14.2985    6.3427   -2.3388 C   0  0  0  0  0  0  0  0  0  0  0  0
   14.3615    7.0491   -1.1384 C   0  0  0  0  0  0  0  0  0  0  0  0
   11.9937    6.8077   -0.8501 C   0  0  0  0  0  0  0  0  0  0  0  0
   11.9244    6.1130   -2.0484 C   0  0  0  0  0  0  0  0  0  0  0  0
   12.2193   12.6801    3.2063 H   0  0  0  0  0  0  0  0  0  0  0  0
   13.1806   11.7717    1.0413 H   0  0  0  0  0  0  0  0  0  0  0  0
   11.5451   10.8102   -0.6621 H   0  0  0  0  0  0  0  0  0  0  0  0
    9.2675   11.7702   -0.7954 H   0  0  0  0  0  0  0  0  0  0  0  0
    8.4037   12.7910    1.4239 H   0  0  0  0  0  0  0  0  0  0  0  0
    9.4606   13.7985    0.4617 H   0  0  0  0  0  0  0  0  0  0  0  0
   14.1822   10.6408    2.5545 H   0  0  0  0  0  0  0  0  0  0  0  0
   13.7421    8.9836    2.8858 H   0  0  0  0  0  0  0  0  0  0  0  0
   13.1128   10.2712    3.8878 H   0  0  0  0  0  0  0  0  0  0  0  0
   11.2623    8.2812    1.6219 H   0  0  0  0  0  0  0  0  0  0  0  0
   11.6502    9.1889    0.1785 H   0  0  0  0  0  0  0  0  0  0  0  0
   13.3925    7.3174    1.7468 H   0  0  0  0  0  0  0  0  0  0  0  0
   14.1767    8.6619    0.9496 H   0  0  0  0  0  0  0  0  0  0  0  0
    8.2996   10.6906    0.9046 H   0  0  0  0  0  0  0  0  0  0  0  0
    9.6687   10.4190    1.7482 H   0  0  0  0  0  0  0  0  0  0  0  0
    9.3743    9.7317    0.2408 H   0  0  0  0  0  0  0  0  0  0  0  0
   12.3908   13.4329   -0.5660 H   0  0  0  0  0  0  0  0  0  0  0  0
    9.8395   11.8626   -2.5491 H   0  0  0  0  0  0  0  0  0  0  0  0
   10.5615   12.4931   -4.0087 H   0  0  0  0  0  0  0  0  0  0  0  0
    9.3182   13.4059   -3.1847 H   0  0  0  0  0  0  0  0  0  0  0  0
   13.0193    5.3322   -3.7148 H   0  0  0  0  0  0  0  0  0  0  0  0
   15.1886    6.1633   -2.9049 H   0  0  0  0  0  0  0  0  0  0  0  0
   15.3053    7.4155   -0.7922 H   0  0  0  0  0  0  0  0  0  0  0  0
   11.1051    6.9792   -0.2792 H   0  0  0  0  0  0  0  0  0  0  0  0
   10.9794    5.7576   -2.4027 H   0  0  0  0  0  0  0  0  0  0  0  0
  1  2  1  0  0  0  0
  1  6  2  0  0  0  0
  1 25  1  0  0  0  0
  2  3  1  0  0  0  0
  2  7  1  0  0  0  0
  2 26  1  0  0  0  0
  3  4  1  0  0  0  0
  3 15  1  0  0  0  0
  3 27  1  0  0  0  0
  4  5  1  0  0  0  0
  4 14  1  0  0  0  0
  4 28  1  0  0  0  0
  5  6  1  0  0  0  0
  5 29  1  0  0  0  0
  5 30  1  0  0  0  0
  6 11  1  0  0  0  0
  7  9  1  0  0  0  0
  7  8  1  0  0  0  0
  8 31  1  0  0  0  0
  8 32  1  0  0  0  0
  8 33  1  0  0  0  0
  9 10  1  0  0  0  0
  9 34  1  0  0  0  0
  9 35  1  0  0  0  0
 10 19  1  0  0  0  0
 10 36  1  0  0  0  0
 10 37  1  0  0  0  0
 11 12  2  0  0  0  0
 11 13  1  0  0  0  0
 14 38  1  0  0  0  0
 14 39  1  0  0  0  0
 14 40  1  0  0  0  0
 15 16  1  0  0  0  0
 15 41  1  0  0  0  0
 16 17  1  0  0  0  0
 16 18  2  0  0  0  0
 17 42  1  0  0  0  0
 17 43  1  0  0  0  0
 17 44  1  0  0  0  0
 19 22  2  0  0  0  0
 19 23  1  0  0  0  0
 20 21  2  0  0  0  0
 20 24  1  0  0  0  0
 20 45  1  0  0  0  0
 21 22  1  0  0  0  0
 21 46  1  0  0  0  0
 22 47  1  0  0  0  0
 23 24  2  0  0  0  0
 23 48  1  0  0  0  0
 24 49  1  0  0  0  0
M  END
> <Name>
BDB5228

> <Target>
Neuraminidase A

> <IC50_in_nM>
100

> <Kd_from_ITC>
false

> <source_organism>
Influenza A virus (A/Puerto Rico/8/34(H1N1))

> <SourceTag>
NA

> <atoms in reference ligand area>
22

> <score>
-25.2305

$$$$
BDB4986
      BALL 1.4.0 (Jan  4 2012, 23:22:29)

 47 47  0999  0  0  0  0  0  0999 V2000
   10.9516   11.6487    1.4079 C   0  0  0  0  0  0  0  0  0  0  0  0
   11.1174   11.6727    2.8971 C   0  0  0  0  0  0  0  0  0  0  0  0
   11.0883   13.1069    3.4979 C   0  0  0  0  0  0  0  0  0  0  0  0
   12.0773   13.9866    2.6613 C   0  0  0  0  0  0  0  0  0  0  0  0
   11.5468   14.1021    1.2276 C   0  0  0  0  0  0  0  0  0  0  0  0
   11.1766   12.7461    0.6345 C   0  0  0  0  0  0  0  0  0  0  0  0
   10.9514   12.5932   -0.7979 C   0  0  0  0  0  0  0  0  0  0  0  0
    9.8512   12.2926   -1.2310 O   0  0  0  0  0  0  0  0  0  0  0  0
   11.9885   12.8236   -1.6543 O   0  5  0  0  0  0  0  0  0  0  0  0
   13.4541   13.4391    2.5880 N   0  3  0  0  0  0  0  0  0  0  0  0
    9.7743   13.8674    3.6762 N   0  0  0  0  0  0  0  0  0  0  0  0
    8.5996   14.0138    2.8206 C   0  0  0  0  0  0  0  0  0  0  0  0
    8.2854   13.2339    1.5842 C   0  0  0  0  0  0  0  0  0  0  0  0
    7.7537   14.8396    3.1862 O   0  0  0  0  0  0  0  0  0  0  0  0
   12.4523   11.1879    3.1891 O   0  0  0  0  0  0  0  0  0  0  0  0
   12.6048   10.5997    4.4797 C   0  0  0  0  0  0  0  0  0  0  0  0
   13.9416    9.7770    4.5140 C   0  0  0  0  0  0  0  0  0  0  0  0
   15.0653   10.4511    5.3705 C   0  0  0  0  0  0  0  0  0  0  0  0
   15.4330    9.4955    6.5482 C   0  0  0  0  0  0  0  0  0  0  0  0
   16.6833    9.9868    7.3205 C   0  0  0  0  0  0  0  0  0  0  0  0
   16.3715   10.0200    8.8374 C   0  0  0  0  0  0  0  0  0  0  0  0
   10.6459   10.7381    0.9365 H   0  0  0  0  0  0  0  0  0  0  0  0
   10.3872   11.0098    3.3941 H   0  0  0  0  0  0  0  0  0  0  0  0
   11.4766   13.0164    4.5200 H   0  0  0  0  0  0  0  0  0  0  0  0
   12.1382   14.9761    3.1261 H   0  0  0  0  0  0  0  0  0  0  0  0
   12.2993   14.5677    0.6053 H   0  0  0  0  0  0  0  0  0  0  0  0
   10.6723   14.7436    1.2216 H   0  0  0  0  0  0  0  0  0  0  0  0
   13.5398   12.6021    3.1507 H   0  0  0  0  0  0  0  0  0  0  0  0
   14.1291   14.1504    2.9037 H   0  0  0  0  0  0  0  0  0  0  0  0
   13.6564   13.1842    1.6167 H   0  0  0  0  0  0  0  0  0  0  0  0
    9.7264   14.3939    4.5178 H   0  0  0  0  0  0  0  0  0  0  0  0
    8.8213   13.8398    0.8196 H   0  0  0  0  0  0  0  0  0  0  0  0
    7.2190   13.5138    1.4325 H   0  0  0  0  0  0  0  0  0  0  0  0
    8.4780   12.3113    1.5967 H   0  0  0  0  0  0  0  0  0  0  0  0
   12.6410   11.3702    5.2222 H   0  0  0  0  0  0  0  0  0  0  0  0
   11.7815    9.9487    4.6758 H   0  0  0  0  0  0  0  0  0  0  0  0
   14.3033    9.6423    3.4980 H   0  0  0  0  0  0  0  0  0  0  0  0
   13.7385    8.7835    4.9128 H   0  0  0  0  0  0  0  0  0  0  0  0
   14.7104   11.3768    5.7611 H   0  0  0  0  0  0  0  0  0  0  0  0
   15.9279   10.6163    4.7624 H   0  0  0  0  0  0  0  0  0  0  0  0
   15.6221    8.5061    6.1596 H   0  0  0  0  0  0  0  0  0  0  0  0
   14.5954    9.4313    7.2308 H   0  0  0  0  0  0  0  0  0  0  0  0
   16.9447   10.9693    6.9896 H   0  0  0  0  0  0  0  0  0  0  0  0
   17.5013    9.3182    7.1390 H   0  0  0  0  0  0  0  0  0  0  0  0
   17.2861   10.0144    9.3914 H   0  0  0  0  0  0  0  0  0  0  0  0
   15.7893    9.1629    9.1023 H   0  0  0  0  0  0  0  0  0  0  0  0
   15.8195   10.9110    9.0703 H   0  0  0  0  0  0  0  0  0  0  0  0
  1  2  1  0  0  0  0
  1  6  2  0  0  0  0
  1 22  1  0  0  0  0
  2  3  1  0  0  0  0
  2 15  1  0  0  0  0
  2 23  1  0  0  0  0
  3  4  1  0  0  0  0
  3 11  1  0  0  0  0
  3 24  1  0  0  0  0
  4  5  1  0  0  0  0
  4 10  1  0  0  0  0
  4 25  1  0  0  0  0
  5  6  1  0  0  0  0
  5 26  1  0  0  0  0
  5 27  1  0  0  0  0
  6  7  1  0  0  0  0
  7  8  2  0  0  0  0
  7  9  1  0  0  0  0
 10 28  1  0  0  0  0
 10 29  1  0  0  0  0
 10 30  1  0  0  0  0
 11 12  1  0  0  0  0
 11 31  1  0  0  0  0
 12 13  1  0  0  0  0
 12 14  2  0  0  0  0
 13 32  1  0  0  0  0
 13 33  1  0  0  0  0
 13 34  1  0  0  0  0
 15 16  1  0  0  0  0
 16 17  1  0  0  0  0
 16 35  1  0  0  0  0
 16 36  1  0  0  0  0
 17 18  1  0  0  0  0
 17 37  1  0  0  0  0
 17 38  1  0  0  0  0
 18 19  1  0  0  0  0
 18 39  1  0  0  0  0
 18 40  1  0  0  0  0
 19 20  1  0  0  0  0
 19 41  1  0  0  0  0
 19 42  1  0  0  0  0
 20 21  1  0  0  0  0
 20 43  1  0  0  0  0
 20 44  1  0  0  0  0
 21 45  1  0  0  0  0
 21 46  1  0  0  0  0
 21 47  1  0  0  0  0
M  END
> <Name>
BDB4986

> <Target>
Neuraminidase A

> <IC50_in_nM>
150

> <Kd_from_ITC>
false

> <source_organism>
Influenza A virus (A/Puerto Rico/8/34/Mount Sinai(H1N1))

> <SourceTag>
NA

> <atoms in reference ligand area>
20

> <score>
-25.0542

$$$$
BDB4983
      BALL 1.4.0 (Jan  4 2012, 23:22:29)

 38 38  0999  0  0  0  0  0  0999 V2000
   10.7163   12.4948   -0.9044 C   0  0  0  0  0  0  0  0  0  0  0  0
   10.6874   12.7956    0.5756 C   0  0  0  0  0  0  0  0  0  0  0  0
    9.5419   13.7999    0.9582 C   0  0  0  0  0  0  0  0  0  0  0  0
    9.4226   14.9770   -0.0658 C   0  0  0  0  0  0  0  0  0  0  0  0
    9.0727   14.3701   -1.4310 C   0  0  0  0  0  0  0  0  0  0  0  0
   10.0086   13.2082   -1.8162 C   0  0  0  0  0  0  0  0  0  0  0  0
   10.0781   12.7649   -3.2043 C   0  0  0  0  0  0  0  0  0  0  0  0
   11.1561   12.7233   -3.7901 O   0  0  0  0  0  0  0  0  0  0  0  0
    8.9444   12.3426   -3.8274 O   0  5  0  0  0  0  0  0  0  0  0  0
   10.6111   15.8067   -0.2345 N   0  3  0  0  0  0  0  0  0  0  0  0
    8.1422   13.2457    1.1539 N   0  0  0  0  0  0  0  0  0  0  0  0
    7.6462   12.0352    1.8069 C   0  0  0  0  0  0  0  0  0  0  0  0
    8.4392   11.0437    2.6025 C   0  0  0  0  0  0  0  0  0  0  0  0
    6.4308   11.8265    1.7187 O   0  0  0  0  0  0  0  0  0  0  0  0
   11.9862   13.3202    1.0112 O   0  0  0  0  0  0  0  0  0  0  0  0
   12.2562   13.2572    2.4138 C   0  0  0  0  0  0  0  0  0  0  0  0
   13.7972   13.3200    2.5653 C   0  0  0  0  0  0  0  0  0  0  0  0
   14.1990   13.1213    4.0349 C   0  0  0  0  0  0  0  0  0  0  0  0
   11.3219   11.6828   -1.2492 H   0  0  0  0  0  0  0  0  0  0  0  0
   10.5455   11.8779    1.1670 H   0  0  0  0  0  0  0  0  0  0  0  0
    9.7955   14.2012    1.9482 H   0  0  0  0  0  0  0  0  0  0  0  0
    8.6195   15.6417    0.2729 H   0  0  0  0  0  0  0  0  0  0  0  0
    9.1325   15.1400   -2.1893 H   0  0  0  0  0  0  0  0  0  0  0  0
    8.0492   14.0103   -1.4094 H   0  0  0  0  0  0  0  0  0  0  0  0
   10.4078   16.5740   -0.8076 H   0  0  0  0  0  0  0  0  0  0  0  0
   11.3777   15.2494   -0.6336 H   0  0  0  0  0  0  0  0  0  0  0  0
   10.8934   16.1681    0.6861 H   0  0  0  0  0  0  0  0  0  0  0  0
    7.4291   13.8127    0.7597 H   0  0  0  0  0  0  0  0  0  0  0  0
    7.7039   10.2100    2.6745 H   0  0  0  0  0  0  0  0  0  0  0  0
    8.3922   11.5126    3.6117 H   0  0  0  0  0  0  0  0  0  0  0  0
    9.2951   10.8207    2.2837 H   0  0  0  0  0  0  0  0  0  0  0  0
   11.8163   14.0885    2.9022 H   0  0  0  0  0  0  0  0  0  0  0  0
   11.8979   12.3443    2.8081 H   0  0  0  0  0  0  0  0  0  0  0  0
   14.1510   14.2749    2.2263 H   0  0  0  0  0  0  0  0  0  0  0  0
   14.2471   12.5485    1.9652 H   0  0  0  0  0  0  0  0  0  0  0  0
   13.7607   13.9003    4.6257 H   0  0  0  0  0  0  0  0  0  0  0  0
   15.2660   13.1764    4.1163 H   0  0  0  0  0  0  0  0  0  0  0  0
   13.8587   12.1719    4.3786 H   0  0  0  0  0  0  0  0  0  0  0  0
  1  2  1  0  0  0  0
  1  6  2  0  0  0  0
  1 19  1  0  0  0  0
  2  3  1  0  0  0  0
  2 15  1  0  0  0  0
  2 20  1  0  0  0  0
  3  4  1  0  0  0  0
  3 11  1  0  0  0  0
  3 21  1  0  0  0  0
  4  5  1  0  0  0  0
  4 10  1  0  0  0  0
  4 22  1  0  0  0  0
  5  6  1  0  0  0  0
  5 23  1  0  0  0  0
  5 24  1  0  0  0  0
  6  7  1  0  0  0  0
  7  8  2  0  0  0  0
  7  9  1  0  0  0  0
 10 25  1  0  0  0  0
 10 26  1  0  0  0  0
 10 27  1  0  0  0  0
 11 12  1  0  0  0  0
 11 28  1  0  0  0  0
 12 13  1  0  0  0  0
 12 14  2  0  0  0  0
 13 29  1  0  0  0  0
 13 30  1  0  0  0  0
 13 31  1  0  0  0  0
 15 16  1  0  0  0  0
 16 17  1  0  0  0  0
 16 32  1  0  0  0  0
 16 33  1  0  0  0  0
 17 18  1  0  0  0  0
 17 34  1  0  0  0  0
 17 35  1  0  0  0  0
 18 36  1  0  0  0  0
 18 37  1  0  0  0  0
 18 38  1  0  0  0  0
M  END
> <Name>
BDB4983

> <Target>
Neuraminidase A

> <IC50_in_nM>
180

> <Kd_from_ITC>
false

> <source_organism>
Influenza A virus (A/Puerto Rico/8/34/Mount Sinai(H1N1))

> <SourceTag>
NA

> <atoms in reference ligand area>
22

> <score>
-24.835

$$$$
BDB5007
      BALL 1.4.0 (Jan  4 2012, 23:22:29)

 58 60  0999  0  0  0  0  0  0999 V2000
    9.5528   12.3616    1.7361 C   0  0  0  0  0  0  0  0  0  0  0  0
    8.9420   13.0155    2.9335 C   0  0  0  0  0  0  0  0  0  0  0  0
    9.6351   14.3429    3.3096 C   0  0  0  0  0  0  0  0  0  0  0  0
   11.1882   14.0846    3.3584 C   0  0  0  0  0  0  0  0  0  0  0  0
   11.6786   13.7158    1.9581 C   0  0  0  0  0  0  0  0  0  0  0  0
   10.7899   12.6374    1.3055 C   0  0  0  0  0  0  0  0  0  0  0  0
   11.2424   11.9784    0.0913 C   0  0  0  0  0  0  0  0  0  0  0  0
   10.9491   10.7935   -0.1096 O   0  0  0  0  0  0  0  0  0  0  0  0
   11.9073   12.6834   -0.8517 O   0  5  0  0  0  0  0  0  0  0  0  0
   11.6066   12.9888    4.2507 N   0  3  0  0  0  0  0  0  0  0  0  0
    9.3363   15.6085    2.5245 N   0  0  0  0  0  0  0  0  0  0  0  0
    9.6700   16.0367    1.1622 C   0  0  0  0  0  0  0  0  0  0  0  0
   10.2227   15.1997    0.0500 C   0  0  0  0  0  0  0  0  0  0  0  0
    9.4146   17.2133    0.8856 O   0  0  0  0  0  0  0  0  0  0  0  0
    9.2139   12.1804    4.0950 O   0  0  0  0  0  0  0  0  0  0  0  0
    8.6725   10.8593    4.0439 C   0  0  0  0  0  0  0  0  0  0  0  0
    9.0014   10.0912    5.3863 C   0  0  0  0  0  0  0  0  0  0  0  0
   10.2716    9.1485    5.3777 C   0  0  0  0  0  0  0  0  0  0  0  0
   10.1937    8.3376    6.6647 C   0  0  0  0  0  0  0  0  0  0  0  0
    9.9086    6.9849    9.0824 C   0  0  0  0  0  0  0  0  0  0  0  0
    9.9792    8.3580    9.0636 C   0  0  0  0  0  0  0  0  0  0  0  0
   10.1178    9.0374    7.8594 C   0  0  0  0  0  0  0  0  0  0  0  0
   10.1399    6.9437    6.6772 C   0  0  0  0  0  0  0  0  0  0  0  0
    9.9963    6.2623    7.8821 C   0  0  0  0  0  0  0  0  0  0  0  0
    9.7108    6.3011   10.3590 C   0  0  0  0  0  0  0  0  0  0  0  0
    9.3530    5.0983   12.8387 C   0  0  0  0  0  0  0  0  0  0  0  0
   10.2012    6.1934   12.7188 C   0  0  0  0  0  0  0  0  0  0  0  0
   10.3804    6.7983   11.4856 C   0  0  0  0  0  0  0  0  0  0  0  0
    8.8725    5.2142   10.4791 C   0  0  0  0  0  0  0  0  0  0  0  0
    8.6889    4.6080   11.7211 C   0  0  0  0  0  0  0  0  0  0  0  0
    8.9745   11.6397    1.1984 H   0  0  0  0  0  0  0  0  0  0  0  0
    7.8450   13.1483    2.8030 H   0  0  0  0  0  0  0  0  0  0  0  0
    9.2882   14.5814    4.3240 H   0  0  0  0  0  0  0  0  0  0  0  0
   11.6802   14.9955    3.7105 H   0  0  0  0  0  0  0  0  0  0  0  0
   12.6923   13.3506    2.0200 H   0  0  0  0  0  0  0  0  0  0  0  0
   11.6795   14.6011    1.3358 H   0  0  0  0  0  0  0  0  0  0  0  0
   12.5599   12.7449    4.0706 H   0  0  0  0  0  0  0  0  0  0  0  0
   10.9964   12.1696    4.1199 H   0  0  0  0  0  0  0  0  0  0  0  0
   11.5455   13.3104    5.2226 H   0  0  0  0  0  0  0  0  0  0  0  0
    8.8598   16.2970    3.0532 H   0  0  0  0  0  0  0  0  0  0  0  0
   10.3464   15.9779   -0.7393 H   0  0  0  0  0  0  0  0  0  0  0  0
    9.2996   14.6617   -0.2692 H   0  0  0  0  0  0  0  0  0  0  0  0
   10.9730   14.6703    0.2381 H   0  0  0  0  0  0  0  0  0  0  0  0
    7.6077   10.9142    3.9160 H   0  0  0  0  0  0  0  0  0  0  0  0
    9.1002   10.3297    3.2171 H   0  0  0  0  0  0  0  0  0  0  0  0
    9.1173   10.8324    6.1989 H   0  0  0  0  0  0  0  0  0  0  0  0
    8.1213    9.4932    5.6770 H   0  0  0  0  0  0  0  0  0  0  0  0
   10.2291    8.5006    4.5438 H   0  0  0  0  0  0  0  0  0  0  0  0
   11.1490    9.7324    5.3771 H   0  0  0  0  0  0  0  0  0  0  0  0
    9.9272    8.9062    9.9811 H   0  0  0  0  0  0  0  0  0  0  0  0
   10.1662   10.1063    7.8541 H   0  0  0  0  0  0  0  0  0  0  0  0
   10.2091    6.3980    5.7594 H   0  0  0  0  0  0  0  0  0  0  0  0
    9.9529    5.1931    7.8936 H   0  0  0  0  0  0  0  0  0  0  0  0
    9.2116    4.6331   13.7919 H   0  0  0  0  0  0  0  0  0  0  0  0
   10.7153    6.5689   13.5787 H   0  0  0  0  0  0  0  0  0  0  0  0
   11.0293    7.6441   11.3931 H   0  0  0  0  0  0  0  0  0  0  0  0
    8.3622    4.8349    9.6185 H   0  0  0  0  0  0  0  0  0  0  0  0
    8.0363    3.7650   11.8138 H   0  0  0  0  0  0  0  0  0  0  0  0
  1  2  1  0  0  0  0
  1  6  2  0  0  0  0
  1 31  1  0  0  0  0
  2  3  1  0  0  0  0
  2 15  1  0  0  0  0
  2 32  1  0  0  0  0
  3  4  1  0  0  0  0
  3 11  1  0  0  0  0
  3 33  1  0  0  0  0
  4  5  1  0  0  0  0
  4 10  1  0  0  0  0
  4 34  1  0  0  0  0
  5  6  1  0  0  0  0
  5 35  1  0  0  0  0
  5 36  1  0  0  0  0
  6  7  1  0  0  0  0
  7  8  2  0  0  0  0
  7  9  1  0  0  0  0
 10 37  1  0  0  0  0
 10 38  1  0  0  0  0
 10 39  1  0  0  0  0
 11 12  1  0  0  0  0
 11 40  1  0  0  0  0
 12 13  1  0  0  0  0
 12 14  2  0  0  0  0
 13 41  1  0  0  0  0
 13 42  1  0  0  0  0
 13 43  1  0  0  0  0
 15 16  1  0  0  0  0
 16 17  1  0  0  0  0
 16 44  1  0  0  0  0
 16 45  1  0  0  0  0
 17 18  1  0  0  0  0
 17 46  1  0  0  0  0
 17 47  1  0  0  0  0
 18 19  1  0  0  0  0
 18 48  1  0  0  0  0
 18 49  1  0  0  0  0
 19 22  2  0  0  0  0
 19 23  1  0  0  0  0
 20 21  2  0  0  0  0
 20 24  1  0  0  0  0
 20 25  1  0  0  0  0
 21 22  1  0  0  0  0
 21 50  1  0  0  0  0
 22 51  1  0  0  0  0
 23 24  2  0  0  0  0
 23 52  1  0  0  0  0
 24 53  1  0  0  0  0
 25 28  2  0  0  0  0
 25 29  1  0  0  0  0
 26 27  2  0  0  0  0
 26 30  1  0  0  0  0
 26 54  1  0  0  0  0
 27 28  1  0  0  0  0
 27 55  1  0  0  0  0
 28 56  1  0  0  0  0
 29 30  2  0  0  0  0
 29 57  1  0  0  0  0
 30 58  1  0  0  0  0
M  END
> <Name>
BDB5007

> <Target>
Neuraminidase A

> <IC50_in_nM>
90

> <Kd_from_ITC>
false

> <source_organism>
Influenza A virus (A/Puerto Rico/8/34/Mount Sinai(H1N1))

> <SourceTag>
NA

> <atoms in reference ligand area>
21

> <score>
-24.1054

$$$$
BDB4995
      BALL 1.4.0 (Jan  4 2012, 23:22:29)

 45 45  0999  0  0  0  0  0  0999 V2000
   10.4865   11.3593   -0.0647 C   0  0  0  0  0  0  0  0  0  0  0  0
   10.4346   10.8048    1.3292 C   0  0  0  0  0  0  0  0  0  0  0  0
   10.9849   11.8619    2.3964 C   0  0  0  0  0  0  0  0  0  0  0  0
   12.2436   12.6610    1.9239 C   0  0  0  0  0  0  0  0  0  0  0  0
   11.9018   13.3825    0.6154 C   0  0  0  0  0  0  0  0  0  0  0  0
   11.1641   12.4751   -0.4066 C   0  0  0  0  0  0  0  0  0  0  0  0
   11.0901   12.8851   -1.8020 C   0  0  0  0  0  0  0  0  0  0  0  0
   12.1246   13.1363   -2.4245 O   0  0  0  0  0  0  0  0  0  0  0  0
    9.8866   12.9585   -2.4228 O   0  5  0  0  0  0  0  0  0  0  0  0
   13.4198   11.8943    1.6962 N   0  3  0  0  0  0  0  0  0  0  0  0
    9.9720   12.9041    2.8906 N   0  0  0  0  0  0  0  0  0  0  0  0
    8.7275   13.4354    2.3142 C   0  0  0  0  0  0  0  0  0  0  0  0
    7.9064   12.8345    1.2118 C   0  0  0  0  0  0  0  0  0  0  0  0
    8.2682   14.4519    2.8484 O   0  0  0  0  0  0  0  0  0  0  0  0
   11.0235    9.3996    1.2786 O   0  0  0  0  0  0  0  0  0  0  0  0
   12.4477    9.1707    1.0616 C   0  0  0  0  0  0  0  0  0  0  0  0
   12.7139    7.6928    0.7419 C   0  0  0  0  0  0  0  0  0  0  0  0
   13.2991    7.6315   -0.6499 C   0  0  0  0  0  0  0  0  0  0  0  0
   12.8430    6.7569   -1.5430 C   0  0  0  0  0  0  0  0  0  0  0  0
   13.2662    9.4972    2.3421 C   0  0  0  0  0  0  0  0  0  0  0  0
   14.7119    8.9914    2.2003 C   0  0  0  0  0  0  0  0  0  0  0  0
    9.9544   10.8387   -0.8333 H   0  0  0  0  0  0  0  0  0  0  0  0
    9.3957   10.6040    1.6297 H   0  0  0  0  0  0  0  0  0  0  0  0
   11.2183   11.3050    3.3135 H   0  0  0  0  0  0  0  0  0  0  0  0
   12.5011   13.3865    2.7062 H   0  0  0  0  0  0  0  0  0  0  0  0
   12.8162   13.7540    0.1643 H   0  0  0  0  0  0  0  0  0  0  0  0
   11.2795   14.2468    0.8376 H   0  0  0  0  0  0  0  0  0  0  0  0
   14.1970   12.4048    1.9759 H   0  0  0  0  0  0  0  0  0  0  0  0
   13.4734   11.6398    0.7016 H   0  0  0  0  0  0  0  0  0  0  0  0
   13.3768   11.0430    2.2640 H   0  0  0  0  0  0  0  0  0  0  0  0
   10.2375   13.3466    3.7384 H   0  0  0  0  0  0  0  0  0  0  0  0
    8.4133   13.2751    0.3224 H   0  0  0  0  0  0  0  0  0  0  0  0
    6.9768   13.4428    1.3010 H   0  0  0  0  0  0  0  0  0  0  0  0
    7.7983   11.9015    1.2130 H   0  0  0  0  0  0  0  0  0  0  0  0
   12.7964    9.7501    0.2073 H   0  0  0  0  0  0  0  0  0  0  0  0
   11.8025    7.1513    0.7690 H   0  0  0  0  0  0  0  0  0  0  0  0
   13.4108    7.2959    1.4402 H   0  0  0  0  0  0  0  0  0  0  0  0
   14.0899    8.2994   -0.9205 H   0  0  0  0  0  0  0  0  0  0  0  0
   12.0496    6.0893   -1.2662 H   0  0  0  0  0  0  0  0  0  0  0  0
   13.2591    6.7185   -2.5215 H   0  0  0  0  0  0  0  0  0  0  0  0
   12.8063    9.0259    3.1900 H   0  0  0  0  0  0  0  0  0  0  0  0
   13.2749   10.5623    2.4988 H   0  0  0  0  0  0  0  0  0  0  0  0
   15.3792    9.7221    2.6119 H   0  0  0  0  0  0  0  0  0  0  0  0
   14.9349    8.8590    1.1604 H   0  0  0  0  0  0  0  0  0  0  0  0
   14.8254    8.0667    2.7155 H   0  0  0  0  0  0  0  0  0  0  0  0
  1  2  1  0  0  0  0
  1  6  2  0  0  0  0
  1 22  1  0  0  0  0
  2  3  1  0  0  0  0
  2 15  1  0  0  0  0
  2 23  1  0  0  0  0
  3  4  1  0  0  0  0
  3 11  1  0  0  0  0
  3 24  1  0  0  0  0
  4  5  1  0  0  0  0
  4 10  1  0  0  0  0
  4 25  1  0  0  0  0
  5  6  1  0  0  0  0
  5 26  1  0  0  0  0
  5 27  1  0  0  0  0
  6  7  1  0  0  0  0
  7  8  2  0  0  0  0
  7  9  1  0  0  0  0
 10 28  1  0  0  0  0
 10 29  1  0  0  0  0
 10 30  1  0  0  0  0
 11 12  1  0  0  0  0
 11 31  1  0  0  0  0
 12 13  1  0  0  0  0
 12 14  2  0  0  0  0
 13 32  1  0  0  0  0
 13 33  1  0  0  0  0
 13 34  1  0  0  0  0
 15 16  1  0  0  0  0
 16 17  1  0  0  0  0
 16 20  1  0  0  0  0
 16 35  1  0  0  0  0
 17 18  1  0  0  0  0
 17 36  1  0  0  0  0
 17 37  1  0  0  0  0
 18 19  2  0  0  0  0
 18 38  1  0  0  0  0
 19 39  1  0  0  0  0
 19 40  1  0  0  0  0
 20 21  1  0  0  0  0
 20 41  1  0  0  0  0
 20 42  1  0  0  0  0
 21 43  1  0  0  0  0
 21 44  1  0  0  0  0
 21 45  1  0  0  0  0
M  END
> <Name>
BDB4995

> <Target>
Neuraminidase A

> <IC50_in_nM>
1

> <Kd_from_ITC>
false

> <source_organism>
Influenza A virus (A/Puerto Rico/8/34/Mount Sinai(H1N1))

> <SourceTag>
NA

> <atoms in reference ligand area>
20

> <score>
-23.7477

$$$$
BDB4945
      BALL 1.4.0 (Jan  4 2012, 23:22:29)

 55 56  0999  0  0  0  0  0  0999 V2000
    8.4568    8.0168    3.8102 C   0  0  0  0  0  0  0  0  0  0  0  0
   10.6456    9.6505    4.1510 C   0  0  0  0  0  0  0  0  0  0  0  0
   10.6722    8.3024    4.8490 C   0  0  0  0  0  0  0  0  0  0  0  0
    9.3117    7.7080    4.7912 C   0  0  0  0  0  0  0  0  0  0  0  0
    8.7815    8.9133    2.7565 O   0  0  0  0  0  0  0  0  0  0  0  0
    7.1149    7.4330    3.8419 C   0  0  0  0  0  0  0  0  0  0  0  0
    6.7232    6.7313    2.9025 O   0  0  0  0  0  0  0  0  0  0  0  0
    6.2997    7.6624    4.9043 O   0  5  0  0  0  0  0  0  0  0  0  0
   10.2344   10.6437    1.8903 C   0  0  0  0  0  0  0  0  0  0  0  0
   11.1554   11.4360    2.1178 O   0  0  0  0  0  0  0  0  0  0  0  0
   10.1504    9.3760    2.7442 C   0  0  0  0  0  0  0  0  0  0  0  0
   12.0153   10.1798    4.1020 N   0  0  0  0  0  0  0  0  0  0  0  0
   12.3931   11.5668    4.0581 C   0  0  0  0  0  0  0  0  0  0  0  0
   11.3929   12.7063    4.0563 C   0  0  0  0  0  0  0  0  0  0  0  0
   13.5968   11.8445    4.0198 O   0  0  0  0  0  0  0  0  0  0  0  0
   11.1096    8.4544    6.2439 N   0  3  0  0  0  0  0  0  0  0  0  0
    9.3041   10.9777    0.8586 N   0  0  0  0  0  0  0  0  0  0  0  0
    9.5447   12.1811    0.0979 C   0  0  0  0  0  0  0  0  0  0  0  0
    8.1366   10.1707    0.5631 C   0  0  0  0  0  0  0  0  0  0  0  0
    6.8554   10.8542    1.0976 C   0  0  0  0  0  0  0  0  0  0  0  0
    5.6699   10.4991    0.1833 C   0  0  0  0  0  0  0  0  0  0  0  0
   11.0558   12.4734   -0.0194 C   0  0  0  0  0  0  0  0  0  0  0  0
   11.2663   13.8371   -0.6083 C   0  0  0  0  0  0  0  0  0  0  0  0
   11.6591   16.3676   -1.6873 C   0  0  0  0  0  0  0  0  0  0  0  0
   12.6439   15.3965   -1.8181 C   0  0  0  0  0  0  0  0  0  0  0  0
   12.4473   14.1302   -1.2781 C   0  0  0  0  0  0  0  0  0  0  0  0
   10.2806   14.8088   -0.4773 C   0  0  0  0  0  0  0  0  0  0  0  0
   10.4771   16.0739   -1.0168 C   0  0  0  0  0  0  0  0  0  0  0  0
   10.0040   10.3799    4.6671 H   0  0  0  0  0  0  0  0  0  0  0  0
   11.3870    7.6373    4.3424 H   0  0  0  0  0  0  0  0  0  0  0  0
    9.0009    6.9986    5.5722 H   0  0  0  0  0  0  0  0  0  0  0  0
   10.7929    8.5935    2.3144 H   0  0  0  0  0  0  0  0  0  0  0  0
   12.7801    9.4899    4.0989 H   0  0  0  0  0  0  0  0  0  0  0  0
   11.9009   13.4932    4.6332 H   0  0  0  0  0  0  0  0  0  0  0  0
   10.5796   12.3333    4.6962 H   0  0  0  0  0  0  0  0  0  0  0  0
   11.0534   13.0391    3.0643 H   0  0  0  0  0  0  0  0  0  0  0  0
   11.7301    7.6698    6.4894 H   0  0  0  0  0  0  0  0  0  0  0  0
   10.2838    8.4388    6.8593 H   0  0  0  0  0  0  0  0  0  0  0  0
   11.6130    9.3455    6.3596 H   0  0  0  0  0  0  0  0  0  0  0  0
    9.0493   13.0289    0.5936 H   0  0  0  0  0  0  0  0  0  0  0  0
    9.1192   12.0634   -0.9097 H   0  0  0  0  0  0  0  0  0  0  0  0
    8.2463    9.1837    1.0360 H   0  0  0  0  0  0  0  0  0  0  0  0
    8.0514   10.0389   -0.5256 H   0  0  0  0  0  0  0  0  0  0  0  0
    6.9968   11.9450    1.1071 H   0  0  0  0  0  0  0  0  0  0  0  0
    6.6494   10.5008    2.1187 H   0  0  0  0  0  0  0  0  0  0  0  0
    5.7902   11.0005   -0.7884 H   0  0  0  0  0  0  0  0  0  0  0  0
    4.7309   10.8285    0.6520 H   0  0  0  0  0  0  0  0  0  0  0  0
    5.6388    9.4103    0.0304 H   0  0  0  0  0  0  0  0  0  0  0  0
   11.5261   11.7193   -0.6677 H   0  0  0  0  0  0  0  0  0  0  0  0
   11.5152   12.4319    0.9793 H   0  0  0  0  0  0  0  0  0  0  0  0
   11.8146   17.3693   -2.1144 H   0  0  0  0  0  0  0  0  0  0  0  0
   13.5790   15.6291   -2.3487 H   0  0  0  0  0  0  0  0  0  0  0  0
   13.2267   13.3610   -1.3814 H   0  0  0  0  0  0  0  0  0  0  0  0
    9.3455   14.5761    0.0533 H   0  0  0  0  0  0  0  0  0  0  0  0
    9.6976   16.8431   -0.9134 H   0  0  0  0  0  0  0  0  0  0  0  0
  1  5  1  0  0  0  0
  1  4  2  0  0  0  0
  1  6  1  0  0  0  0
  2 11  1  0  0  0  0
  2  3  1  0  0  0  0
  2 12  1  0  0  0  0
  2 29  1  0  0  0  0
  3  4  1  0  0  0  0
  3 16  1  0  0  0  0
  3 30  1  0  0  0  0
  4 31  1  0  0  0  0
  5 11  1  0  0  0  0
  6  7  2  0  0  0  0
  6  8  1  0  0  0  0
  9 11  1  0  0  0  0
  9 17  1  0  0  0  0
  9 10  2  0  0  0  0
 11 32  1  0  0  0  0
 12 13  1  0  0  0  0
 12 33  1  0  0  0  0
 13 14  1  0  0  0  0
 13 15  2  0  0  0  0
 14 34  1  0  0  0  0
 14 35  1  0  0  0  0
 14 36  1  0  0  0  0
 16 37  1  0  0  0  0
 16 38  1  0  0  0  0
 16 39  1  0  0  0  0
 17 18  1  0  0  0  0
 17 19  1  0  0  0  0
 18 22  1  0  0  0  0
 18 40  1  0  0  0  0
 18 41  1  0  0  0  0
 19 20  1  0  0  0  0
 19 42  1  0  0  0  0
 19 43  1  0  0  0  0
 20 21  1  0  0  0  0
 20 44  1  0  0  0  0
 20 45  1  0  0  0  0
 21 46  1  0  0  0  0
 21 47  1  0  0  0  0
 21 48  1  0  0  0  0
 22 23  1  0  0  0  0
 22 49  1  0  0  0  0
 22 50  1  0  0  0  0
 23 26  2  0  0  0  0
 23 27  1  0  0  0  0
 24 25  2  0  0  0  0
 24 28  1  0  0  0  0
 24 51  1  0  0  0  0
 25 26  1  0  0  0  0
 25 52  1  0  0  0  0
 26 53  1  0  0  0  0
 27 28  2  0  0  0  0
 27 54  1  0  0  0  0
 28 55  1  0  0  0  0
M  END
> <Name>
BDB4945

> <Target>
Neuraminidase A

> <IC50_in_nM>
2

> <Kd_from_ITC>
false

> <source_organism>
Influenza A virus (A/Singapore/1/57(H2N2))

> <SourceTag>
NA

> <atoms in reference ligand area>
19

> <score>
-23.6942

$$$$
BDB4952
      BALL 1.4.0 (Jan  4 2012, 23:22:29)

 52 53  0999  0  0  0  0  0  0999 V2000
    9.4387    8.0653    4.4725 C   0  0  0  0  0  0  0  0  0  0  0  0
   12.1048    8.7426    4.5693 C   0  0  0  0  0  0  0  0  0  0  0  0
   11.6722    7.5183    5.3562 C   0  0  0  0  0  0  0  0  0  0  0  0
   10.1880    7.4919    5.4203 C   0  0  0  0  0  0  0  0  0  0  0  0
    9.9939    8.7233    3.3419 O   0  0  0  0  0  0  0  0  0  0  0  0
    7.9830    8.0452    4.6239 C   0  0  0  0  0  0  0  0  0  0  0  0
    7.2915    7.3566    3.8649 O   0  0  0  0  0  0  0  0  0  0  0  0
    7.3915    8.7837    5.5989 O   0  5  0  0  0  0  0  0  0  0  0  0
   11.9214    9.7252    2.2726 C   0  0  0  0  0  0  0  0  0  0  0  0
   12.9197    9.4920    1.5824 O   0  0  0  0  0  0  0  0  0  0  0  0
   11.4298    8.6222    3.2166 C   0  0  0  0  0  0  0  0  0  0  0  0
   13.5640    8.7011    4.4029 N   0  0  0  0  0  0  0  0  0  0  0  0
   14.4369    9.8324    4.2406 C   0  0  0  0  0  0  0  0  0  0  0  0
   13.9499   11.2681    4.2190 C   0  0  0  0  0  0  0  0  0  0  0  0
   15.6481    9.6232    4.1121 O   0  0  0  0  0  0  0  0  0  0  0  0
   12.2462    7.5475    6.7089 N   0  3  0  0  0  0  0  0  0  0  0  0
   11.3064   11.0107    2.1439 N   0  0  0  0  0  0  0  0  0  0  0  0
   11.8322   11.9088    1.1409 C   0  0  0  0  0  0  0  0  0  0  0  0
   11.0765   13.2552    1.1388 C   0  0  0  0  0  0  0  0  0  0  0  0
   11.4836   14.0616   -0.0605 C   0  0  0  0  0  0  0  0  0  0  0  0
   12.2387   15.5648   -2.2725 C   0  0  0  0  0  0  0  0  0  0  0  0
   12.7121   14.2676   -2.1199 C   0  0  0  0  0  0  0  0  0  0  0  0
   12.3342   13.5157   -1.0129 C   0  0  0  0  0  0  0  0  0  0  0  0
   11.0095   15.3600   -0.2130 C   0  0  0  0  0  0  0  0  0  0  0  0
   11.3872   16.1113   -1.3189 C   0  0  0  0  0  0  0  0  0  0  0  0
   10.2035   11.4430    2.9831 C   0  0  0  0  0  0  0  0  0  0  0  0
   10.7059   12.4045    4.0903 C   0  0  0  0  0  0  0  0  0  0  0  0
   11.8338    9.6834    5.0706 H   0  0  0  0  0  0  0  0  0  0  0  0
   12.0359    6.6089    4.8555 H   0  0  0  0  0  0  0  0  0  0  0  0
    9.6948    6.9898    6.2656 H   0  0  0  0  0  0  0  0  0  0  0  0
   11.6887    7.6356    2.8048 H   0  0  0  0  0  0  0  0  0  0  0  0
   14.0051    7.7703    4.4024 H   0  0  0  0  0  0  0  0  0  0  0  0
   12.9028   11.1778    3.8941 H   0  0  0  0  0  0  0  0  0  0  0  0
   14.4965   11.7106    3.3732 H   0  0  0  0  0  0  0  0  0  0  0  0
   14.0711   11.8252    5.1597 H   0  0  0  0  0  0  0  0  0  0  0  0
   11.5375    7.2236    7.3824 H   0  0  0  0  0  0  0  0  0  0  0  0
   12.5158    8.5145    6.9394 H   0  0  0  0  0  0  0  0  0  0  0  0
   13.0736    6.9358    6.7532 H   0  0  0  0  0  0  0  0  0  0  0  0
   11.7384   11.4400    0.1501 H   0  0  0  0  0  0  0  0  0  0  0  0
   12.8977   12.0923    1.3432 H   0  0  0  0  0  0  0  0  0  0  0  0
   11.3195   13.8141    2.0545 H   0  0  0  0  0  0  0  0  0  0  0  0
    9.9933   13.0673    1.1024 H   0  0  0  0  0  0  0  0  0  0  0  0
   12.5376   16.1597   -3.1481 H   0  0  0  0  0  0  0  0  0  0  0  0
   13.3858   13.8355   -2.8745 H   0  0  0  0  0  0  0  0  0  0  0  0
   12.7089   12.4886   -0.8917 H   0  0  0  0  0  0  0  0  0  0  0  0
   10.3359   15.7920    0.5417 H   0  0  0  0  0  0  0  0  0  0  0  0
   11.0125   17.1384   -1.4401 H   0  0  0  0  0  0  0  0  0  0  0  0
    9.4564   11.9606    2.3635 H   0  0  0  0  0  0  0  0  0  0  0  0
    9.7345   10.5644    3.4500 H   0  0  0  0  0  0  0  0  0  0  0  0
   11.3280   13.1869    3.6312 H   0  0  0  0  0  0  0  0  0  0  0  0
   11.3125   11.8364    4.8110 H   0  0  0  0  0  0  0  0  0  0  0  0
    9.8496   12.8643    4.6054 H   0  0  0  0  0  0  0  0  0  0  0  0
  1  5  1  0  0  0  0
  1  4  2  0  0  0  0
  1  6  1  0  0  0  0
  2 11  1  0  0  0  0
  2  3  1  0  0  0  0
  2 12  1  0  0  0  0
  2 28  1  0  0  0  0
  3  4  1  0  0  0  0
  3 16  1  0  0  0  0
  3 29  1  0  0  0  0
  4 30  1  0  0  0  0
  5 11  1  0  0  0  0
  6  7  2  0  0  0  0
  6  8  1  0  0  0  0
  9 11  1  0  0  0  0
  9 17  1  0  0  0  0
  9 10  2  0  0  0  0
 11 31  1  0  0  0  0
 12 13  1  0  0  0  0
 12 32  1  0  0  0  0
 13 14  1  0  0  0  0
 13 15  2  0  0  0  0
 14 33  1  0  0  0  0
 14 34  1  0  0  0  0
 14 35  1  0  0  0  0
 16 36  1  0  0  0  0
 16 37  1  0  0  0  0
 16 38  1  0  0  0  0
 17 18  1  0  0  0  0
 17 26  1  0  0  0  0
 18 19  1  0  0  0  0
 18 39  1  0  0  0  0
 18 40  1  0  0  0  0
 19 20  1  0  0  0  0
 19 41  1  0  0  0  0
 19 42  1  0  0  0  0
 20 23  2  0  0  0  0
 20 24  1  0  0  0  0
 21 22  2  0  0  0  0
 21 25  1  0  0  0  0
 21 43  1  0  0  0  0
 22 23  1  0  0  0  0
 22 44  1  0  0  0  0
 23 45  1  0  0  0  0
 24 25  2  0  0  0  0
 24 46  1  0  0  0  0
 25 47  1  0  0  0  0
 26 27  1  0  0  0  0
 26 48  1  0  0  0  0
 26 49  1  0  0  0  0
 27 50  1  0  0  0  0
 27 51  1  0  0  0  0
 27 52  1  0  0  0  0
M  END
> <Name>
BDB4952

> <Target>
Neuraminidase A

> <IC50_in_nM>
5

> <Kd_from_ITC>
false

> <source_organism>
Influenza A virus (A/Singapore/1/57(H2N2))

> <SourceTag>
NA

> <atoms in reference ligand area>
13

> <score>
-22.917

$$$$
BDB4968
      BALL 1.4.0 (Jan  4 2012, 23:22:29)

 55 56  0999  0  0  0  0  0  0999 V2000
    7.7723    9.1294    2.8870 C   0  0  0  0  0  0  0  0  0  0  0  0
    9.2168   11.3651    2.1865 C   0  0  0  0  0  0  0  0  0  0  0  0
    7.7074   11.4423    2.0417 C   0  0  0  0  0  0  0  0  0  0  0  0
    7.1440   10.0743    2.1794 C   0  0  0  0  0  0  0  0  0  0  0  0
    9.0015    9.3591    3.5621 O   0  0  0  0  0  0  0  0  0  0  0  0
    7.1862    7.7891    2.9399 C   0  0  0  0  0  0  0  0  0  0  0  0
    5.9600    7.6470    2.8719 O   0  0  0  0  0  0  0  0  0  0  0  0
    7.9903    6.7010    3.0638 O   0  5  0  0  0  0  0  0  0  0  0  0
   10.9596   10.7427    3.8680 C   0  0  0  0  0  0  0  0  0  0  0  0
   11.6466   11.6606    3.4061 O   0  0  0  0  0  0  0  0  0  0  0  0
    9.4685   10.7263    3.5387 C   0  0  0  0  0  0  0  0  0  0  0  0
    9.7593   12.7304    2.1724 N   0  0  0  0  0  0  0  0  0  0  0  0
    9.1600   13.8931    2.7702 C   0  0  0  0  0  0  0  0  0  0  0  0
    7.8427   13.8627    3.5203 C   0  0  0  0  0  0  0  0  0  0  0  0
    9.7499   14.9741    2.6669 O   0  0  0  0  0  0  0  0  0  0  0  0
    7.3449   12.0206    0.7400 N   0  3  0  0  0  0  0  0  0  0  0  0
   10.9053    9.2450    5.8143 C   0  0  0  0  0  0  0  0  0  0  0  0
   11.6083    8.0157    6.4284 C   0  0  0  0  0  0  0  0  0  0  0  0
   11.1580    7.8251    7.8474 C   0  0  0  0  0  0  0  0  0  0  0  0
   11.4832    6.8663   10.0305 C   0  0  0  0  0  0  0  0  0  0  0  0
   11.9006    7.0361    8.7163 C   0  0  0  0  0  0  0  0  0  0  0  0
    9.9960    8.4460    8.2919 C   0  0  0  0  0  0  0  0  0  0  0  0
    9.5784    8.2761    9.6065 C   0  0  0  0  0  0  0  0  0  0  0  0
   11.6140    9.7498    4.6594 N   0  0  0  0  0  0  0  0  0  0  0  0
   12.9273    9.2176    4.3298 C   0  0  0  0  0  0  0  0  0  0  0  0
   13.8153   10.2910    3.6514 C   0  0  0  0  0  0  0  0  0  0  0  0
   14.3326   11.2701    4.7223 C   0  0  0  0  0  0  0  0  0  0  0  0
   10.3222    7.4863   10.4753 C   0  0  0  0  0  0  0  0  0  0  0  0
    9.8077    7.2754   12.0998 Cl  0  0  0  0  0  0  0  0  0  0  0  0
   13.3355    6.2698    8.1666 Cl  0  0  0  0  0  0  0  0  0  0  0  0
    9.6892   10.7897    1.3767 H   0  0  0  0  0  0  0  0  0  0  0  0
    7.2930   12.0924    2.8263 H   0  0  0  0  0  0  0  0  0  0  0  0
    6.1895    9.8336    1.6885 H   0  0  0  0  0  0  0  0  0  0  0  0
    8.9148   11.3106    4.2883 H   0  0  0  0  0  0  0  0  0  0  0  0
   10.6571   12.8685    1.6867 H   0  0  0  0  0  0  0  0  0  0  0  0
    7.0944   13.7719    2.7191 H   0  0  0  0  0  0  0  0  0  0  0  0
    7.7488   14.8858    3.9134 H   0  0  0  0  0  0  0  0  0  0  0  0
    7.7541   13.0855    4.2937 H   0  0  0  0  0  0  0  0  0  0  0  0
    7.2606   11.2633    0.0470 H   0  0  0  0  0  0  0  0  0  0  0  0
    8.0859   12.6713    0.4426 H   0  0  0  0  0  0  0  0  0  0  0  0
    6.4496   12.5241    0.8159 H   0  0  0  0  0  0  0  0  0  0  0  0
    9.8840    8.9647    5.5167 H   0  0  0  0  0  0  0  0  0  0  0  0
   10.8405   10.0395    6.5723 H   0  0  0  0  0  0  0  0  0  0  0  0
   11.3566    7.1196    5.8423 H   0  0  0  0  0  0  0  0  0  0  0  0
   12.6975    8.1683    6.4088 H   0  0  0  0  0  0  0  0  0  0  0  0
   12.0716    6.2412   10.7184 H   0  0  0  0  0  0  0  0  0  0  0  0
    9.4079    9.0710    7.6037 H   0  0  0  0  0  0  0  0  0  0  0  0
    8.6593    8.7668    9.9594 H   0  0  0  0  0  0  0  0  0  0  0  0
   12.8112    8.3614    3.6491 H   0  0  0  0  0  0  0  0  0  0  0  0
   13.4186    8.8710    5.2510 H   0  0  0  0  0  0  0  0  0  0  0  0
   13.2228   10.8421    2.9062 H   0  0  0  0  0  0  0  0  0  0  0  0
   14.6686    9.8034    3.1573 H   0  0  0  0  0  0  0  0  0  0  0  0
   15.0996   11.9259    4.2846 H   0  0  0  0  0  0  0  0  0  0  0  0
   14.7667   10.7059    5.5609 H   0  0  0  0  0  0  0  0  0  0  0  0
   13.4968   11.8832    5.0904 H   0  0  0  0  0  0  0  0  0  0  0  0
  1  5  1  0  0  0  0
  1  4  2  0  0  0  0
  1  6  1  0  0  0  0
  2 11  1  0  0  0  0
  2  3  1  0  0  0  0
  2 12  1  0  0  0  0
  2 31  1  0  0  0  0
  3  4  1  0  0  0  0
  3 16  1  0  0  0  0
  3 32  1  0  0  0  0
  4 33  1  0  0  0  0
  5 11  1  0  0  0  0
  6  7  2  0  0  0  0
  6  8  1  0  0  0  0
  9 11  1  0  0  0  0
  9 24  1  0  0  0  0
  9 10  2  0  0  0  0
 11 34  1  0  0  0  0
 12 13  1  0  0  0  0
 12 35  1  0  0  0  0
 13 14  1  0  0  0  0
 13 15  2  0  0  0  0
 14 36  1  0  0  0  0
 14 37  1  0  0  0  0
 14 38  1  0  0  0  0
 16 39  1  0  0  0  0
 16 40  1  0  0  0  0
 16 41  1  0  0  0  0
 17 24  1  0  0  0  0
 17 18  1  0  0  0  0
 17 42  1  0  0  0  0
 17 43  1  0  0  0  0
 18 19  1  0  0  0  0
 18 44  1  0  0  0  0
 18 45  1  0  0  0  0
 19 21  2  0  0  0  0
 19 22  1  0  0  0  0
 20 28  2  0  0  0  0
 20 21  1  0  0  0  0
 20 46  1  0  0  0  0
 21 30  1  0  0  0  0
 22 23  2  0  0  0  0
 22 47  1  0  0  0  0
 23 28  1  0  0  0  0
 23 48  1  0  0  0  0
 24 25  1  0  0  0  0
 25 26  1  0  0  0  0
 25 49  1  0  0  0  0
 25 50  1  0  0  0  0
 26 27  1  0  0  0  0
 26 51  1  0  0  0  0
 26 52  1  0  0  0  0
 27 53  1  0  0  0  0
 27 54  1  0  0  0  0
 27 55  1  0  0  0  0
 28 29  1  0  0  0  0
M  END
> <Name>
BDB4968

> <Target>
Neuraminidase A

> <IC50_in_nM>
6

> <Kd_from_ITC>
false

> <source_organism>
Influenza A virus (A/Singapore/1/57(H2N2))

> <SourceTag>
NA

> <atoms in reference ligand area>
18

> <score>
-21.4928

$$$$
BDB5204
      BALL 1.4.0 (Jan  4 2012, 23:22:29)

 46 46  0999  0  0  0  0  0  0999 V2000
   10.2359    9.1058    1.9553 C   0  0  0  0  0  0  0  0  0  0  0  0
    9.0981   10.0687    1.7369 C   0  0  0  0  0  0  0  0  0  0  0  0
   11.1009   11.3318    1.5502 N   0  3  0  0  0  0  0  0  0  0  0  0
   11.3228    9.8907    1.1979 C   0  0  0  0  0  0  0  0  0  0  0  0
   12.7065    9.4134    1.5339 C   0  0  0  0  0  0  0  0  0  0  0  0
   13.2513    9.7877    2.5784 O   0  0  0  0  0  0  0  0  0  0  0  0
   13.3562    8.5669    0.6938 O   0  5  0  0  0  0  0  0  0  0  0  0
    9.7789   11.3371    2.2326 C   0  0  0  0  0  0  0  0  0  0  0  0
    9.9306   12.7213    1.4574 C   0  0  0  0  0  0  0  0  0  0  0  0
    8.5574   13.5846    1.8087 C   0  0  0  0  0  0  0  0  0  0  0  0
    9.7153   14.6162    1.9651 C   0  0  0  0  0  0  0  0  0  0  0  0
    9.7982   15.0435    3.4402 C   0  0  0  0  0  0  0  0  0  0  0  0
    9.4804   15.8781    1.1066 C   0  0  0  0  0  0  0  0  0  0  0  0
    9.7647   12.3398   -0.0069 N   0  0  0  0  0  0  0  0  0  0  0  0
    9.2608   12.6928   -1.2749 C   0  0  0  0  0  0  0  0  0  0  0  0
    7.8007   13.0159   -1.4648 C   0  0  0  0  0  0  0  0  0  0  0  0
   10.0227   12.7276   -2.2438 O   0  0  0  0  0  0  0  0  0  0  0  0
    7.8838    9.7285    2.5535 C   0  0  0  0  0  0  0  0  0  0  0  0
    6.6792   10.1226    2.1466 C   0  0  0  0  0  0  0  0  0  0  0  0
    6.5352   10.9051    0.8746 C   0  0  0  0  0  0  0  0  0  0  0  0
   10.0345    8.1441    1.4608 H   0  0  0  0  0  0  0  0  0  0  0  0
   10.4835    9.0297    3.0244 H   0  0  0  0  0  0  0  0  0  0  0  0
    8.6998   10.1016    0.7121 H   0  0  0  0  0  0  0  0  0  0  0  0
   11.8348   11.6564    2.1959 H   0  0  0  0  0  0  0  0  0  0  0  0
   11.0610   11.9051    0.6954 H   0  0  0  0  0  0  0  0  0  0  0  0
   11.2455    9.7383    0.1113 H   0  0  0  0  0  0  0  0  0  0  0  0
    9.8822   11.3481    3.3277 H   0  0  0  0  0  0  0  0  0  0  0  0
   10.8640   13.2457    1.7100 H   0  0  0  0  0  0  0  0  0  0  0  0
    7.8407   13.9716    1.0694 H   0  0  0  0  0  0  0  0  0  0  0  0
    8.0200   13.5133    2.7658 H   0  0  0  0  0  0  0  0  0  0  0  0
   10.6467   14.1365    1.6299 H   0  0  0  0  0  0  0  0  0  0  0  0
    8.7855   15.1585    3.8540 H   0  0  0  0  0  0  0  0  0  0  0  0
   10.3417   15.9962    3.5239 H   0  0  0  0  0  0  0  0  0  0  0  0
   10.3350   14.2709    4.0101 H   0  0  0  0  0  0  0  0  0  0  0  0
   10.4441   16.1934    0.6801 H   0  0  0  0  0  0  0  0  0  0  0  0
    9.1016   16.6780    1.7597 H   0  0  0  0  0  0  0  0  0  0  0  0
    8.7590   15.6701    0.3028 H   0  0  0  0  0  0  0  0  0  0  0  0
   10.7533   12.0642    0.0804 H   0  0  0  0  0  0  0  0  0  0  0  0
    7.5539   12.6118   -2.4577 H   0  0  0  0  0  0  0  0  0  0  0  0
    7.7676   14.1122   -1.5483 H   0  0  0  0  0  0  0  0  0  0  0  0
    7.1436   12.6291   -0.6720 H   0  0  0  0  0  0  0  0  0  0  0  0
    7.9900    9.1548    3.4859 H   0  0  0  0  0  0  0  0  0  0  0  0
    5.7889    9.8745    2.7432 H   0  0  0  0  0  0  0  0  0  0  0  0
    6.5568   11.9610    1.1823 H   0  0  0  0  0  0  0  0  0  0  0  0
    5.5175   10.6889    0.5175 H   0  0  0  0  0  0  0  0  0  0  0  0
    7.3027   10.6713    0.1221 H   0  0  0  0  0  0  0  0  0  0  0  0
  1  4  1  0  0  0  0
  1  2  1  0  0  0  0
  1 21  1  0  0  0  0
  1 22  1  0  0  0  0
  2  8  1  0  0  0  0
  2 18  1  0  0  0  0
  2 23  1  0  0  0  0
  3  4  1  0  0  0  0
  3  8  1  0  0  0  0
  3 24  1  0  0  0  0
  3 25  1  0  0  0  0
  4  5  1  0  0  0  0
  4 26  1  0  0  0  0
  5  6  2  0  0  0  0
  5  7  1  0  0  0  0
  8  9  1  0  0  0  0
  8 27  1  0  0  0  0
  9 10  1  0  0  0  0
  9 14  1  0  0  0  0
  9 28  1  0  0  0  0
 10 11  1  0  0  0  0
 10 29  1  0  0  0  0
 10 30  1  0  0  0  0
 11 12  1  0  0  0  0
 11 13  1  0  0  0  0
 11 31  1  0  0  0  0
 12 32  1  0  0  0  0
 12 33  1  0  0  0  0
 12 34  1  0  0  0  0
 13 35  1  0  0  0  0
 13 36  1  0  0  0  0
 13 37  1  0  0  0  0
 14 15  1  0  0  0  0
 14 38  1  0  0  0  0
 15 16  1  0  0  0  0
 15 17  2  0  0  0  0
 16 39  1  0  0  0  0
 16 40  1  0  0  0  0
 16 41  1  0  0  0  0
 18 19  2  0  0  0  0
 18 42  1  0  0  0  0
 19 20  1  0  0  0  0
 19 43  1  0  0  0  0
 20 44  1  0  0  0  0
 20 45  1  0  0  0  0
 20 46  1  0  0  0  0
M  END
> <Name>
BDB5204

> <Target>
Neuraminidase A

> <Ki_in_nM>
20

> <Kd_from_ITC>
false

> <Uniprot_ID>
P06820

> <source_organism>
Influenza A virus (A/Tokyo/3/67(H2N2))

> <SourceTag>
NA

> <atoms in reference ligand area>
25

> <score>
-19.3181

$$$$
BDB5021
      BALL 1.4.0 (Jan  4 2012, 23:22:29)

 47 47  0999  0  0  0  0  0  0999 V2000
    9.7361    7.8086    3.9893 C   0  0  0  0  0  0  0  0  0  0  0  0
   10.4376   10.0668    4.6437 C   0  0  0  0  0  0  0  0  0  0  0  0
   10.4868    8.5898    5.1256 C   0  0  0  0  0  0  0  0  0  0  0  0
    9.6187    8.5034    6.3508 C   0  0  0  0  0  0  0  0  0  0  0  0
   10.1229    8.2373    7.4475 O   0  0  0  0  0  0  0  0  0  0  0  0
    8.2814    8.7178    6.2513 O   0  5  0  0  0  0  0  0  0  0  0  0
    9.2723    8.9217    3.0321 C   0  0  0  0  0  0  0  0  0  0  0  0
    9.0812   10.1011    3.9526 C   0  0  0  0  0  0  0  0  0  0  0  0
    8.8763   10.5957    2.4273 C   0  0  0  0  0  0  0  0  0  0  0  0
    7.5226   11.4934    2.5220 N   0  0  0  0  0  0  0  0  0  0  0  0
    6.9927   10.8772    1.3210 C   0  0  0  0  0  0  0  0  0  0  0  0
    7.8098   10.0598    0.3417 C   0  0  0  0  0  0  0  0  0  0  0  0
    5.7837   11.0088    1.0928 O   0  0  0  0  0  0  0  0  0  0  0  0
   10.0596   11.7607    2.2316 C   0  0  0  0  0  0  0  0  0  0  0  0
   11.5057   11.7227    2.7636 C   0  0  0  0  0  0  0  0  0  0  0  0
   12.0760   13.1506    2.8067 C   0  0  0  0  0  0  0  0  0  0  0  0
   13.4234   13.1405    3.5516 C   0  0  0  0  0  0  0  0  0  0  0  0
    8.0829    8.5623    2.2868 N   0  0  0  0  0  0  0  0  0  0  0  0
    6.7865    8.6049    2.8490 C   0  0  0  0  0  0  0  0  0  0  0  0
    6.6426    8.3994    4.0945 N   0  3  0  0  0  0  0  0  0  0  0  0
    5.6569    8.8686    2.0632 N   0  0  0  0  0  0  0  0  0  0  0  0
    8.8670    7.2780    4.4052 H   0  0  0  0  0  0  0  0  0  0  0  0
   10.4312    7.1286    3.4750 H   0  0  0  0  0  0  0  0  0  0  0  0
   10.4502   10.7513    5.5046 H   0  0  0  0  0  0  0  0  0  0  0  0
   11.2436   10.2611    3.9208 H   0  0  0  0  0  0  0  0  0  0  0  0
   11.5026    8.2206    5.3306 H   0  0  0  0  0  0  0  0  0  0  0  0
    9.9947    9.1331    2.2300 H   0  0  0  0  0  0  0  0  0  0  0  0
    8.2069   10.0583    4.6189 H   0  0  0  0  0  0  0  0  0  0  0  0
    8.8894    9.7713    1.6991 H   0  0  0  0  0  0  0  0  0  0  0  0
    6.8324   11.9845    3.1079 H   0  0  0  0  0  0  0  0  0  0  0  0
    7.0902    9.8500   -0.4635 H   0  0  0  0  0  0  0  0  0  0  0  0
    7.9512    9.1078    0.8743 H   0  0  0  0  0  0  0  0  0  0  0  0
    8.7473   10.5168   -0.0081 H   0  0  0  0  0  0  0  0  0  0  0  0
    9.3779   12.0500    3.0450 H   0  0  0  0  0  0  0  0  0  0  0  0
    9.9889   12.4943    1.4151 H   0  0  0  0  0  0  0  0  0  0  0  0
   11.5124   11.2954    3.7771 H   0  0  0  0  0  0  0  0  0  0  0  0
   12.1252   11.1014    2.1003 H   0  0  0  0  0  0  0  0  0  0  0  0
   11.3719   13.8124    3.3325 H   0  0  0  0  0  0  0  0  0  0  0  0
   12.2275   13.5164    1.7804 H   0  0  0  0  0  0  0  0  0  0  0  0
   14.1295   12.4802    3.0268 H   0  0  0  0  0  0  0  0  0  0  0  0
   13.2739   12.7752    4.5783 H   0  0  0  0  0  0  0  0  0  0  0  0
   13.8325   14.1611    3.5833 H   0  0  0  0  0  0  0  0  0  0  0  0
    8.1862    8.2631    1.3066 H   0  0  0  0  0  0  0  0  0  0  0  0
    7.4593    8.2037    4.6910 H   0  0  0  0  0  0  0  0  0  0  0  0
    5.7004    8.4292    4.5094 H   0  0  0  0  0  0  0  0  0  0  0  0
    5.7151    8.7283    1.0445 H   0  0  0  0  0  0  0  0  0  0  0  0
    4.7811    9.1977    2.4939 H   0  0  0  0  0  0  0  0  0  0  0  0
  1  7  1  0  0  0  0
  1  3  1  0  0  0  0
  1 22  1  0  0  0  0
  1 23  1  0  0  0  0
  2  8  1  0  0  0  0
  2  3  1  0  0  0  0
  2 24  1  0  0  0  0
  2 25  1  0  0  0  0
  3  4  1  0  0  0  0
  3 26  1  0  0  0  0
  4  6  1  0  0  0  0
  4  5  2  0  0  0  0
  7  8  1  0  0  0  0
  7 18  1  0  0  0  0
  7 27  1  0  0  0  0
  8  9  1  0  0  0  0
  8 28  1  0  0  0  0
  9 10  1  0  0  0  0
  9 14  1  0  0  0  0
  9 29  1  0  0  0  0
 10 11  1  0  0  0  0
 10 30  1  0  0  0  0
 11 12  1  0  0  0  0
 11 13  2  0  0  0  0
 12 31  1  0  0  0  0
 12 32  1  0  0  0  0
 12 33  1  0  0  0  0
 14 15  1  0  0  0  0
 14 34  1  0  0  0  0
 14 35  1  0  0  0  0
 15 16  1  0  0  0  0
 15 36  1  0  0  0  0
 15 37  1  0  0  0  0
 16 17  1  0  0  0  0
 16 38  1  0  0  0  0
 16 39  1  0  0  0  0
 17 40  1  0  0  0  0
 17 41  1  0  0  0  0
 17 42  1  0  0  0  0
 18 19  1  0  0  0  0
 18 43  1  0  0  0  0
 19 20  2  0  0  0  0
 19 21  1  0  0  0  0
 20 44  1  0  0  0  0
 20 45  1  0  0  0  0
 21 46  1  0  0  0  0
 21 47  1  0  0  0  0
M  END
> <Name>
BDB5021

> <Target>
Neuraminidase A

> <IC50_in_nM>
13

> <Kd_from_ITC>
false

> <source_organism>
Influenza A virus (A/Singapore/1/57(H2N2))

> <SourceTag>
NA

> <atoms in reference ligand area>
14

> <score>
2e+10

$$$$
