BDB4934
      BALL 1.4.0 (Jan  4 2012, 23:22:29)

 43 43  0999  0  0  0  0  0  0999 V2000
  -30.2305   12.5964  -21.0154 C   0  0  0  0  0  0  0  0  0  0  0  0
  -29.8627   13.4527  -19.8188 C   0  0  0  0  0  0  0  0  0  0  0  0
  -30.7435   13.0818  -18.6826 C   0  0  0  0  0  0  0  0  0  0  0  0
  -31.2703   11.8571  -18.5795 C   0  0  0  0  0  0  0  0  0  0  0  0
  -32.1634   11.5725  -17.4553 C   0  0  0  0  0  0  0  0  0  0  0  0
  -32.5281   10.4122  -17.2333 O   0  0  0  0  0  0  0  0  0  0  0  0
  -32.5917   12.5838  -16.6554 O   0  5  0  0  0  0  0  0  0  0  0  0
  -31.0246   10.8262  -19.5273 O   0  0  0  0  0  0  0  0  0  0  0  0
  -28.9118   15.7340  -20.2788 C   0  0  0  0  0  0  0  0  0  0  0  0
  -30.0138   14.8594  -20.1385 N   0  0  0  0  0  0  0  0  0  0  0  0
  -28.4960   16.0271  -21.4430 N   0  3  0  0  0  0  0  0  0  0  0  0
  -28.2682   16.2843  -19.1627 N   0  0  0  0  0  0  0  0  0  0  0  0
  -29.2881   12.8815  -22.1061 N   0  0  0  0  0  0  0  0  0  0  0  0
  -27.8863   12.5612  -22.1281 C   0  0  0  0  0  0  0  0  0  0  0  0
  -27.1702   11.8625  -20.9888 C   0  0  0  0  0  0  0  0  0  0  0  0
  -27.2307   12.8719  -23.1286 O   0  0  0  0  0  0  0  0  0  0  0  0
  -30.2834   10.1966  -21.7573 C   0  0  0  0  0  0  0  0  0  0  0  0
  -29.0301    9.9789  -22.4097 O   0  0  0  0  0  0  0  0  0  0  0  0
  -31.2816   10.8037  -22.7679 C   0  0  0  0  0  0  0  0  0  0  0  0
  -31.0898   10.1285  -24.1370 C   0  0  0  0  0  0  0  0  0  0  0  0
  -32.6232   10.5890  -22.3234 O   0  0  0  0  0  0  0  0  0  0  0  0
  -32.0123   10.6860  -25.0758 O   0  0  0  0  0  0  0  0  0  0  0  0
  -30.0734   11.1555  -20.5649 C   0  0  0  0  0  0  0  0  0  0  0  0
  -31.2525   12.7938  -21.3710 H   0  0  0  0  0  0  0  0  0  0  0  0
  -28.8114   13.2790  -19.5457 H   0  0  0  0  0  0  0  0  0  0  0  0
  -30.9675   13.8307  -17.9086 H   0  0  0  0  0  0  0  0  0  0  0  0
  -30.9632   15.2369  -20.2686 H   0  0  0  0  0  0  0  0  0  0  0  0
  -28.9543   15.6339  -22.2775 H   0  0  0  0  0  0  0  0  0  0  0  0
  -27.6936   16.6637  -21.5512 H   0  0  0  0  0  0  0  0  0  0  0  0
  -27.6955   17.1315  -19.2853 H   0  0  0  0  0  0  0  0  0  0  0  0
  -28.3640   15.8511  -18.2331 H   0  0  0  0  0  0  0  0  0  0  0  0
  -29.6688   13.3574  -22.9363 H   0  0  0  0  0  0  0  0  0  0  0  0
  -27.7550   10.9418  -20.8459 H   0  0  0  0  0  0  0  0  0  0  0  0
  -27.3871   12.5018  -20.1204 H   0  0  0  0  0  0  0  0  0  0  0  0
  -26.0963   11.6809  -21.1428 H   0  0  0  0  0  0  0  0  0  0  0  0
  -30.6882    9.2447  -21.3833 H   0  0  0  0  0  0  0  0  0  0  0  0
  -28.3880    9.5761  -21.7728 H   0  0  0  0  0  0  0  0  0  0  0  0
  -31.0969   11.8849  -22.8507 H   0  0  0  0  0  0  0  0  0  0  0  0
  -30.0615   10.2983  -24.4889 H   0  0  0  0  0  0  0  0  0  0  0  0
  -31.2716    9.0477  -24.0428 H   0  0  0  0  0  0  0  0  0  0  0  0
  -33.2510   10.9864  -22.9777 H   0  0  0  0  0  0  0  0  0  0  0  0
  -32.5615   11.3781  -24.6294 H   0  0  0  0  0  0  0  0  0  0  0  0
  -29.0545   11.0412  -20.1664 H   0  0  0  0  0  0  0  0  0  0  0  0
  1 23  1  0  0  0  0
  1  2  1  0  0  0  0
  1 13  1  0  0  0  0
  1 24  1  0  0  0  0
  2  3  1  0  0  0  0
  2 10  1  0  0  0  0
  2 25  1  0  0  0  0
  3  4  2  0  0  0  0
  3 26  1  0  0  0  0
  4  8  1  0  0  0  0
  4  5  1  0  0  0  0
  5  6  2  0  0  0  0
  5  7  1  0  0  0  0
  8 23  1  0  0  0  0
  9 10  1  0  0  0  0
  9 12  1  0  0  0  0
  9 11  2  0  0  0  0
 10 27  1  0  0  0  0
 11 28  1  0  0  0  0
 11 29  1  0  0  0  0
 12 30  1  0  0  0  0
 12 31  1  0  0  0  0
 13 14  1  0  0  0  0
 13 32  1  0  0  0  0
 14 15  1  0  0  0  0
 14 16  2  0  0  0  0
 15 33  1  0  0  0  0
 15 34  1  0  0  0  0
 15 35  1  0  0  0  0
 17 23  1  0  0  0  0
 17 19  1  0  0  0  0
 17 18  1  0  0  0  0
 17 36  1  0  0  0  0
 18 37  1  0  0  0  0
 19 20  1  0  0  0  0
 19 21  1  0  0  0  0
 19 38  1  0  0  0  0
 20 22  1  0  0  0  0
 20 39  1  0  0  0  0
 20 40  1  0  0  0  0
 21 41  1  0  0  0  0
 22 42  1  0  0  0  0
 23 43  1  0  0  0  0
M  END
> <Name>
BDB4934

> <Target>
Neuraminidase A

> <Ki_in_nM>
1

> <IC50_in_nM>
2

> <Kd_from_ITC>
false

> <source_organism>
Influenza A virus (A/Singapore/1/57(H2N2))

> <SourceTag>
NA

> <atoms in reference ligand area>
26

> <score>
-22.8772

$$$$
BDB5008
      BALL 1.4.0 (Jan  4 2012, 23:22:29)

 34 34  0999  0  0  0  0  0  0999 V2000
  -30.7002   11.4813  -20.3279 C   0  0  0  0  0  0  0  0  0  0  0  0
  -30.8385   11.2483  -21.8212 C   0  0  0  0  0  0  0  0  0  0  0  0
  -29.4752   10.9887  -22.4756 C   0  0  0  0  0  0  0  0  0  0  0  0
  -28.3818   12.0385  -21.9711 C   0  0  0  0  0  0  0  0  0  0  0  0
  -28.2141   11.8888  -20.4721 C   0  0  0  0  0  0  0  0  0  0  0  0
  -29.5318   11.7958  -19.7282 C   0  0  0  0  0  0  0  0  0  0  0  0
  -29.5059   12.0008  -18.2877 C   0  0  0  0  0  0  0  0  0  0  0  0
  -28.5023   11.6972  -17.6357 O   0  0  0  0  0  0  0  0  0  0  0  0
  -30.5894   12.5355  -17.6652 O   0  5  0  0  0  0  0  0  0  0  0  0
  -31.4498   12.3913  -22.4099 O   0  0  0  0  0  0  0  0  0  0  0  0
  -29.0160    9.5249  -22.3582 N   0  0  0  0  0  0  0  0  0  0  0  0
  -29.1208    8.3588  -23.2634 C   0  0  0  0  0  0  0  0  0  0  0  0
  -29.9755    8.2049  -24.4814 C   0  0  0  0  0  0  0  0  0  0  0  0
  -28.4407    7.3730  -22.9602 O   0  0  0  0  0  0  0  0  0  0  0  0
  -28.5114   13.5418  -22.3887 N   0  0  0  0  0  0  0  0  0  0  0  0
  -27.8967   14.8076  -21.8358 C   0  0  0  0  0  0  0  0  0  0  0  0
  -28.2378   15.9066  -22.3782 N   0  3  0  0  0  0  0  0  0  0  0  0
  -26.9635   14.9176  -20.7501 N   0  0  0  0  0  0  0  0  0  0  0  0
  -31.5746   11.3913  -19.7179 H   0  0  0  0  0  0  0  0  0  0  0  0
  -31.5131   10.4083  -22.0332 H   0  0  0  0  0  0  0  0  0  0  0  0
  -29.6001   11.1071  -23.5609 H   0  0  0  0  0  0  0  0  0  0  0  0
  -27.4293   11.7401  -22.4335 H   0  0  0  0  0  0  0  0  0  0  0  0
  -27.6513   12.7352  -20.0908 H   0  0  0  0  0  0  0  0  0  0  0  0
  -27.6269   10.9956  -20.2672 H   0  0  0  0  0  0  0  0  0  0  0  0
  -30.9963   12.6460  -23.1900 H   0  0  0  0  0  0  0  0  0  0  0  0
  -28.4465    9.3536  -21.5640 H   0  0  0  0  0  0  0  0  0  0  0  0
  -29.6827    9.1296  -25.0371 H   0  0  0  0  0  0  0  0  0  0  0  0
  -30.9700    8.4806  -24.0518 H   0  0  0  0  0  0  0  0  0  0  0  0
  -29.9279    7.4004  -24.9492 H   0  0  0  0  0  0  0  0  0  0  0  0
  -29.2519   13.7213  -23.0790 H   0  0  0  0  0  0  0  0  0  0  0  0
  -28.8742   15.9101  -23.1374 H   0  0  0  0  0  0  0  0  0  0  0  0
  -27.8546   16.7625  -22.0404 H   0  0  0  0  0  0  0  0  0  0  0  0
  -26.6611   14.1413  -20.2484 H   0  0  0  0  0  0  0  0  0  0  0  0
  -26.6465   15.8507  -20.4566 H   0  0  0  0  0  0  0  0  0  0  0  0
  1  2  1  0  0  0  0
  1  6  2  0  0  0  0
  1 19  1  0  0  0  0
  2  3  1  0  0  0  0
  2 10  1  0  0  0  0
  2 20  1  0  0  0  0
  3  4  1  0  0  0  0
  3 11  1  0  0  0  0
  3 21  1  0  0  0  0
  4  5  1  0  0  0  0
  4 15  1  0  0  0  0
  4 22  1  0  0  0  0
  5  6  1  0  0  0  0
  5 23  1  0  0  0  0
  5 24  1  0  0  0  0
  6  7  1  0  0  0  0
  7  8  2  0  0  0  0
  7  9  1  0  0  0  0
 10 25  1  0  0  0  0
 11 12  1  0  0  0  0
 11 26  1  0  0  0  0
 12 13  1  0  0  0  0
 12 14  2  0  0  0  0
 13 27  1  0  0  0  0
 13 28  1  0  0  0  0
 13 29  1  0  0  0  0
 15 16  1  0  0  0  0
 15 30  1  0  0  0  0
 16 18  1  0  0  0  0
 16 17  2  0  0  0  0
 17 31  1  0  0  0  0
 17 32  1  0  0  0  0
 18 33  1  0  0  0  0
 18 34  1  0  0  0  0
M  END
> <Name>
BDB5008

> <Target>
Neuraminidase A

> <IC50_in_nM>
100

> <Kd_from_ITC>
false

> <source_organism>
Influenza A virus (A/Puerto Rico/8/34/Mount Sinai(H1N1))

> <SourceTag>
NA

> <atoms in reference ligand area>
20

> <score>
-18.0692

$$$$
BDB4942
      BALL 1.4.0 (Jan  4 2012, 23:22:29)

 47 47  0999  0  0  0  0  0  0999 V2000
  -30.9204   11.4717  -18.6674 C   0  0  0  0  0  0  0  0  0  0  0  0
  -31.8771   11.5706  -21.2463 C   0  0  0  0  0  0  0  0  0  0  0  0
  -30.8104   12.5811  -20.8641 C   0  0  0  0  0  0  0  0  0  0  0  0
  -30.6435   12.5639  -19.3877 C   0  0  0  0  0  0  0  0  0  0  0  0
  -31.3766   10.2579  -19.2490 O   0  0  0  0  0  0  0  0  0  0  0  0
  -30.7813   11.5397  -17.2118 C   0  0  0  0  0  0  0  0  0  0  0  0
  -30.6780   10.5000  -16.5510 O   0  0  0  0  0  0  0  0  0  0  0  0
  -30.7655   12.7460  -16.5870 O   0  5  0  0  0  0  0  0  0  0  0  0
  -32.3227    9.1076  -21.1576 C   0  0  0  0  0  0  0  0  0  0  0  0
  -31.8300    8.2062  -21.8471 O   0  0  0  0  0  0  0  0  0  0  0  0
  -31.4015   10.2409  -20.6936 C   0  0  0  0  0  0  0  0  0  0  0  0
  -33.7195    9.0381  -20.8663 N   0  0  0  0  0  0  0  0  0  0  0  0
  -31.9536   11.5016  -22.7119 N   0  0  0  0  0  0  0  0  0  0  0  0
  -31.0394   10.8130  -23.5827 C   0  0  0  0  0  0  0  0  0  0  0  0
  -29.8333   10.0399  -23.0862 C   0  0  0  0  0  0  0  0  0  0  0  0
  -31.2480   10.8535  -24.8002 O   0  0  0  0  0  0  0  0  0  0  0  0
  -31.1835   13.9073  -21.3176 N   0  0  0  0  0  0  0  0  0  0  0  0
  -32.5081   14.3956  -21.2442 C   0  0  0  0  0  0  0  0  0  0  0  0
  -32.9701   15.0850  -22.2062 N   0  3  0  0  0  0  0  0  0  0  0  0
  -33.3227   14.1362  -20.1342 N   0  0  0  0  0  0  0  0  0  0  0  0
  -34.4571    7.8913  -21.3323 C   0  0  0  0  0  0  0  0  0  0  0  0
  -35.5953    7.5452  -20.3486 C   0  0  0  0  0  0  0  0  0  0  0  0
  -34.4248   10.0939  -20.1746 C   0  0  0  0  0  0  0  0  0  0  0  0
  -34.9989   11.0999  -21.1968 C   0  0  0  0  0  0  0  0  0  0  0  0
  -32.8697   11.8364  -20.8536 H   0  0  0  0  0  0  0  0  0  0  0  0
  -29.8581   12.3147  -21.3461 H   0  0  0  0  0  0  0  0  0  0  0  0
  -30.2845   13.4690  -18.8763 H   0  0  0  0  0  0  0  0  0  0  0  0
  -30.3823   10.0716  -21.0711 H   0  0  0  0  0  0  0  0  0  0  0  0
  -32.7391   11.9949  -23.1597 H   0  0  0  0  0  0  0  0  0  0  0  0
  -30.2013    9.0052  -23.0230 H   0  0  0  0  0  0  0  0  0  0  0  0
  -29.7162   10.3877  -22.0491 H   0  0  0  0  0  0  0  0  0  0  0  0
  -28.9200   10.1448  -23.6901 H   0  0  0  0  0  0  0  0  0  0  0  0
  -30.4530   14.5186  -21.7096 H   0  0  0  0  0  0  0  0  0  0  0  0
  -32.3887   15.2878  -23.0319 H   0  0  0  0  0  0  0  0  0  0  0  0
  -33.9346   15.4434  -22.1580 H   0  0  0  0  0  0  0  0  0  0  0  0
  -34.2819   14.5113  -20.1217 H   0  0  0  0  0  0  0  0  0  0  0  0
  -32.9713   13.5799  -19.3418 H   0  0  0  0  0  0  0  0  0  0  0  0
  -33.7773    7.0309  -21.4191 H   0  0  0  0  0  0  0  0  0  0  0  0
  -34.8854    8.1114  -22.3213 H   0  0  0  0  0  0  0  0  0  0  0  0
  -36.2729    8.4075  -20.2647 H   0  0  0  0  0  0  0  0  0  0  0  0
  -35.1631    7.3265  -19.3610 H   0  0  0  0  0  0  0  0  0  0  0  0
  -36.1519    6.6691  -20.7129 H   0  0  0  0  0  0  0  0  0  0  0  0
  -35.2477    9.6602  -19.5873 H   0  0  0  0  0  0  0  0  0  0  0  0
  -33.7318   10.6159  -19.4984 H   0  0  0  0  0  0  0  0  0  0  0  0
  -35.6925   10.5775  -21.8721 H   0  0  0  0  0  0  0  0  0  0  0  0
  -34.1755   11.5331  -21.7838 H   0  0  0  0  0  0  0  0  0  0  0  0
  -35.5346   11.9014  -20.6671 H   0  0  0  0  0  0  0  0  0  0  0  0
  1  5  1  0  0  0  0
  1  4  2  0  0  0  0
  1  6  1  0  0  0  0
  2 11  1  0  0  0  0
  2  3  1  0  0  0  0
  2 13  1  0  0  0  0
  2 25  1  0  0  0  0
  3  4  1  0  0  0  0
  3 17  1  0  0  0  0
  3 26  1  0  0  0  0
  4 27  1  0  0  0  0
  5 11  1  0  0  0  0
  6  7  2  0  0  0  0
  6  8  1  0  0  0  0
  9 11  1  0  0  0  0
  9 12  1  0  0  0  0
  9 10  2  0  0  0  0
 11 28  1  0  0  0  0
 12 21  1  0  0  0  0
 12 23  1  0  0  0  0
 13 14  1  0  0  0  0
 13 29  1  0  0  0  0
 14 15  1  0  0  0  0
 14 16  2  0  0  0  0
 15 30  1  0  0  0  0
 15 31  1  0  0  0  0
 15 32  1  0  0  0  0
 17 18  1  0  0  0  0
 17 33  1  0  0  0  0
 18 20  1  0  0  0  0
 18 19  2  0  0  0  0
 19 34  1  0  0  0  0
 19 35  1  0  0  0  0
 20 36  1  0  0  0  0
 20 37  1  0  0  0  0
 21 22  1  0  0  0  0
 21 38  1  0  0  0  0
 21 39  1  0  0  0  0
 22 40  1  0  0  0  0
 22 41  1  0  0  0  0
 22 42  1  0  0  0  0
 23 24  1  0  0  0  0
 23 43  1  0  0  0  0
 23 44  1  0  0  0  0
 24 45  1  0  0  0  0
 24 46  1  0  0  0  0
 24 47  1  0  0  0  0
M  END
> <Name>
BDB4942

> <Target>
Neuraminidase A

> <IC50_in_nM>
1

> <Kd_from_ITC>
false

> <source_organism>
Influenza A virus (A/Singapore/1/57(H2N2))

> <SourceTag>
NA

> <atoms in reference ligand area>
23

> <score>
-17.609

$$$$
BDB4946
      BALL 1.4.0 (Jan  4 2012, 23:22:29)

 60 61  0999  0  0  0  0  0  0999 V2000
  -31.0781   12.3214  -18.2823 C   0  0  0  0  0  0  0  0  0  0  0  0
  -30.3506   13.0807  -20.8259 C   0  0  0  0  0  0  0  0  0  0  0  0
  -30.3597   14.1591  -19.7572 C   0  0  0  0  0  0  0  0  0  0  0  0
  -31.0498   13.6309  -18.5520 C   0  0  0  0  0  0  0  0  0  0  0  0
  -30.4501   11.3492  -19.1069 O   0  0  0  0  0  0  0  0  0  0  0  0
  -31.8183   11.8653  -17.1047 C   0  0  0  0  0  0  0  0  0  0  0  0
  -31.8750   10.6593  -16.8385 O   0  0  0  0  0  0  0  0  0  0  0  0
  -32.4431   12.7677  -16.3040 O   0  5  0  0  0  0  0  0  0  0  0  0
  -29.4523   10.7806  -21.2368 C   0  0  0  0  0  0  0  0  0  0  0  0
  -28.5782   10.9529  -22.0935 O   0  0  0  0  0  0  0  0  0  0  0  0
  -29.6654   11.8831  -20.1965 C   0  0  0  0  0  0  0  0  0  0  0  0
  -30.2130    9.5723  -21.2908 N   0  0  0  0  0  0  0  0  0  0  0  0
  -29.5626   13.5608  -21.9692 N   0  0  0  0  0  0  0  0  0  0  0  0
  -28.1279   13.6099  -22.0566 C   0  0  0  0  0  0  0  0  0  0  0  0
  -27.2064   13.1568  -20.9411 C   0  0  0  0  0  0  0  0  0  0  0  0
  -27.6195   14.0443  -23.0958 O   0  0  0  0  0  0  0  0  0  0  0  0
  -31.0292   15.3497  -20.2449 N   0  0  0  0  0  0  0  0  0  0  0  0
  -32.3778   15.3488  -20.6687 C   0  0  0  0  0  0  0  0  0  0  0  0
  -33.2948   15.5889  -19.8227 N   0  3  0  0  0  0  0  0  0  0  0  0
  -32.7256   15.0892  -22.0009 N   0  0  0  0  0  0  0  0  0  0  0  0
  -29.8594    8.5977  -22.2957 C   0  0  0  0  0  0  0  0  0  0  0  0
  -31.3202    9.3012  -20.3951 C   0  0  0  0  0  0  0  0  0  0  0  0
  -32.6256    9.9270  -20.9416 C   0  0  0  0  0  0  0  0  0  0  0  0
  -33.7875    9.5926  -19.9900 C   0  0  0  0  0  0  0  0  0  0  0  0
  -30.7919    7.3691  -22.2329 C   0  0  0  0  0  0  0  0  0  0  0  0
  -30.4070    6.3831  -23.2960 C   0  0  0  0  0  0  0  0  0  0  0  0
  -31.1784    5.2441  -23.4976 C   0  0  0  0  0  0  0  0  0  0  0  0
  -30.8264    4.3335  -24.4861 C   0  0  0  0  0  0  0  0  0  0  0  0
  -29.7031    4.5615  -25.2731 C   0  0  0  0  0  0  0  0  0  0  0  0
  -28.9325    5.6997  -25.0715 C   0  0  0  0  0  0  0  0  0  0  0  0
  -29.2848    6.6112  -24.0821 C   0  0  0  0  0  0  0  0  0  0  0  0
  -31.3616   12.8261  -21.1766 H   0  0  0  0  0  0  0  0  0  0  0  0
  -29.3262   14.4341  -19.4997 H   0  0  0  0  0  0  0  0  0  0  0  0
  -31.5483   14.3322  -17.8667 H   0  0  0  0  0  0  0  0  0  0  0  0
  -28.6937   12.2238  -19.8096 H   0  0  0  0  0  0  0  0  0  0  0  0
  -30.0894   13.8951  -22.7888 H   0  0  0  0  0  0  0  0  0  0  0  0
  -27.3979   12.0756  -20.8746 H   0  0  0  0  0  0  0  0  0  0  0  0
  -27.6550   13.6038  -20.0416 H   0  0  0  0  0  0  0  0  0  0  0  0
  -26.1432   13.4069  -21.0719 H   0  0  0  0  0  0  0  0  0  0  0  0
  -30.4999   16.2325  -20.2842 H   0  0  0  0  0  0  0  0  0  0  0  0
  -33.0617   15.7823  -18.8383 H   0  0  0  0  0  0  0  0  0  0  0  0
  -34.2792   15.5895  -20.1261 H   0  0  0  0  0  0  0  0  0  0  0  0
  -33.6879   14.7913  -22.2155 H   0  0  0  0  0  0  0  0  0  0  0  0
  -32.0327   15.1935  -22.7558 H   0  0  0  0  0  0  0  0  0  0  0  0
  -28.8208    8.2724  -22.1364 H   0  0  0  0  0  0  0  0  0  0  0  0
  -29.9360    9.0600  -23.2909 H   0  0  0  0  0  0  0  0  0  0  0  0
  -31.1004    9.7259  -19.4046 H   0  0  0  0  0  0  0  0  0  0  0  0
  -31.4513    8.2134  -20.2976 H   0  0  0  0  0  0  0  0  0  0  0  0
  -32.8402    9.5177  -21.9398 H   0  0  0  0  0  0  0  0  0  0  0  0
  -32.5093   11.0187  -21.0086 H   0  0  0  0  0  0  0  0  0  0  0  0
  -33.5759   10.0019  -18.9911 H   0  0  0  0  0  0  0  0  0  0  0  0
  -33.9058    8.5012  -19.9214 H   0  0  0  0  0  0  0  0  0  0  0  0
  -34.7167   10.0365  -20.3766 H   0  0  0  0  0  0  0  0  0  0  0  0
  -31.8322    7.6895  -22.3915 H   0  0  0  0  0  0  0  0  0  0  0  0
  -30.7044    6.8936  -21.2448 H   0  0  0  0  0  0  0  0  0  0  0  0
  -32.0670    5.0640  -22.8748 H   0  0  0  0  0  0  0  0  0  0  0  0
  -31.4364    3.4321  -24.6459 H   0  0  0  0  0  0  0  0  0  0  0  0
  -29.4246    3.8405  -26.0557 H   0  0  0  0  0  0  0  0  0  0  0  0
  -28.0439    5.8799  -25.6942 H   0  0  0  0  0  0  0  0  0  0  0  0
  -28.6749    7.5125  -23.9221 H   0  0  0  0  0  0  0  0  0  0  0  0
  1  5  1  0  0  0  0
  1  4  2  0  0  0  0
  1  6  1  0  0  0  0
  2 11  1  0  0  0  0
  2  3  1  0  0  0  0
  2 13  1  0  0  0  0
  2 32  1  0  0  0  0
  3  4  1  0  0  0  0
  3 17  1  0  0  0  0
  3 33  1  0  0  0  0
  4 34  1  0  0  0  0
  5 11  1  0  0  0  0
  6  7  2  0  0  0  0
  6  8  1  0  0  0  0
  9 11  1  0  0  0  0
  9 12  1  0  0  0  0
  9 10  2  0  0  0  0
 11 35  1  0  0  0  0
 12 21  1  0  0  0  0
 12 22  1  0  0  0  0
 13 14  1  0  0  0  0
 13 36  1  0  0  0  0
 14 15  1  0  0  0  0
 14 16  2  0  0  0  0
 15 37  1  0  0  0  0
 15 38  1  0  0  0  0
 15 39  1  0  0  0  0
 17 18  1  0  0  0  0
 17 40  1  0  0  0  0
 18 20  1  0  0  0  0
 18 19  2  0  0  0  0
 19 41  1  0  0  0  0
 19 42  1  0  0  0  0
 20 43  1  0  0  0  0
 20 44  1  0  0  0  0
 21 25  1  0  0  0  0
 21 45  1  0  0  0  0
 21 46  1  0  0  0  0
 22 23  1  0  0  0  0
 22 47  1  0  0  0  0
 22 48  1  0  0  0  0
 23 24  1  0  0  0  0
 23 49  1  0  0  0  0
 23 50  1  0  0  0  0
 24 51  1  0  0  0  0
 24 52  1  0  0  0  0
 24 53  1  0  0  0  0
 25 26  1  0  0  0  0
 25 54  1  0  0  0  0
 25 55  1  0  0  0  0
 26 31  2  0  0  0  0
 26 27  1  0  0  0  0
 27 28  2  0  0  0  0
 27 56  1  0  0  0  0
 28 29  1  0  0  0  0
 28 57  1  0  0  0  0
 29 30  2  0  0  0  0
 29 58  1  0  0  0  0
 30 31  1  0  0  0  0
 30 59  1  0  0  0  0
 31 60  1  0  0  0  0
M  END
> <Name>
BDB4946

> <Target>
Neuraminidase A

> <IC50_in_nM>
5

> <Kd_from_ITC>
false

> <source_organism>
Influenza A virus (A/Singapore/1/57(H2N2))

> <SourceTag>
NA

> <atoms in reference ligand area>
21

> <score>
-16.6694

$$$$
BDB5009
      BALL 1.4.0 (Jan  4 2012, 23:22:29)

 43 43  0999  0  0  0  0  0  0999 V2000
  -31.5381    9.0746  -20.3385 C   0  0  0  0  0  0  0  0  0  0  0  0
  -31.6247   10.3886  -21.0687 C   0  0  0  0  0  0  0  0  0  0  0  0
  -31.2794   10.2154  -22.5564 C   0  0  0  0  0  0  0  0  0  0  0  0
  -29.8826    9.4744  -22.6535 C   0  0  0  0  0  0  0  0  0  0  0  0
  -29.9617    8.1051  -22.0426 C   0  0  0  0  0  0  0  0  0  0  0  0
  -30.7395    8.0695  -20.7487 C   0  0  0  0  0  0  0  0  0  0  0  0
  -30.6271    6.8705  -19.9454 C   0  0  0  0  0  0  0  0  0  0  0  0
  -30.9861    5.7809  -20.4002 O   0  0  0  0  0  0  0  0  0  0  0  0
  -30.1830    6.9673  -18.6652 O   0  5  0  0  0  0  0  0  0  0  0  0
  -32.4309    9.6061  -23.4083 N   0  0  0  0  0  0  0  0  0  0  0  0
  -32.7110    8.2481  -23.9527 C   0  0  0  0  0  0  0  0  0  0  0  0
  -31.8902    7.0041  -23.8341 C   0  0  0  0  0  0  0  0  0  0  0  0
  -33.7686    8.1241  -24.5801 O   0  0  0  0  0  0  0  0  0  0  0  0
  -28.6362   10.2157  -22.1094 N   0  0  0  0  0  0  0  0  0  0  0  0
  -27.6601   11.1782  -22.7599 C   0  0  0  0  0  0  0  0  0  0  0  0
  -26.6158   11.4561  -22.1081 N   0  3  0  0  0  0  0  0  0  0  0  0
  -27.7703   11.8332  -24.0415 N   0  0  0  0  0  0  0  0  0  0  0  0
  -30.6477   11.2571  -20.4229 O   0  0  0  0  0  0  0  0  0  0  0  0
  -31.2493   12.4480  -19.8664 C   0  0  0  0  0  0  0  0  0  0  0  0
  -30.2066   13.2830  -19.0614 C   0  0  0  0  0  0  0  0  0  0  0  0
  -29.5421   14.3667  -19.9362 C   0  0  0  0  0  0  0  0  0  0  0  0
  -32.1332    8.9334  -19.4605 H   0  0  0  0  0  0  0  0  0  0  0  0
  -32.6187   10.8474  -20.9508 H   0  0  0  0  0  0  0  0  0  0  0  0
  -31.1627   11.2118  -22.9991 H   0  0  0  0  0  0  0  0  0  0  0  0
  -29.6641    9.3448  -23.7227 H   0  0  0  0  0  0  0  0  0  0  0  0
  -28.9558    7.7382  -21.8610 H   0  0  0  0  0  0  0  0  0  0  0  0
  -30.4259    7.4244  -22.7545 H   0  0  0  0  0  0  0  0  0  0  0  0
  -33.1526   10.2570  -23.6123 H   0  0  0  0  0  0  0  0  0  0  0  0
  -31.7487    6.9811  -22.7234 H   0  0  0  0  0  0  0  0  0  0  0  0
  -30.9056    7.3972  -24.1950 H   0  0  0  0  0  0  0  0  0  0  0  0
  -32.2067    6.2294  -24.2344 H   0  0  0  0  0  0  0  0  0  0  0  0
  -28.3367    9.9065  -21.1755 H   0  0  0  0  0  0  0  0  0  0  0  0
  -26.4639   11.0577  -21.2126 H   0  0  0  0  0  0  0  0  0  0  0  0
  -25.9442   12.0859  -22.4915 H   0  0  0  0  0  0  0  0  0  0  0  0
  -28.3270   12.6076  -24.1885 H   0  0  0  0  0  0  0  0  0  0  0  0
  -27.2712   11.4292  -24.8454 H   0  0  0  0  0  0  0  0  0  0  0  0
  -32.0591   12.1671  -19.2151 H   0  0  0  0  0  0  0  0  0  0  0  0
  -31.6491   13.0523  -20.6664 H   0  0  0  0  0  0  0  0  0  0  0  0
  -30.6993   13.7558  -18.2219 H   0  0  0  0  0  0  0  0  0  0  0  0
  -29.4448   12.6241  -18.6731 H   0  0  0  0  0  0  0  0  0  0  0  0
  -30.3124   15.0129  -20.3159 H   0  0  0  0  0  0  0  0  0  0  0  0
  -29.0600   13.8821  -20.7655 H   0  0  0  0  0  0  0  0  0  0  0  0
  -28.8426   14.9177  -19.3734 H   0  0  0  0  0  0  0  0  0  0  0  0
  1  2  1  0  0  0  0
  1  6  2  0  0  0  0
  1 22  1  0  0  0  0
  2  3  1  0  0  0  0
  2 18  1  0  0  0  0
  2 23  1  0  0  0  0
  3  4  1  0  0  0  0
  3 10  1  0  0  0  0
  3 24  1  0  0  0  0
  4  5  1  0  0  0  0
  4 14  1  0  0  0  0
  4 25  1  0  0  0  0
  5  6  1  0  0  0  0
  5 26  1  0  0  0  0
  5 27  1  0  0  0  0
  6  7  1  0  0  0  0
  7  8  2  0  0  0  0
  7  9  1  0  0  0  0
 10 11  1  0  0  0  0
 10 28  1  0  0  0  0
 11 12  1  0  0  0  0
 11 13  2  0  0  0  0
 12 29  1  0  0  0  0
 12 30  1  0  0  0  0
 12 31  1  0  0  0  0
 14 15  1  0  0  0  0
 14 32  1  0  0  0  0
 15 17  1  0  0  0  0
 15 16  2  0  0  0  0
 16 33  1  0  0  0  0
 16 34  1  0  0  0  0
 17 35  1  0  0  0  0
 17 36  1  0  0  0  0
 18 19  1  0  0  0  0
 19 20  1  0  0  0  0
 19 37  1  0  0  0  0
 19 38  1  0  0  0  0
 20 21  1  0  0  0  0
 20 39  1  0  0  0  0
 20 40  1  0  0  0  0
 21 41  1  0  0  0  0
 21 42  1  0  0  0  0
 21 43  1  0  0  0  0
M  END
> <Name>
BDB5009

> <Target>
Neuraminidase A

> <IC50_in_nM>
2

> <Kd_from_ITC>
false

> <source_organism>
Influenza A virus (A/Puerto Rico/8/34/Mount Sinai(H1N1))

> <SourceTag>
NA

> <atoms in reference ligand area>
22

> <score>
-15.7002

$$$$
BDB4932
      BALL 1.4.0 (Jan  4 2012, 23:22:29)

 41 41  0999  0  0  0  0  0  0999 V2000
  -33.6301   10.4974  -21.4528 C   0  0  0  0  0  0  0  0  0  0  0  0
  -33.6193   12.1678  -19.2653 C   0  0  0  0  0  0  0  0  0  0  0  0
  -34.2452   12.7017  -20.5413 C   0  0  0  0  0  0  0  0  0  0  0  0
  -33.8948   11.7914  -21.6621 C   0  0  0  0  0  0  0  0  0  0  0  0
  -33.6746    9.8983  -20.1649 O   0  0  0  0  0  0  0  0  0  0  0  0
  -33.2432    9.6685  -22.5956 C   0  0  0  0  0  0  0  0  0  0  0  0
  -33.1576    8.4417  -22.4692 O   0  0  0  0  0  0  0  0  0  0  0  0
  -32.9781   10.2478  -23.7956 O   0  5  0  0  0  0  0  0  0  0  0  0
  -33.7156   10.1704  -17.7620 C   0  0  0  0  0  0  0  0  0  0  0  0
  -33.7326   10.9033  -16.7691 O   0  0  0  0  0  0  0  0  0  0  0  0
  -34.1513   10.7568  -19.1048 C   0  0  0  0  0  0  0  0  0  0  0  0
  -33.2809    8.8196  -17.6020 N   0  0  0  0  0  0  0  0  0  0  0  0
  -34.0672   12.9996  -18.1400 N   0  0  0  0  0  0  0  0  0  0  0  0
  -33.3550   13.2292  -16.9119 C   0  0  0  0  0  0  0  0  0  0  0  0
  -32.0000   12.6219  -16.6051 C   0  0  0  0  0  0  0  0  0  0  0  0
  -33.8748   13.9602  -16.0618 O   0  0  0  0  0  0  0  0  0  0  0  0
  -32.9069    8.3691  -16.2925 C   0  0  0  0  0  0  0  0  0  0  0  0
  -33.7736   14.0462  -20.8126 N   0  0  0  0  0  0  0  0  0  0  0  0
  -32.6195   14.3101  -21.5852 C   0  0  0  0  0  0  0  0  0  0  0  0
  -31.6508   14.9416  -21.0589 N   0  3  0  0  0  0  0  0  0  0  0  0
  -32.5204   13.8906  -22.9183 N   0  0  0  0  0  0  0  0  0  0  0  0
  -33.1829    7.8970  -18.7071 C   0  0  0  0  0  0  0  0  0  0  0  0
  -32.5198   12.1808  -19.2975 H   0  0  0  0  0  0  0  0  0  0  0  0
  -35.3386   12.7437  -20.4281 H   0  0  0  0  0  0  0  0  0  0  0  0
  -33.8522   12.1905  -22.6862 H   0  0  0  0  0  0  0  0  0  0  0  0
  -35.2491   10.8105  -19.1492 H   0  0  0  0  0  0  0  0  0  0  0  0
  -34.9811   13.4639  -18.2406 H   0  0  0  0  0  0  0  0  0  0  0  0
  -31.3786   12.9407  -17.4550 H   0  0  0  0  0  0  0  0  0  0  0  0
  -32.1682   11.5427  -16.7357 H   0  0  0  0  0  0  0  0  0  0  0  0
  -31.5724   12.8842  -15.6261 H   0  0  0  0  0  0  0  0  0  0  0  0
  -33.7851    8.5525  -15.6562 H   0  0  0  0  0  0  0  0  0  0  0  0
  -32.1128    9.0544  -15.9612 H   0  0  0  0  0  0  0  0  0  0  0  0
  -32.5857    7.3175  -16.2624 H   0  0  0  0  0  0  0  0  0  0  0  0
  -34.3014   14.8419  -20.4261 H   0  0  0  0  0  0  0  0  0  0  0  0
  -31.7024   15.2592  -20.0805 H   0  0  0  0  0  0  0  0  0  0  0  0
  -30.8075   15.1366  -21.6173 H   0  0  0  0  0  0  0  0  0  0  0  0
  -31.6613   14.1040  -23.4451 H   0  0  0  0  0  0  0  0  0  0  0  0
  -33.2919   13.3771  -23.3675 H   0  0  0  0  0  0  0  0  0  0  0  0
  -32.5249    8.4138  -19.4211 H   0  0  0  0  0  0  0  0  0  0  0  0
  -34.1903    7.9102  -19.1485 H   0  0  0  0  0  0  0  0  0  0  0  0
  -32.8350    6.8854  -18.4508 H   0  0  0  0  0  0  0  0  0  0  0  0
  1  5  1  0  0  0  0
  1  4  2  0  0  0  0
  1  6  1  0  0  0  0
  2 11  1  0  0  0  0
  2  3  1  0  0  0  0
  2 13  1  0  0  0  0
  2 23  1  0  0  0  0
  3  4  1  0  0  0  0
  3 18  1  0  0  0  0
  3 24  1  0  0  0  0
  4 25  1  0  0  0  0
  5 11  1  0  0  0  0
  6  7  2  0  0  0  0
  6  8  1  0  0  0  0
  9 11  1  0  0  0  0
  9 12  1  0  0  0  0
  9 10  2  0  0  0  0
 11 26  1  0  0  0  0
 12 17  1  0  0  0  0
 12 22  1  0  0  0  0
 13 14  1  0  0  0  0
 13 27  1  0  0  0  0
 14 15  1  0  0  0  0
 14 16  2  0  0  0  0
 15 28  1  0  0  0  0
 15 29  1  0  0  0  0
 15 30  1  0  0  0  0
 17 31  1  0  0  0  0
 17 32  1  0  0  0  0
 17 33  1  0  0  0  0
 18 19  1  0  0  0  0
 18 34  1  0  0  0  0
 19 21  1  0  0  0  0
 19 20  2  0  0  0  0
 20 35  1  0  0  0  0
 20 36  1  0  0  0  0
 21 37  1  0  0  0  0
 21 38  1  0  0  0  0
 22 39  1  0  0  0  0
 22 40  1  0  0  0  0
 22 41  1  0  0  0  0
M  END
> <Name>
BDB4932

> <Target>
Neuraminidase A

> <IC50_in_nM>
25

> <Kd_from_ITC>
false

> <source_organism>
Influenza A virus (A/Singapore/1/57(H2N2))

> <SourceTag>
NA

> <atoms in reference ligand area>
15

> <score>
-14.525

$$$$
BDB5232
      BALL 1.4.0 (Jan  4 2012, 23:22:29)

 49 49  0999  0  0  0  0  0  0999 V2000
  -32.2204   10.6973  -20.5205 C   0  0  0  0  0  0  0  0  0  0  0  0
  -32.2017   11.7556  -21.6071 C   0  0  0  0  0  0  0  0  0  0  0  0
  -33.5265   12.6235  -21.5439 C   0  0  0  0  0  0  0  0  0  0  0  0
  -34.8430   11.8225  -21.2029 C   0  0  0  0  0  0  0  0  0  0  0  0
  -34.6408   11.1798  -19.8352 C   0  0  0  0  0  0  0  0  0  0  0  0
  -33.2956   10.4146  -19.7491 C   0  0  0  0  0  0  0  0  0  0  0  0
  -33.1190    9.4009  -18.7180 C   0  0  0  0  0  0  0  0  0  0  0  0
  -33.1239    9.7248  -17.5289 O   0  0  0  0  0  0  0  0  0  0  0  0
  -32.9954    8.0957  -19.0689 O   0  5  0  0  0  0  0  0  0  0  0  0
  -35.2743   10.7624  -22.1032 N   0  3  0  0  0  0  0  0  0  0  0  0
  -33.5054   13.8074  -20.5758 N   0  0  0  0  0  0  0  0  0  0  0  0
  -32.4462   14.3798  -19.7314 C   0  0  0  0  0  0  0  0  0  0  0  0
  -30.9799   14.0606  -19.7675 C   0  0  0  0  0  0  0  0  0  0  0  0
  -32.7977   15.2564  -18.9332 O   0  0  0  0  0  0  0  0  0  0  0  0
  -32.0255    9.7099  -23.1133 C   0  0  0  0  0  0  0  0  0  0  0  0
  -31.8949   11.1483  -23.0141 N   0  3  0  0  0  0  0  0  0  0  0  0
  -30.5234   11.5116  -23.5080 C   0  0  0  0  0  0  0  0  0  0  0  0
  -29.3624   10.7928  -22.7764 C   0  0  0  0  0  0  0  0  0  0  0  0
  -28.0271   11.1921  -23.4297 C   0  0  0  0  0  0  0  0  0  0  0  0
  -31.8828    9.1881  -24.5462 C   0  0  0  0  0  0  0  0  0  0  0  0
  -32.1053    7.6618  -24.5199 C   0  0  0  0  0  0  0  0  0  0  0  0
  -31.3241   10.1373  -20.3531 H   0  0  0  0  0  0  0  0  0  0  0  0
  -31.3691   12.4605  -21.4656 H   0  0  0  0  0  0  0  0  0  0  0  0
  -33.6289   13.1111  -22.5225 H   0  0  0  0  0  0  0  0  0  0  0  0
  -35.6653   12.5485  -21.1720 H   0  0  0  0  0  0  0  0  0  0  0  0
  -35.4522   10.4947  -19.6397 H   0  0  0  0  0  0  0  0  0  0  0  0
  -34.6626   11.9486  -19.0733 H   0  0  0  0  0  0  0  0  0  0  0  0
  -34.7385   10.7838  -22.9400 H   0  0  0  0  0  0  0  0  0  0  0  0
  -36.2841   10.8501  -22.2974 H   0  0  0  0  0  0  0  0  0  0  0  0
  -35.0944    9.8594  -21.6490 H   0  0  0  0  0  0  0  0  0  0  0  0
  -34.3829   14.2607  -20.4788 H   0  0  0  0  0  0  0  0  0  0  0  0
  -30.7676   14.2207  -20.8500 H   0  0  0  0  0  0  0  0  0  0  0  0
  -31.0153   12.9502  -19.6779 H   0  0  0  0  0  0  0  0  0  0  0  0
  -30.4243   14.5124  -19.1604 H   0  0  0  0  0  0  0  0  0  0  0  0
  -31.2694    9.2413  -22.4870 H   0  0  0  0  0  0  0  0  0  0  0  0
  -32.9935    9.4140  -22.7227 H   0  0  0  0  0  0  0  0  0  0  0  0
  -32.5639   11.5809  -23.6646 H   0  0  0  0  0  0  0  0  0  0  0  0
  -30.3871   12.5906  -23.4134 H   0  0  0  0  0  0  0  0  0  0  0  0
  -30.4614   11.2880  -24.5777 H   0  0  0  0  0  0  0  0  0  0  0  0
  -29.4929    9.7352  -22.8516 H   0  0  0  0  0  0  0  0  0  0  0  0
  -29.3559   11.0824  -21.7452 H   0  0  0  0  0  0  0  0  0  0  0  0
  -27.8922   12.2500  -23.3550 H   0  0  0  0  0  0  0  0  0  0  0  0
  -28.0298   10.9040  -24.4592 H   0  0  0  0  0  0  0  0  0  0  0  0
  -27.2191   10.6947  -22.9239 H   0  0  0  0  0  0  0  0  0  0  0  0
  -30.9060    9.3989  -24.9082 H   0  0  0  0  0  0  0  0  0  0  0  0
  -32.6176    9.6450  -25.1682 H   0  0  0  0  0  0  0  0  0  0  0  0
  -33.0838    7.4356  -24.1614 H   0  0  0  0  0  0  0  0  0  0  0  0
  -31.3743    7.1911  -23.9022 H   0  0  0  0  0  0  0  0  0  0  0  0
  -32.0074    7.2749  -25.5302 H   0  0  0  0  0  0  0  0  0  0  0  0
  1  2  1  0  0  0  0
  1  6  2  0  0  0  0
  1 22  1  0  0  0  0
  2  3  1  0  0  0  0
  2 16  1  0  0  0  0
  2 23  1  0  0  0  0
  3  4  1  0  0  0  0
  3 11  1  0  0  0  0
  3 24  1  0  0  0  0
  4  5  1  0  0  0  0
  4 10  1  0  0  0  0
  4 25  1  0  0  0  0
  5  6  1  0  0  0  0
  5 26  1  0  0  0  0
  5 27  1  0  0  0  0
  6  7  1  0  0  0  0
  7  8  2  0  0  0  0
  7  9  1  0  0  0  0
 10 28  1  0  0  0  0
 10 29  1  0  0  0  0
 10 30  1  0  0  0  0
 11 12  1  0  0  0  0
 11 31  1  0  0  0  0
 12 13  1  0  0  0  0
 12 14  2  0  0  0  0
 13 32  1  0  0  0  0
 13 33  1  0  0  0  0
 13 34  1  0  0  0  0
 15 16  1  0  0  0  0
 15 20  1  0  0  0  0
 15 35  1  0  0  0  0
 15 36  1  0  0  0  0
 16 17  1  0  0  0  0
 16 37  1  0  0  0  0
 17 18  1  0  0  0  0
 17 38  1  0  0  0  0
 17 39  1  0  0  0  0
 18 19  1  0  0  0  0
 18 40  1  0  0  0  0
 18 41  1  0  0  0  0
 19 42  1  0  0  0  0
 19 43  1  0  0  0  0
 19 44  1  0  0  0  0
 20 21  1  0  0  0  0
 20 45  1  0  0  0  0
 20 46  1  0  0  0  0
 21 47  1  0  0  0  0
 21 48  1  0  0  0  0
 21 49  1  0  0  0  0
M  END
> <Name>
BDB5232

> <Target>
Neuraminidase A

> <IC50_in_nM>
12

> <Kd_from_ITC>
false

> <source_organism>
Influenza A virus (A/Puerto Rico/8/34(H1N1))

> <SourceTag>
NA

> <atoms in reference ligand area>
24

> <score>
-13.8329

$$$$
BDB5024
      BALL 1.4.0 (Jan  4 2012, 23:22:29)

 51 51  0999  0  0  0  0  0  0999 V2000
  -33.4583    9.5680  -19.3101 C   0  0  0  0  0  0  0  0  0  0  0  0
  -31.2408    8.6582  -19.7603 C   0  0  0  0  0  0  0  0  0  0  0  0
  -32.1401    9.1170  -18.5938 C   0  0  0  0  0  0  0  0  0  0  0  0
  -31.5508   10.3294  -17.8771 C   0  0  0  0  0  0  0  0  0  0  0  0
  -31.7691   11.4860  -18.2508 O   0  0  0  0  0  0  0  0  0  0  0  0
  -30.6738   10.1247  -16.8618 O   0  5  0  0  0  0  0  0  0  0  0  0
  -33.0662    9.6127  -20.8313 C   0  0  0  0  0  0  0  0  0  0  0  0
  -31.5151    9.7607  -20.8223 C   0  0  0  0  0  0  0  0  0  0  0  0
  -30.7036    9.5267  -22.1776 C   0  0  0  0  0  0  0  0  0  0  0  0
  -32.1842    7.5210  -22.9171 C   0  0  0  0  0  0  0  0  0  0  0  0
  -32.9835    8.4151  -23.8890 C   0  0  0  0  0  0  0  0  0  0  0  0
  -33.8431   10.6055  -21.5982 N   0  0  0  0  0  0  0  0  0  0  0  0
  -34.3573   11.8370  -21.0220 C   0  0  0  0  0  0  0  0  0  0  0  0
  -34.9396   12.6664  -21.7896 N   0  3  0  0  0  0  0  0  0  0  0  0
  -34.2299   12.1674  -19.6300 N   0  0  0  0  0  0  0  0  0  0  0  0
  -30.7233    8.0232  -22.7473 C   0  0  0  0  0  0  0  0  0  0  0  0
  -29.9395    6.9598  -21.9339 C   0  0  0  0  0  0  0  0  0  0  0  0
  -28.4178    7.2059  -21.9387 C   0  0  0  0  0  0  0  0  0  0  0  0
  -29.3368    9.9918  -22.0340 N   0  0  0  0  0  0  0  0  0  0  0  0
  -28.7291   10.8619  -22.9734 C   0  0  0  0  0  0  0  0  0  0  0  0
  -29.4566   11.3466  -24.2024 C   0  0  0  0  0  0  0  0  0  0  0  0
  -27.5650   11.2290  -22.7809 O   0  0  0  0  0  0  0  0  0  0  0  0
  -31.7128    7.3884  -20.2264 O   0  0  0  0  0  0  0  0  0  0  0  0
  -33.7303   10.5274  -18.9838 H   0  0  0  0  0  0  0  0  0  0  0  0
  -34.2078    8.8541  -19.1562 H   0  0  0  0  0  0  0  0  0  0  0  0
  -30.1899    8.5679  -19.4540 H   0  0  0  0  0  0  0  0  0  0  0  0
  -32.3012    8.3335  -17.8404 H   0  0  0  0  0  0  0  0  0  0  0  0
  -33.2779    8.6162  -21.2351 H   0  0  0  0  0  0  0  0  0  0  0  0
  -31.2346   10.7216  -20.4160 H   0  0  0  0  0  0  0  0  0  0  0  0
  -31.2056   10.1439  -22.9253 H   0  0  0  0  0  0  0  0  0  0  0  0
  -32.6738    7.5153  -21.9561 H   0  0  0  0  0  0  0  0  0  0  0  0
  -32.1719    6.5075  -23.2941 H   0  0  0  0  0  0  0  0  0  0  0  0
  -32.4844    8.4124  -24.8404 H   0  0  0  0  0  0  0  0  0  0  0  0
  -32.9854    9.4179  -23.5035 H   0  0  0  0  0  0  0  0  0  0  0  0
  -33.9710    8.0580  -23.9905 H   0  0  0  0  0  0  0  0  0  0  0  0
  -33.9234   10.4787  -22.6146 H   0  0  0  0  0  0  0  0  0  0  0  0
  -35.0337   12.4630  -22.7575 H   0  0  0  0  0  0  0  0  0  0  0  0
  -35.2943   13.5175  -21.4201 H   0  0  0  0  0  0  0  0  0  0  0  0
  -33.7647   11.5406  -18.9838 H   0  0  0  0  0  0  0  0  0  0  0  0
  -34.6104   13.0571  -19.2847 H   0  0  0  0  0  0  0  0  0  0  0  0
  -30.2099    8.1124  -23.6818 H   0  0  0  0  0  0  0  0  0  0  0  0
  -30.1409    5.9772  -22.3445 H   0  0  0  0  0  0  0  0  0  0  0  0
  -30.2966    6.9615  -20.9076 H   0  0  0  0  0  0  0  0  0  0  0  0
  -28.2424    8.1866  -21.5294 H   0  0  0  0  0  0  0  0  0  0  0  0
  -28.0879    7.2030  -22.9641 H   0  0  0  0  0  0  0  0  0  0  0  0
  -27.9191    6.4742  -21.3835 H   0  0  0  0  0  0  0  0  0  0  0  0
  -28.8067    9.6969  -21.2486 H   0  0  0  0  0  0  0  0  0  0  0  0
  -30.3711   11.7937  -23.7916 H   0  0  0  0  0  0  0  0  0  0  0  0
  -29.7793   10.4153  -24.6856 H   0  0  0  0  0  0  0  0  0  0  0  0
  -28.9345   11.9436  -24.7773 H   0  0  0  0  0  0  0  0  0  0  0  0
  -32.0916    7.4773  -21.1255 H   0  0  0  0  0  0  0  0  0  0  0  0
  1  7  1  0  0  0  0
  1  3  1  0  0  0  0
  1 24  1  0  0  0  0
  1 25  1  0  0  0  0
  2  8  1  0  0  0  0
  2  3  1  0  0  0  0
  2 23  1  0  0  0  0
  2 26  1  0  0  0  0
  3  4  1  0  0  0  0
  3 27  1  0  0  0  0
  4  6  1  0  0  0  0
  4  5  2  0  0  0  0
  7  8  1  0  0  0  0
  7 12  1  0  0  0  0
  7 28  1  0  0  0  0
  8  9  1  0  0  0  0
  8 29  1  0  0  0  0
  9 19  1  0  0  0  0
  9 16  1  0  0  0  0
  9 30  1  0  0  0  0
 10 16  1  0  0  0  0
 10 11  1  0  0  0  0
 10 31  1  0  0  0  0
 10 32  1  0  0  0  0
 11 33  1  0  0  0  0
 11 34  1  0  0  0  0
 11 35  1  0  0  0  0
 12 13  1  0  0  0  0
 12 36  1  0  0  0  0
 13 14  2  0  0  0  0
 13 15  1  0  0  0  0
 14 37  1  0  0  0  0
 14 38  1  0  0  0  0
 15 39  1  0  0  0  0
 15 40  1  0  0  0  0
 16 17  1  0  0  0  0
 16 41  1  0  0  0  0
 17 18  1  0  0  0  0
 17 42  1  0  0  0  0
 17 43  1  0  0  0  0
 18 44  1  0  0  0  0
 18 45  1  0  0  0  0
 18 46  1  0  0  0  0
 19 20  1  0  0  0  0
 19 47  1  0  0  0  0
 20 22  2  0  0  0  0
 20 21  1  0  0  0  0
 21 48  1  0  0  0  0
 21 49  1  0  0  0  0
 21 50  1  0  0  0  0
 23 51  1  0  0  0  0
M  END
> <Name>
BDB5024

> <Target>
Neuraminidase A

> <IC50_in_nM>
1

> <Kd_from_ITC>
false

> <source_organism>
Influenza A virus (A/Singapore/1/57(H2N2))

> <SourceTag>
NA

> <atoms in reference ligand area>
15

> <score>
-13.3246

$$$$
BDB5025
      BALL 1.4.0 (Jan  4 2012, 23:22:29)

 51 51  0999  0  0  0  0  0  0999 V2000
  -30.7576    9.7287  -20.8186 C   0  0  0  0  0  0  0  0  0  0  0  0
  -31.5128   11.6200  -22.2836 C   0  0  0  0  0  0  0  0  0  0  0  0
  -30.6954    9.5109  -23.3033 C   0  0  0  0  0  0  0  0  0  0  0  0
  -30.3448    9.0624  -21.8998 C   0  0  0  0  0  0  0  0  0  0  0  0
  -29.4933    7.8876  -21.7270 C   0  0  0  0  0  0  0  0  0  0  0  0
  -28.7897    7.4900  -22.6639 O   0  0  0  0  0  0  0  0  0  0  0  0
  -29.4774    7.2190  -20.5068 O   0  0  0  0  0  0  0  0  0  0  0  0
  -28.5792    6.1096  -20.5702 C   0  0  0  0  0  0  0  0  0  0  0  0
  -28.5733    5.3813  -19.2134 C   0  0  0  0  0  0  0  0  0  0  0  0
  -31.6256   10.9520  -20.9114 C   0  0  0  0  0  0  0  0  0  0  0  0
  -31.2948   11.8997  -19.8516 O   0  0  0  0  0  0  0  0  0  0  0  0
  -30.9719   11.2738  -18.5779 C   0  0  0  0  0  0  0  0  0  0  0  0
  -32.0925   11.6009  -17.5666 C   0  0  0  0  0  0  0  0  0  0  0  0
  -31.8328   10.8681  -16.2332 C   0  0  0  0  0  0  0  0  0  0  0  0
  -29.6190   11.7885  -18.0051 C   0  0  0  0  0  0  0  0  0  0  0  0
  -28.9699   12.7830  -18.9933 C   0  0  0  0  0  0  0  0  0  0  0  0
  -32.5096   12.6969  -22.3573 N   0  0  0  0  0  0  0  0  0  0  0  0
  -32.5701   13.8627  -21.5174 C   0  0  0  0  0  0  0  0  0  0  0  0
  -31.5783   14.1446  -20.4057 C   0  0  0  0  0  0  0  0  0  0  0  0
  -33.4784   14.6777  -21.7121 O   0  0  0  0  0  0  0  0  0  0  0  0
  -31.8264   10.5546  -23.3199 C   0  0  0  0  0  0  0  0  0  0  0  0
  -31.8955   11.1521  -24.6612 N   0  3  0  0  0  0  0  0  0  0  0  0
  -30.4515    9.3695  -19.8249 H   0  0  0  0  0  0  0  0  0  0  0  0
  -30.5119   12.0428  -22.4552 H   0  0  0  0  0  0  0  0  0  0  0  0
  -31.0059    8.6362  -23.8937 H   0  0  0  0  0  0  0  0  0  0  0  0
  -29.8012    9.9433  -23.7759 H   0  0  0  0  0  0  0  0  0  0  0  0
  -27.5648    6.4697  -20.7971 H   0  0  0  0  0  0  0  0  0  0  0  0
  -28.9080    5.4152  -21.3574 H   0  0  0  0  0  0  0  0  0  0  0  0
  -29.5864    5.0191  -18.9845 H   0  0  0  0  0  0  0  0  0  0  0  0
  -28.2445    6.0736  -18.4243 H   0  0  0  0  0  0  0  0  0  0  0  0
  -27.8823    4.5267  -19.2596 H   0  0  0  0  0  0  0  0  0  0  0  0
  -32.6692   10.6290  -20.7820 H   0  0  0  0  0  0  0  0  0  0  0  0
  -30.8846   10.1897  -18.7424 H   0  0  0  0  0  0  0  0  0  0  0  0
  -32.1177   12.6860  -17.3875 H   0  0  0  0  0  0  0  0  0  0  0  0
  -33.0613   11.2793  -17.9766 H   0  0  0  0  0  0  0  0  0  0  0  0
  -30.8641   11.1913  -15.8242 H   0  0  0  0  0  0  0  0  0  0  0  0
  -31.8075    9.7834  -16.4141 H   0  0  0  0  0  0  0  0  0  0  0  0
  -32.6333   11.1044  -15.5167 H   0  0  0  0  0  0  0  0  0  0  0  0
  -29.7974   12.2932  -17.0441 H   0  0  0  0  0  0  0  0  0  0  0  0
  -28.9408   10.9372  -17.8464 H   0  0  0  0  0  0  0  0  0  0  0  0
  -29.6488   13.6340  -19.1506 H   0  0  0  0  0  0  0  0  0  0  0  0
  -28.7926   12.2769  -19.9538 H   0  0  0  0  0  0  0  0  0  0  0  0
  -28.0146   13.1437  -18.5843 H   0  0  0  0  0  0  0  0  0  0  0  0
  -33.2364   12.6082  -23.0817 H   0  0  0  0  0  0  0  0  0  0  0  0
  -30.6049   14.1104  -20.9168 H   0  0  0  0  0  0  0  0  0  0  0  0
  -31.6294   13.2398  -19.7822 H   0  0  0  0  0  0  0  0  0  0  0  0
  -31.7465   15.0751  -19.8435 H   0  0  0  0  0  0  0  0  0  0  0  0
  -32.7945   10.0895  -23.0822 H   0  0  0  0  0  0  0  0  0  0  0  0
  -31.1519   11.8586  -24.7550 H   0  0  0  0  0  0  0  0  0  0  0  0
  -32.8122   11.6058  -24.7822 H   0  0  0  0  0  0  0  0  0  0  0  0
  -31.7726   10.4218  -25.3770 H   0  0  0  0  0  0  0  0  0  0  0  0
  1  4  2  0  0  0  0
  1 10  1  0  0  0  0
  1 23  1  0  0  0  0
  2 10  1  0  0  0  0
  2 21  1  0  0  0  0
  2 17  1  0  0  0  0
  2 24  1  0  0  0  0
  3  4  1  0  0  0  0
  3 21  1  0  0  0  0
  3 25  1  0  0  0  0
  3 26  1  0  0  0  0
  4  5  1  0  0  0  0
  5  6  2  0  0  0  0
  5  7  1  0  0  0  0
  7  8  1  0  0  0  0
  8  9  1  0  0  0  0
  8 27  1  0  0  0  0
  8 28  1  0  0  0  0
  9 29  1  0  0  0  0
  9 30  1  0  0  0  0
  9 31  1  0  0  0  0
 10 11  1  0  0  0  0
 10 32  1  0  0  0  0
 11 12  1  0  0  0  0
 12 13  1  0  0  0  0
 12 15  1  0  0  0  0
 12 33  1  0  0  0  0
 13 14  1  0  0  0  0
 13 34  1  0  0  0  0
 13 35  1  0  0  0  0
 14 36  1  0  0  0  0
 14 37  1  0  0  0  0
 14 38  1  0  0  0  0
 15 16  1  0  0  0  0
 15 39  1  0  0  0  0
 15 40  1  0  0  0  0
 16 41  1  0  0  0  0
 16 42  1  0  0  0  0
 16 43  1  0  0  0  0
 17 18  1  0  0  0  0
 17 44  1  0  0  0  0
 18 19  1  0  0  0  0
 18 20  2  0  0  0  0
 19 45  1  0  0  0  0
 19 46  1  0  0  0  0
 19 47  1  0  0  0  0
 21 22  1  0  0  0  0
 21 48  1  0  0  0  0
 22 49  1  0  0  0  0
 22 50  1  0  0  0  0
 22 51  1  0  0  0  0
M  END
> <Name>
BDB5025

> <Target>
Neuraminidase A

> <IC50_in_nM>
1

> <Kd_from_ITC>
false

> <source_organism>
Influenza A virus (A/Singapore/1/57(H2N2))

> <SourceTag>
NA

> <atoms in reference ligand area>
26

> <score>
-12.5149

$$$$
BDB4968
      BALL 1.4.0 (Jan  4 2012, 23:22:29)

 55 56  0999  0  0  0  0  0  0999 V2000
  -32.6763   12.6146  -19.1515 C   0  0  0  0  0  0  0  0  0  0  0  0
  -33.8043   10.6978  -20.7730 C   0  0  0  0  0  0  0  0  0  0  0  0
  -33.7562   12.1174  -21.3091 C   0  0  0  0  0  0  0  0  0  0  0  0
  -33.3949   13.0353  -20.1979 C   0  0  0  0  0  0  0  0  0  0  0  0
  -32.1989   11.2818  -19.0281 O   0  0  0  0  0  0  0  0  0  0  0  0
  -32.3985   13.5591  -18.0683 C   0  0  0  0  0  0  0  0  0  0  0  0
  -31.6004   13.2571  -17.1737 O   0  0  0  0  0  0  0  0  0  0  0  0
  -33.0181   14.7680  -18.0461 O   0  5  0  0  0  0  0  0  0  0  0  0
  -32.3091    8.9765  -19.7462 C   0  0  0  0  0  0  0  0  0  0  0  0
  -31.8847    8.1618  -20.5733 O   0  0  0  0  0  0  0  0  0  0  0  0
  -32.4349   10.4365  -20.1760 C   0  0  0  0  0  0  0  0  0  0  0  0
  -34.0408    9.7805  -21.8961 N   0  0  0  0  0  0  0  0  0  0  0  0
  -34.4994    8.4205  -21.8052 C   0  0  0  0  0  0  0  0  0  0  0  0
  -34.8102    7.7288  -20.4922 C   0  0  0  0  0  0  0  0  0  0  0  0
  -34.6479    7.7818  -22.8527 O   0  0  0  0  0  0  0  0  0  0  0  0
  -35.0545   12.4930  -21.8866 N   0  3  0  0  0  0  0  0  0  0  0  0
  -33.1261    7.1201  -18.3606 C   0  0  0  0  0  0  0  0  0  0  0  0
  -33.4831    6.7293  -16.9106 C   0  0  0  0  0  0  0  0  0  0  0  0
  -33.9485    5.3032  -16.8652 C   0  0  0  0  0  0  0  0  0  0  0  0
  -34.9124    3.4587  -15.6570 C   0  0  0  0  0  0  0  0  0  0  0  0
  -34.4779    4.7778  -15.6936 C   0  0  0  0  0  0  0  0  0  0  0  0
  -33.8527    4.5095  -18.0028 C   0  0  0  0  0  0  0  0  0  0  0  0
  -34.2872    3.1899  -17.9663 C   0  0  0  0  0  0  0  0  0  0  0  0
  -32.6727    8.4900  -18.4534 N   0  0  0  0  0  0  0  0  0  0  0  0
  -32.5724    9.2996  -17.2487 C   0  0  0  0  0  0  0  0  0  0  0  0
  -33.9062   10.0287  -16.9483 C   0  0  0  0  0  0  0  0  0  0  0  0
  -34.3415    9.7126  -15.5048 C   0  0  0  0  0  0  0  0  0  0  0  0
  -34.8168    2.6650  -16.7934 C   0  0  0  0  0  0  0  0  0  0  0  0
  -35.3542    1.0349  -16.7464 Cl  0  0  0  0  0  0  0  0  0  0  0  0
  -34.5960    5.7586  -14.2892 Cl  0  0  0  0  0  0  0  0  0  0  0  0
  -34.6007   10.5553  -20.0277 H   0  0  0  0  0  0  0  0  0  0  0  0
  -33.0005   12.1870  -22.1054 H   0  0  0  0  0  0  0  0  0  0  0  0
  -33.7257   14.0836  -20.2369 H   0  0  0  0  0  0  0  0  0  0  0  0
  -31.6880   10.6625  -20.9513 H   0  0  0  0  0  0  0  0  0  0  0  0
  -33.8606   10.1477  -22.8414 H   0  0  0  0  0  0  0  0  0  0  0  0
  -35.3972    8.4784  -19.9412 H   0  0  0  0  0  0  0  0  0  0  0  0
  -33.8315    7.6776  -19.9925 H   0  0  0  0  0  0  0  0  0  0  0  0
  -35.3118    6.7535  -20.5760 H   0  0  0  0  0  0  0  0  0  0  0  0
  -34.9586   12.5694  -22.9093 H   0  0  0  0  0  0  0  0  0  0  0  0
  -35.3419   13.4051  -21.5041 H   0  0  0  0  0  0  0  0  0  0  0  0
  -35.7615   11.7805  -21.6557 H   0  0  0  0  0  0  0  0  0  0  0  0
  -32.3336    6.4521  -18.7291 H   0  0  0  0  0  0  0  0  0  0  0  0
  -34.0135    6.9908  -18.9977 H   0  0  0  0  0  0  0  0  0  0  0  0
  -32.5950    6.8439  -16.2718 H   0  0  0  0  0  0  0  0  0  0  0  0
  -34.2839    7.3863  -16.5403 H   0  0  0  0  0  0  0  0  0  0  0  0
  -35.3316    3.0428  -14.7289 H   0  0  0  0  0  0  0  0  0  0  0  0
  -33.4334    4.9257  -18.9307 H   0  0  0  0  0  0  0  0  0  0  0  0
  -34.2119    2.5610  -18.8656 H   0  0  0  0  0  0  0  0  0  0  0  0
  -31.7739   10.0449  -17.3783 H   0  0  0  0  0  0  0  0  0  0  0  0
  -32.3146    8.6515  -16.3981 H   0  0  0  0  0  0  0  0  0  0  0  0
  -34.6808    9.6836  -17.6488 H   0  0  0  0  0  0  0  0  0  0  0  0
  -33.7649   11.1140  -17.0595 H   0  0  0  0  0  0  0  0  0  0  0  0
  -33.5695   10.0578  -14.8013 H   0  0  0  0  0  0  0  0  0  0  0  0
  -34.4840    8.6278  -15.3904 H   0  0  0  0  0  0  0  0  0  0  0  0
  -35.2883   10.2287  -15.2878 H   0  0  0  0  0  0  0  0  0  0  0  0
  1  5  1  0  0  0  0
  1  4  2  0  0  0  0
  1  6  1  0  0  0  0
  2 11  1  0  0  0  0
  2  3  1  0  0  0  0
  2 12  1  0  0  0  0
  2 31  1  0  0  0  0
  3  4  1  0  0  0  0
  3 16  1  0  0  0  0
  3 32  1  0  0  0  0
  4 33  1  0  0  0  0
  5 11  1  0  0  0  0
  6  7  2  0  0  0  0
  6  8  1  0  0  0  0
  9 11  1  0  0  0  0
  9 24  1  0  0  0  0
  9 10  2  0  0  0  0
 11 34  1  0  0  0  0
 12 13  1  0  0  0  0
 12 35  1  0  0  0  0
 13 14  1  0  0  0  0
 13 15  2  0  0  0  0
 14 36  1  0  0  0  0
 14 37  1  0  0  0  0
 14 38  1  0  0  0  0
 16 39  1  0  0  0  0
 16 40  1  0  0  0  0
 16 41  1  0  0  0  0
 17 24  1  0  0  0  0
 17 18  1  0  0  0  0
 17 42  1  0  0  0  0
 17 43  1  0  0  0  0
 18 19  1  0  0  0  0
 18 44  1  0  0  0  0
 18 45  1  0  0  0  0
 19 21  2  0  0  0  0
 19 22  1  0  0  0  0
 20 28  2  0  0  0  0
 20 21  1  0  0  0  0
 20 46  1  0  0  0  0
 21 30  1  0  0  0  0
 22 23  2  0  0  0  0
 22 47  1  0  0  0  0
 23 28  1  0  0  0  0
 23 48  1  0  0  0  0
 24 25  1  0  0  0  0
 25 26  1  0  0  0  0
 25 49  1  0  0  0  0
 25 50  1  0  0  0  0
 26 27  1  0  0  0  0
 26 51  1  0  0  0  0
 26 52  1  0  0  0  0
 27 53  1  0  0  0  0
 27 54  1  0  0  0  0
 27 55  1  0  0  0  0
 28 29  1  0  0  0  0
M  END
> <Name>
BDB4968

> <Target>
Neuraminidase A

> <IC50_in_nM>
6

> <Kd_from_ITC>
false

> <source_organism>
Influenza A virus (A/Singapore/1/57(H2N2))

> <SourceTag>
NA

> <atoms in reference ligand area>
11

> <score>
-12.3355

$$$$
BDB4945
      BALL 1.4.0 (Jan  4 2012, 23:22:29)

 55 56  0999  0  0  0  0  0  0999 V2000
  -32.5131   12.5555  -19.1897 C   0  0  0  0  0  0  0  0  0  0  0  0
  -33.7588   10.6678  -20.7584 C   0  0  0  0  0  0  0  0  0  0  0  0
  -33.7070   12.0878  -21.2931 C   0  0  0  0  0  0  0  0  0  0  0  0
  -33.2729   12.9944  -20.1989 C   0  0  0  0  0  0  0  0  0  0  0  0
  -32.0585   11.2126  -19.0925 O   0  0  0  0  0  0  0  0  0  0  0  0
  -32.1632   13.4905  -18.1192 C   0  0  0  0  0  0  0  0  0  0  0  0
  -31.2039   13.2504  -17.3772 O   0  0  0  0  0  0  0  0  0  0  0  0
  -32.8930   14.6226  -17.9411 O   0  5  0  0  0  0  0  0  0  0  0  0
  -32.2522    8.9091  -19.8078 C   0  0  0  0  0  0  0  0  0  0  0  0
  -31.8273    8.0987  -20.6388 O   0  0  0  0  0  0  0  0  0  0  0  0
  -32.3678   10.3761  -20.2294 C   0  0  0  0  0  0  0  0  0  0  0  0
  -34.0689    9.7593  -21.8706 N   0  0  0  0  0  0  0  0  0  0  0  0
  -34.5510    8.4088  -21.7604 C   0  0  0  0  0  0  0  0  0  0  0  0
  -34.8120    7.7196  -20.4354 C   0  0  0  0  0  0  0  0  0  0  0  0
  -34.7637    7.7767  -22.8008 O   0  0  0  0  0  0  0  0  0  0  0  0
  -35.0237   12.4922  -21.8058 N   0  3  0  0  0  0  0  0  0  0  0  0
  -32.6219    8.4143  -18.5194 N   0  0  0  0  0  0  0  0  0  0  0  0
  -32.8266    6.9923  -18.3769 C   0  0  0  0  0  0  0  0  0  0  0  0
  -32.8105    9.2790  -17.3711 C   0  0  0  0  0  0  0  0  0  0  0  0
  -34.2467    9.8544  -17.3556 C   0  0  0  0  0  0  0  0  0  0  0  0
  -34.8802    9.6045  -15.9759 C   0  0  0  0  0  0  0  0  0  0  0  0
  -33.2441    6.6311  -16.9353 C   0  0  0  0  0  0  0  0  0  0  0  0
  -33.4611    5.1508  -16.8240 C   0  0  0  0  0  0  0  0  0  0  0  0
  -33.8758    2.4106  -16.6196 C   0  0  0  0  0  0  0  0  0  0  0  0
  -33.3900    2.9530  -17.8027 C   0  0  0  0  0  0  0  0  0  0  0  0
  -33.1826    4.3243  -17.9049 C   0  0  0  0  0  0  0  0  0  0  0  0
  -33.9473    4.6082  -15.6398 C   0  0  0  0  0  0  0  0  0  0  0  0
  -34.1545    3.2382  -15.5378 C   0  0  0  0  0  0  0  0  0  0  0  0
  -34.5208   10.5395  -19.9755 H   0  0  0  0  0  0  0  0  0  0  0  0
  -32.9897   12.1442  -22.1251 H   0  0  0  0  0  0  0  0  0  0  0  0
  -33.5831   14.0495  -20.2194 H   0  0  0  0  0  0  0  0  0  0  0  0
  -31.6548   10.5887  -21.0396 H   0  0  0  0  0  0  0  0  0  0  0  0
  -33.9272   10.1256  -22.8228 H   0  0  0  0  0  0  0  0  0  0  0  0
  -35.3556    8.4795  -19.8548 H   0  0  0  0  0  0  0  0  0  0  0  0
  -33.8114    7.6464  -19.9840 H   0  0  0  0  0  0  0  0  0  0  0  0
  -35.3374    6.7552  -20.4967 H   0  0  0  0  0  0  0  0  0  0  0  0
  -34.9761   12.5699  -22.8318 H   0  0  0  0  0  0  0  0  0  0  0  0
  -35.2730   13.4089  -21.4078 H   0  0  0  0  0  0  0  0  0  0  0  0
  -35.7335   11.7939  -21.5423 H   0  0  0  0  0  0  0  0  0  0  0  0
  -31.8945    6.4645  -18.6269 H   0  0  0  0  0  0  0  0  0  0  0  0
  -33.6137    6.6683  -19.0738 H   0  0  0  0  0  0  0  0  0  0  0  0
  -32.0876   10.1068  -17.4153 H   0  0  0  0  0  0  0  0  0  0  0  0
  -32.6395    8.7027  -16.4499 H   0  0  0  0  0  0  0  0  0  0  0  0
  -34.8501    9.3594  -18.1308 H   0  0  0  0  0  0  0  0  0  0  0  0
  -34.2110   10.9362  -17.5519 H   0  0  0  0  0  0  0  0  0  0  0  0
  -34.2794   10.0997  -15.1988 H   0  0  0  0  0  0  0  0  0  0  0  0
  -34.9173    8.5233  -15.7772 H   0  0  0  0  0  0  0  0  0  0  0  0
  -35.9015   10.0128  -15.9625 H   0  0  0  0  0  0  0  0  0  0  0  0
  -34.1761    7.1568  -16.6806 H   0  0  0  0  0  0  0  0  0  0  0  0
  -32.4511    6.9374  -16.2371 H   0  0  0  0  0  0  0  0  0  0  0  0
  -34.0399    1.3260  -16.5387 H   0  0  0  0  0  0  0  0  0  0  0  0
  -33.1695    2.2980  -18.6585 H   0  0  0  0  0  0  0  0  0  0  0  0
  -32.7979    4.7541  -18.8415 H   0  0  0  0  0  0  0  0  0  0  0  0
  -34.1677    5.2633  -14.7841 H   0  0  0  0  0  0  0  0  0  0  0  0
  -34.5391    2.8085  -14.6011 H   0  0  0  0  0  0  0  0  0  0  0  0
  1  5  1  0  0  0  0
  1  4  2  0  0  0  0
  1  6  1  0  0  0  0
  2 11  1  0  0  0  0
  2  3  1  0  0  0  0
  2 12  1  0  0  0  0
  2 29  1  0  0  0  0
  3  4  1  0  0  0  0
  3 16  1  0  0  0  0
  3 30  1  0  0  0  0
  4 31  1  0  0  0  0
  5 11  1  0  0  0  0
  6  7  2  0  0  0  0
  6  8  1  0  0  0  0
  9 11  1  0  0  0  0
  9 17  1  0  0  0  0
  9 10  2  0  0  0  0
 11 32  1  0  0  0  0
 12 13  1  0  0  0  0
 12 33  1  0  0  0  0
 13 14  1  0  0  0  0
 13 15  2  0  0  0  0
 14 34  1  0  0  0  0
 14 35  1  0  0  0  0
 14 36  1  0  0  0  0
 16 37  1  0  0  0  0
 16 38  1  0  0  0  0
 16 39  1  0  0  0  0
 17 18  1  0  0  0  0
 17 19  1  0  0  0  0
 18 22  1  0  0  0  0
 18 40  1  0  0  0  0
 18 41  1  0  0  0  0
 19 20  1  0  0  0  0
 19 42  1  0  0  0  0
 19 43  1  0  0  0  0
 20 21  1  0  0  0  0
 20 44  1  0  0  0  0
 20 45  1  0  0  0  0
 21 46  1  0  0  0  0
 21 47  1  0  0  0  0
 21 48  1  0  0  0  0
 22 23  1  0  0  0  0
 22 49  1  0  0  0  0
 22 50  1  0  0  0  0
 23 26  2  0  0  0  0
 23 27  1  0  0  0  0
 24 25  2  0  0  0  0
 24 28  1  0  0  0  0
 24 51  1  0  0  0  0
 25 26  1  0  0  0  0
 25 52  1  0  0  0  0
 26 53  1  0  0  0  0
 27 28  2  0  0  0  0
 27 54  1  0  0  0  0
 28 55  1  0  0  0  0
M  END
> <Name>
BDB4945

> <Target>
Neuraminidase A

> <IC50_in_nM>
2

> <Kd_from_ITC>
false

> <source_organism>
Influenza A virus (A/Singapore/1/57(H2N2))

> <SourceTag>
NA

> <atoms in reference ligand area>
13

> <score>
-12.2366

$$$$
BDB5244
      BALL 1.4.0 (Jan  4 2012, 23:22:29)

 48 48  0999  0  0  0  0  0  0999 V2000
  -31.5356   10.0255  -18.2967 C   0  0  0  0  0  0  0  0  0  0  0  0
  -32.8205   10.7008  -18.7311 C   0  0  0  0  0  0  0  0  0  0  0  0
  -32.9436   10.5542  -20.2417 C   0  0  0  0  0  0  0  0  0  0  0  0
  -32.8148    9.0992  -20.6000 C   0  0  0  0  0  0  0  0  0  0  0  0
  -32.1885    8.2803  -19.8461 N   0  0  0  0  0  0  0  0  0  0  0  0
  -31.5829    8.6499  -18.6987 N   0  0  0  0  0  0  0  0  0  0  0  0
  -33.4107    8.6153  -21.8446 C   0  0  0  0  0  0  0  0  0  0  0  0
  -34.2764    7.7335  -21.8131 O   0  0  0  0  0  0  0  0  0  0  0  0
  -33.0130    9.1349  -23.0349 O   0  5  0  0  0  0  0  0  0  0  0  0
  -30.9511    7.6815  -17.9113 C   0  0  0  0  0  0  0  0  0  0  0  0
  -30.0569    8.0167  -17.1261 O   0  0  0  0  0  0  0  0  0  0  0  0
  -31.3462    6.2348  -18.0203 C   0  0  0  0  0  0  0  0  0  0  0  0
  -32.7901    6.0506  -17.4965 C   0  0  0  0  0  0  0  0  0  0  0  0
  -30.3691    5.3718  -17.1940 C   0  0  0  0  0  0  0  0  0  0  0  0
  -30.7267    3.8787  -17.3508 C   0  0  0  0  0  0  0  0  0  0  0  0
  -32.8919    6.5507  -16.0396 C   0  0  0  0  0  0  0  0  0  0  0  0
  -31.3834   10.1168  -16.8467 N   0  0  0  0  0  0  0  0  0  0  0  0
  -32.4339    9.9067  -15.9037 C   0  0  0  0  0  0  0  0  0  0  0  0
  -33.8555    9.6070  -16.3195 C   0  0  0  0  0  0  0  0  0  0  0  0
  -32.1712    9.9808  -14.6969 O   0  0  0  0  0  0  0  0  0  0  0  0
  -32.7996   12.1048  -18.3677 N   0  0  0  0  0  0  0  0  0  0  0  0
  -33.8672   12.9853  -18.6567 C   0  0  0  0  0  0  0  0  0  0  0  0
  -34.6865   13.4987  -17.6428 N   0  0  0  0  0  0  0  0  0  0  0  0
  -34.0886   13.3182  -19.8627 N   0  3  0  0  0  0  0  0  0  0  0  0
  -30.6760   10.5247  -18.7677 H   0  0  0  0  0  0  0  0  0  0  0  0
  -33.6806   10.2321  -18.2307 H   0  0  0  0  0  0  0  0  0  0  0  0
  -33.9248   10.9282  -20.5694 H   0  0  0  0  0  0  0  0  0  0  0  0
  -32.1437   11.1263  -20.7347 H   0  0  0  0  0  0  0  0  0  0  0  0
  -31.3044    5.9189  -19.0732 H   0  0  0  0  0  0  0  0  0  0  0  0
  -33.0611    4.9853  -17.5361 H   0  0  0  0  0  0  0  0  0  0  0  0
  -33.4840    6.6244  -18.1285 H   0  0  0  0  0  0  0  0  0  0  0  0
  -30.4376    5.6541  -16.1332 H   0  0  0  0  0  0  0  0  0  0  0  0
  -29.3418    5.5405  -17.5495 H   0  0  0  0  0  0  0  0  0  0  0  0
  -30.6574    3.5966  -18.4117 H   0  0  0  0  0  0  0  0  0  0  0  0
  -31.7542    3.7108  -16.9955 H   0  0  0  0  0  0  0  0  0  0  0  0
  -30.0287    3.2665  -16.7608 H   0  0  0  0  0  0  0  0  0  0  0  0
  -32.6214    7.6162  -16.0017 H   0  0  0  0  0  0  0  0  0  0  0  0
  -32.1973    5.9763  -15.4091 H   0  0  0  0  0  0  0  0  0  0  0  0
  -33.9201    6.4178  -15.6719 H   0  0  0  0  0  0  0  0  0  0  0  0
  -30.4502   10.3497  -16.4781 H   0  0  0  0  0  0  0  0  0  0  0  0
  -33.7590    8.7213  -16.9647 H   0  0  0  0  0  0  0  0  0  0  0  0
  -34.1181   10.4462  -16.9804 H   0  0  0  0  0  0  0  0  0  0  0  0
  -34.5660    9.4666  -15.4915 H   0  0  0  0  0  0  0  0  0  0  0  0
  -31.9724   12.4757  -17.8787 H   0  0  0  0  0  0  0  0  0  0  0  0
  -35.2211   12.8436  -17.0546 H   0  0  0  0  0  0  0  0  0  0  0  0
  -34.7554   14.5143  -17.4853 H   0  0  0  0  0  0  0  0  0  0  0  0
  -33.4987   12.9525  -20.6238 H   0  0  0  0  0  0  0  0  0  0  0  0
  -34.8651   13.9594  -20.0790 H   0  0  0  0  0  0  0  0  0  0  0  0
  1  6  1  0  0  0  0
  1  2  1  0  0  0  0
  1 17  1  0  0  0  0
  1 25  1  0  0  0  0
  2  3  1  0  0  0  0
  2 21  1  0  0  0  0
  2 26  1  0  0  0  0
  3  4  1  0  0  0  0
  3 27  1  0  0  0  0
  3 28  1  0  0  0  0
  4  5  2  0  0  0  0
  4  7  1  0  0  0  0
  5  6  1  0  0  0  0
  6 10  1  0  0  0  0
  7  8  2  0  0  0  0
  7  9  1  0  0  0  0
 10 11  2  0  0  0  0
 10 12  1  0  0  0  0
 12 14  1  0  0  0  0
 12 13  1  0  0  0  0
 12 29  1  0  0  0  0
 13 16  1  0  0  0  0
 13 30  1  0  0  0  0
 13 31  1  0  0  0  0
 14 15  1  0  0  0  0
 14 32  1  0  0  0  0
 14 33  1  0  0  0  0
 15 34  1  0  0  0  0
 15 35  1  0  0  0  0
 15 36  1  0  0  0  0
 16 37  1  0  0  0  0
 16 38  1  0  0  0  0
 16 39  1  0  0  0  0
 17 18  1  0  0  0  0
 17 40  1  0  0  0  0
 18 19  1  0  0  0  0
 18 20  2  0  0  0  0
 19 41  1  0  0  0  0
 19 42  1  0  0  0  0
 19 43  1  0  0  0  0
 21 22  1  0  0  0  0
 21 44  1  0  0  0  0
 22 24  2  0  0  0  0
 22 23  1  0  0  0  0
 23 45  1  0  0  0  0
 23 46  1  0  0  0  0
 24 47  1  0  0  0  0
 24 48  1  0  0  0  0
M  END
> <Name>
BDB5244

> <Target>
Neuraminidase A

> <IC50_in_nM>
140

> <Kd_from_ITC>
false

> <source_organism>
Influenza A virus (A/Puerto Rico/8/34(H1N1))

> <SourceTag>
NA

> <atoms in reference ligand area>
11

> <score>
-12.0495

$$$$
BDB5234
      BALL 1.4.0 (Jan  4 2012, 23:22:29)

 46 46  0999  0  0  0  0  0  0999 V2000
  -31.9002    8.1943  -21.8008 C   0  0  0  0  0  0  0  0  0  0  0  0
  -32.0817    9.3113  -22.7941 C   0  0  0  0  0  0  0  0  0  0  0  0
  -30.8059    9.4421  -23.7466 C   0  0  0  0  0  0  0  0  0  0  0  0
  -29.4454    9.2055  -23.0219 C   0  0  0  0  0  0  0  0  0  0  0  0
  -29.4549    7.8148  -22.3901 C   0  0  0  0  0  0  0  0  0  0  0  0
  -30.7366    7.5423  -21.5865 C   0  0  0  0  0  0  0  0  0  0  0  0
  -30.7604    6.4629  -20.6086 C   0  0  0  0  0  0  0  0  0  0  0  0
  -31.4912    5.4886  -20.7827 O   0  0  0  0  0  0  0  0  0  0  0  0
  -29.9461    6.5204  -19.5233 O   0  5  0  0  0  0  0  0  0  0  0  0
  -29.1531   10.1245  -22.0022 N   0  3  0  0  0  0  0  0  0  0  0  0
  -30.7858    8.5058  -24.9671 N   0  0  0  0  0  0  0  0  0  0  0  0
  -30.6560    7.0413  -25.0970 C   0  0  0  0  0  0  0  0  0  0  0  0
  -30.8238    6.0110  -24.0168 C   0  0  0  0  0  0  0  0  0  0  0  0
  -30.4496    6.6088  -26.2372 O   0  0  0  0  0  0  0  0  0  0  0  0
  -32.6766   10.5096  -21.9630 N   0  3  0  0  0  0  0  0  0  0  0  0
  -31.8365   11.3869  -21.0528 C   0  0  0  0  0  0  0  0  0  0  0  0
  -31.1441   12.5958  -21.7642 C   0  0  0  0  0  0  0  0  0  0  0  0
  -32.1647   13.5811  -22.3724 C   0  0  0  0  0  0  0  0  0  0  0  0
  -32.7551   11.9977  -19.9732 C   0  0  0  0  0  0  0  0  0  0  0  0
  -31.8978   12.7075  -18.8974 C   0  0  0  0  0  0  0  0  0  0  0  0
  -32.7515    7.8964  -21.2250 H   0  0  0  0  0  0  0  0  0  0  0  0
  -32.9177    9.0898  -23.4730 H   0  0  0  0  0  0  0  0  0  0  0  0
  -30.8327   10.4420  -24.1990 H   0  0  0  0  0  0  0  0  0  0  0  0
  -28.6374    9.2809  -23.7615 H   0  0  0  0  0  0  0  0  0  0  0  0
  -28.5983    7.7147  -21.7361 H   0  0  0  0  0  0  0  0  0  0  0  0
  -29.3593    7.0678  -23.1715 H   0  0  0  0  0  0  0  0  0  0  0  0
  -28.5350    9.6933  -21.3463 H   0  0  0  0  0  0  0  0  0  0  0  0
  -30.0336   10.4203  -21.5666 H   0  0  0  0  0  0  0  0  0  0  0  0
  -28.6854   10.9395  -22.4081 H   0  0  0  0  0  0  0  0  0  0  0  0
  -30.8207    8.9808  -25.8373 H   0  0  0  0  0  0  0  0  0  0  0  0
  -31.8268    6.2975  -23.6233 H   0  0  0  0  0  0  0  0  0  0  0  0
  -30.1256    6.4149  -23.2470 H   0  0  0  0  0  0  0  0  0  0  0  0
  -30.7087    5.1112  -24.2560 H   0  0  0  0  0  0  0  0  0  0  0  0
  -33.2543   11.1063  -22.5665 H   0  0  0  0  0  0  0  0  0  0  0  0
  -33.3055   10.0264  -21.3120 H   0  0  0  0  0  0  0  0  0  0  0  0
  -31.0709   10.7463  -20.6678 H   0  0  0  0  0  0  0  0  0  0  0  0
  -30.4975   12.2257  -22.5485 H   0  0  0  0  0  0  0  0  0  0  0  0
  -30.5235   13.1234  -21.0479 H   0  0  0  0  0  0  0  0  0  0  0  0
  -32.7983   13.9359  -21.5785 H   0  0  0  0  0  0  0  0  0  0  0  0
  -32.7714   13.0390  -23.0766 H   0  0  0  0  0  0  0  0  0  0  0  0
  -31.6746   14.3807  -22.8423 H   0  0  0  0  0  0  0  0  0  0  0  0
  -33.3315   11.2216  -19.5134 H   0  0  0  0  0  0  0  0  0  0  0  0
  -33.4173   12.7093  -20.4283 H   0  0  0  0  0  0  0  0  0  0  0  0
  -31.3223   13.4839  -19.3570 H   0  0  0  0  0  0  0  0  0  0  0  0
  -31.2375   11.9977  -18.4441 H   0  0  0  0  0  0  0  0  0  0  0  0
  -32.5368   13.1305  -18.1496 H   0  0  0  0  0  0  0  0  0  0  0  0
  1  2  1  0  0  0  0
  1  6  2  0  0  0  0
  1 21  1  0  0  0  0
  2  3  1  0  0  0  0
  2 15  1  0  0  0  0
  2 22  1  0  0  0  0
  3  4  1  0  0  0  0
  3 11  1  0  0  0  0
  3 23  1  0  0  0  0
  4  5  1  0  0  0  0
  4 10  1  0  0  0  0
  4 24  1  0  0  0  0
  5  6  1  0  0  0  0
  5 25  1  0  0  0  0
  5 26  1  0  0  0  0
  6  7  1  0  0  0  0
  7  8  2  0  0  0  0
  7  9  1  0  0  0  0
 10 27  1  0  0  0  0
 10 28  1  0  0  0  0
 10 29  1  0  0  0  0
 11 12  1  0  0  0  0
 11 30  1  0  0  0  0
 12 13  1  0  0  0  0
 12 14  2  0  0  0  0
 13 31  1  0  0  0  0
 13 32  1  0  0  0  0
 13 33  1  0  0  0  0
 15 16  1  0  0  0  0
 15 34  1  0  0  0  0
 15 35  1  0  0  0  0
 16 19  1  0  0  0  0
 16 17  1  0  0  0  0
 16 36  1  0  0  0  0
 17 18  1  0  0  0  0
 17 37  1  0  0  0  0
 17 38  1  0  0  0  0
 18 39  1  0  0  0  0
 18 40  1  0  0  0  0
 18 41  1  0  0  0  0
 19 20  1  0  0  0  0
 19 42  1  0  0  0  0
 19 43  1  0  0  0  0
 20 44  1  0  0  0  0
 20 45  1  0  0  0  0
 20 46  1  0  0  0  0
M  END
> <Name>
BDB5234

> <Target>
Neuraminidase A

> <IC50_in_nM>
11

> <Kd_from_ITC>
false

> <source_organism>
Influenza A virus (A/Puerto Rico/8/34(H1N1))

> <SourceTag>
NA

> <atoms in reference ligand area>
22

> <score>
-11.7329

$$$$
BDB5233
      BALL 1.4.0 (Jan  4 2012, 23:22:29)

 40 40  0999  0  0  0  0  0  0999 V2000
  -31.1065   13.2745  -21.3443 C   0  0  0  0  0  0  0  0  0  0  0  0
  -32.1315   14.3148  -21.7279 C   0  0  0  0  0  0  0  0  0  0  0  0
  -32.1752   15.4814  -20.6603 C   0  0  0  0  0  0  0  0  0  0  0  0
  -32.0056   15.0333  -19.1569 C   0  0  0  0  0  0  0  0  0  0  0  0
  -30.6519   14.3326  -19.0505 C   0  0  0  0  0  0  0  0  0  0  0  0
  -30.4623   13.2536  -20.1542 C   0  0  0  0  0  0  0  0  0  0  0  0
  -29.4607   12.2137  -19.9630 C   0  0  0  0  0  0  0  0  0  0  0  0
  -29.6654   11.0754  -20.3909 O   0  0  0  0  0  0  0  0  0  0  0  0
  -28.2835   12.5131  -19.3590 O   0  5  0  0  0  0  0  0  0  0  0  0
  -32.9959   14.1411  -18.5600 N   0  3  0  0  0  0  0  0  0  0  0  0
  -31.1503   16.6003  -20.8618 N   0  0  0  0  0  0  0  0  0  0  0  0
  -31.1131   18.0062  -20.4222 C   0  0  0  0  0  0  0  0  0  0  0  0
  -32.0341   18.6849  -19.4493 C   0  0  0  0  0  0  0  0  0  0  0  0
  -30.1924   18.6955  -20.8754 O   0  0  0  0  0  0  0  0  0  0  0  0
  -33.4571   13.6068  -22.0252 N   0  3  0  0  0  0  0  0  0  0  0  0
  -33.6438   12.3436  -21.3620 C   0  0  0  0  0  0  0  0  0  0  0  0
  -34.9909   11.6987  -21.6676 C   0  0  0  0  0  0  0  0  0  0  0  0
  -35.0797   10.3895  -20.8542 C   0  0  0  0  0  0  0  0  0  0  0  0
  -30.8759   12.5088  -22.0551 H   0  0  0  0  0  0  0  0  0  0  0  0
  -31.8872   14.7863  -22.6917 H   0  0  0  0  0  0  0  0  0  0  0  0
  -33.1351   15.9982  -20.7912 H   0  0  0  0  0  0  0  0  0  0  0  0
  -32.0197   15.9451  -18.5472 H   0  0  0  0  0  0  0  0  0  0  0  0
  -30.5676   13.8658  -18.0793 H   0  0  0  0  0  0  0  0  0  0  0  0
  -29.8617   15.0695  -19.1333 H   0  0  0  0  0  0  0  0  0  0  0  0
  -33.0830   14.3197  -17.5920 H   0  0  0  0  0  0  0  0  0  0  0  0
  -32.7438   13.1567  -18.7418 H   0  0  0  0  0  0  0  0  0  0  0  0
  -33.9081   14.3408  -18.9860 H   0  0  0  0  0  0  0  0  0  0  0  0
  -30.3698   16.3332  -21.4126 H   0  0  0  0  0  0  0  0  0  0  0  0
  -31.9576   17.9857  -18.5839 H   0  0  0  0  0  0  0  0  0  0  0  0
  -33.0217   18.4244  -19.8971 H   0  0  0  0  0  0  0  0  0  0  0  0
  -31.8813   19.5924  -19.2700 H   0  0  0  0  0  0  0  0  0  0  0  0
  -34.2301   14.2384  -21.7725 H   0  0  0  0  0  0  0  0  0  0  0  0
  -33.4985   13.4216  -23.0361 H   0  0  0  0  0  0  0  0  0  0  0  0
  -32.8483   11.6651  -21.6615 H   0  0  0  0  0  0  0  0  0  0  0  0
  -33.5552   12.4892  -20.2907 H   0  0  0  0  0  0  0  0  0  0  0  0
  -35.0551   11.4784  -22.7044 H   0  0  0  0  0  0  0  0  0  0  0  0
  -35.7765   12.3549  -21.3744 H   0  0  0  0  0  0  0  0  0  0  0  0
  -35.0205   10.5947  -19.8098 H   0  0  0  0  0  0  0  0  0  0  0  0
  -34.3004    9.7202  -21.1387 H   0  0  0  0  0  0  0  0  0  0  0  0
  -36.0365    9.9137  -21.0595 H   0  0  0  0  0  0  0  0  0  0  0  0
  1  2  1  0  0  0  0
  1  6  2  0  0  0  0
  1 19  1  0  0  0  0
  2  3  1  0  0  0  0
  2 15  1  0  0  0  0
  2 20  1  0  0  0  0
  3  4  1  0  0  0  0
  3 11  1  0  0  0  0
  3 21  1  0  0  0  0
  4  5  1  0  0  0  0
  4 10  1  0  0  0  0
  4 22  1  0  0  0  0
  5  6  1  0  0  0  0
  5 23  1  0  0  0  0
  5 24  1  0  0  0  0
  6  7  1  0  0  0  0
  7  8  2  0  0  0  0
  7  9  1  0  0  0  0
 10 25  1  0  0  0  0
 10 26  1  0  0  0  0
 10 27  1  0  0  0  0
 11 12  1  0  0  0  0
 11 28  1  0  0  0  0
 12 13  1  0  0  0  0
 12 14  2  0  0  0  0
 13 29  1  0  0  0  0
 13 30  1  0  0  0  0
 13 31  1  0  0  0  0
 15 16  1  0  0  0  0
 15 32  1  0  0  0  0
 15 33  1  0  0  0  0
 16 17  1  0  0  0  0
 16 34  1  0  0  0  0
 16 35  1  0  0  0  0
 17 18  1  0  0  0  0
 17 36  1  0  0  0  0
 17 37  1  0  0  0  0
 18 38  1  0  0  0  0
 18 39  1  0  0  0  0
 18 40  1  0  0  0  0
M  END
> <Name>
BDB5233

> <Target>
Neuraminidase A

> <IC50_in_nM>
200

> <Kd_from_ITC>
false

> <source_organism>
Influenza A virus (A/Puerto Rico/8/34(H1N1))

> <SourceTag>
NA

> <atoms in reference ligand area>
19

> <score>
-11.6893

$$$$
BDB5013
      BALL 1.4.0 (Jan  4 2012, 23:22:29)

 49 49  0999  0  0  0  0  0  0999 V2000
  -32.9187   11.9144  -19.8177 C   0  0  0  0  0  0  0  0  0  0  0  0
  -32.8734   10.3975  -19.9957 C   0  0  0  0  0  0  0  0  0  0  0  0
  -31.6722    9.8176  -19.2303 C   0  0  0  0  0  0  0  0  0  0  0  0
  -30.3445   10.7170  -19.3735 C   0  0  0  0  0  0  0  0  0  0  0  0
  -30.6214   12.0588  -18.7855 C   0  0  0  0  0  0  0  0  0  0  0  0
  -31.9037   12.6554  -19.3115 C   0  0  0  0  0  0  0  0  0  0  0  0
  -32.0511   14.0974  -19.2027 C   0  0  0  0  0  0  0  0  0  0  0  0
  -32.5880   14.7394  -20.1098 O   0  0  0  0  0  0  0  0  0  0  0  0
  -31.5834   14.7355  -18.0960 O   0  5  0  0  0  0  0  0  0  0  0  0
  -32.0023    9.5354  -17.7439 N   0  0  0  0  0  0  0  0  0  0  0  0
  -31.2272    8.9604  -16.6093 C   0  0  0  0  0  0  0  0  0  0  0  0
  -29.8188    8.4426  -16.6037 C   0  0  0  0  0  0  0  0  0  0  0  0
  -31.8110    8.9208  -15.5209 O   0  0  0  0  0  0  0  0  0  0  0  0
  -29.5704   10.9441  -20.7058 N   0  0  0  0  0  0  0  0  0  0  0  0
  -29.8423   11.8256  -21.9084 C   0  0  0  0  0  0  0  0  0  0  0  0
  -29.4931   11.3627  -23.0468 N   0  3  0  0  0  0  0  0  0  0  0  0
  -30.4526   13.1275  -21.9544 N   0  0  0  0  0  0  0  0  0  0  0  0
  -32.9885   10.0023  -21.4526 O   0  0  0  0  0  0  0  0  0  0  0  0
  -31.8902    9.3758  -22.1731 C   0  0  0  0  0  0  0  0  0  0  0  0
  -32.0813    9.7488  -23.6954 C   0  0  0  0  0  0  0  0  0  0  0  0
  -30.8453    9.4657  -24.5938 C   0  0  0  0  0  0  0  0  0  0  0  0
  -31.9488    7.8048  -21.9545 C   0  0  0  0  0  0  0  0  0  0  0  0
  -30.8302    7.0060  -22.6749 C   0  0  0  0  0  0  0  0  0  0  0  0
  -33.8114   12.4254  -20.1125 H   0  0  0  0  0  0  0  0  0  0  0  0
  -33.7834    9.9601  -19.5639 H   0  0  0  0  0  0  0  0  0  0  0  0
  -31.4885    8.8121  -19.6072 H   0  0  0  0  0  0  0  0  0  0  0  0
  -29.5928   10.2286  -18.7367 H   0  0  0  0  0  0  0  0  0  0  0  0
  -29.8011   12.7238  -19.0136 H   0  0  0  0  0  0  0  0  0  0  0  0
  -30.6864   11.9691  -17.7081 H   0  0  0  0  0  0  0  0  0  0  0  0
  -32.9041    9.8501  -17.4764 H   0  0  0  0  0  0  0  0  0  0  0  0
  -29.2738    9.3824  -16.8735 H   0  0  0  0  0  0  0  0  0  0  0  0
  -29.8238    7.8787  -17.5706 H   0  0  0  0  0  0  0  0  0  0  0  0
  -29.5232    7.9857  -15.8513 H   0  0  0  0  0  0  0  0  0  0  0  0
  -28.6965   10.4100  -20.7699 H   0  0  0  0  0  0  0  0  0  0  0  0
  -29.0619   10.4779  -23.1053 H   0  0  0  0  0  0  0  0  0  0  0  0
  -29.6515   11.9079  -23.8619 H   0  0  0  0  0  0  0  0  0  0  0  0
  -30.4030   13.6894  -22.7339 H   0  0  0  0  0  0  0  0  0  0  0  0
  -30.8695   13.5144  -21.1009 H   0  0  0  0  0  0  0  0  0  0  0  0
  -30.9358    9.7135  -21.8267 H   0  0  0  0  0  0  0  0  0  0  0  0
  -32.9410    9.1974  -24.0916 H   0  0  0  0  0  0  0  0  0  0  0  0
  -32.3388   10.8078  -23.7727 H   0  0  0  0  0  0  0  0  0  0  0  0
  -30.6192    8.4127  -24.4892 H   0  0  0  0  0  0  0  0  0  0  0  0
  -30.0190   10.0213  -24.1704 H   0  0  0  0  0  0  0  0  0  0  0  0
  -31.0183    9.7245  -25.5744 H   0  0  0  0  0  0  0  0  0  0  0  0
  -31.8997    7.5927  -20.8805 H   0  0  0  0  0  0  0  0  0  0  0  0
  -32.9202    7.4343  -22.2917 H   0  0  0  0  0  0  0  0  0  0  0  0
  -29.8877    7.4018  -22.3194 H   0  0  0  0  0  0  0  0  0  0  0  0
  -30.9077    7.2439  -23.7279 H   0  0  0  0  0  0  0  0  0  0  0  0
  -30.9106    5.9954  -22.5034 H   0  0  0  0  0  0  0  0  0  0  0  0
  1  2  1  0  0  0  0
  1  6  2  0  0  0  0
  1 24  1  0  0  0  0
  2  3  1  0  0  0  0
  2 18  1  0  0  0  0
  2 25  1  0  0  0  0
  3  4  1  0  0  0  0
  3 10  1  0  0  0  0
  3 26  1  0  0  0  0
  4  5  1  0  0  0  0
  4 14  1  0  0  0  0
  4 27  1  0  0  0  0
  5  6  1  0  0  0  0
  5 28  1  0  0  0  0
  5 29  1  0  0  0  0
  6  7  1  0  0  0  0
  7  8  2  0  0  0  0
  7  9  1  0  0  0  0
 10 11  1  0  0  0  0
 10 30  1  0  0  0  0
 11 12  1  0  0  0  0
 11 13  2  0  0  0  0
 12 31  1  0  0  0  0
 12 32  1  0  0  0  0
 12 33  1  0  0  0  0
 14 15  1  0  0  0  0
 14 34  1  0  0  0  0
 15 17  1  0  0  0  0
 15 16  2  0  0  0  0
 16 35  1  0  0  0  0
 16 36  1  0  0  0  0
 17 37  1  0  0  0  0
 17 38  1  0  0  0  0
 18 19  1  0  0  0  0
 19 20  1  0  0  0  0
 19 22  1  0  0  0  0
 19 39  1  0  0  0  0
 20 21  1  0  0  0  0
 20 40  1  0  0  0  0
 20 41  1  0  0  0  0
 21 42  1  0  0  0  0
 21 43  1  0  0  0  0
 21 44  1  0  0  0  0
 22 23  1  0  0  0  0
 22 45  1  0  0  0  0
 22 46  1  0  0  0  0
 23 47  1  0  0  0  0
 23 48  1  0  0  0  0
 23 49  1  0  0  0  0
M  END
> <Name>
BDB5013

> <Target>
Neuraminidase A

> <IC50_in_nM>
0.5

> <Kd_from_ITC>
false

> <source_organism>
Influenza A virus (A/Puerto Rico/8/34/Mount Sinai(H1N1))

> <SourceTag>
NA

> <atoms in reference ligand area>
20

> <score>
-10.9748

$$$$
BDB4983
      BALL 1.4.0 (Jan  4 2012, 23:22:29)

 38 38  0999  0  0  0  0  0  0999 V2000
  -32.2209   12.7489  -19.3358 C   0  0  0  0  0  0  0  0  0  0  0  0
  -32.6757   11.3605  -19.7192 C   0  0  0  0  0  0  0  0  0  0  0  0
  -33.4240   11.3376  -21.1000 C   0  0  0  0  0  0  0  0  0  0  0  0
  -34.4149   12.5387  -21.2542 C   0  0  0  0  0  0  0  0  0  0  0  0
  -33.5898   13.8311  -21.1934 C   0  0  0  0  0  0  0  0  0  0  0  0
  -32.6404   13.8669  -19.9803 C   0  0  0  0  0  0  0  0  0  0  0  0
  -32.0680   15.1368  -19.5469 C   0  0  0  0  0  0  0  0  0  0  0  0
  -30.8569   15.3268  -19.6115 O   0  0  0  0  0  0  0  0  0  0  0  0
  -32.8946   16.1315  -19.1237 O   0  5  0  0  0  0  0  0  0  0  0  0
  -35.4726   12.6336  -20.2533 N   0  3  0  0  0  0  0  0  0  0  0  0
  -32.5866   11.2951  -22.3655 N   0  0  0  0  0  0  0  0  0  0  0  0
  -31.2822   10.7048  -22.6622 C   0  0  0  0  0  0  0  0  0  0  0  0
  -30.4553    9.8343  -21.7659 C   0  0  0  0  0  0  0  0  0  0  0  0
  -30.8286   10.9232  -23.7913 O   0  0  0  0  0  0  0  0  0  0  0  0
  -33.5341   10.8009  -18.6695 O   0  0  0  0  0  0  0  0  0  0  0  0
  -33.2162    9.4780  -18.2301 C   0  0  0  0  0  0  0  0  0  0  0  0
  -33.6080    9.4091  -16.7324 C   0  0  0  0  0  0  0  0  0  0  0  0
  -32.9655    8.1823  -16.0670 C   0  0  0  0  0  0  0  0  0  0  0  0
  -31.5374   12.8557  -18.5195 H   0  0  0  0  0  0  0  0  0  0  0  0
  -31.8248   10.6648  -19.7830 H   0  0  0  0  0  0  0  0  0  0  0  0
  -33.9849   10.3944  -21.1362 H   0  0  0  0  0  0  0  0  0  0  0  0
  -34.9097   12.4480  -22.2282 H   0  0  0  0  0  0  0  0  0  0  0  0
  -34.2597   14.6798  -21.1446 H   0  0  0  0  0  0  0  0  0  0  0  0
  -33.0073   13.9253  -22.1040 H   0  0  0  0  0  0  0  0  0  0  0  0
  -35.1328   12.3598  -19.3770 H   0  0  0  0  0  0  0  0  0  0  0  0
  -36.2739   12.0512  -20.5294 H   0  0  0  0  0  0  0  0  0  0  0  0
  -35.7709   13.6153  -20.1821 H   0  0  0  0  0  0  0  0  0  0  0  0
  -33.0039   11.7602  -23.1367 H   0  0  0  0  0  0  0  0  0  0  0  0
  -31.2029    9.0525  -21.4998 H   0  0  0  0  0  0  0  0  0  0  0  0
  -30.4144   10.4692  -20.8516 H   0  0  0  0  0  0  0  0  0  0  0  0
  -29.6316    9.5292  -22.1011 H   0  0  0  0  0  0  0  0  0  0  0  0
  -33.7832    8.7709  -18.7794 H   0  0  0  0  0  0  0  0  0  0  0  0
  -32.1787    9.3044  -18.3338 H   0  0  0  0  0  0  0  0  0  0  0  0
  -34.6756    9.3423  -16.6450 H   0  0  0  0  0  0  0  0  0  0  0  0
  -33.2727   10.3017  -16.2338 H   0  0  0  0  0  0  0  0  0  0  0  0
  -31.9002    8.2537  -16.1567 H   0  0  0  0  0  0  0  0  0  0  0  0
  -33.3019    7.2966  -16.5676 H   0  0  0  0  0  0  0  0  0  0  0  0
  -33.2398    8.1425  -15.0382 H   0  0  0  0  0  0  0  0  0  0  0  0
  1  2  1  0  0  0  0
  1  6  2  0  0  0  0
  1 19  1  0  0  0  0
  2  3  1  0  0  0  0
  2 15  1  0  0  0  0
  2 20  1  0  0  0  0
  3  4  1  0  0  0  0
  3 11  1  0  0  0  0
  3 21  1  0  0  0  0
  4  5  1  0  0  0  0
  4 10  1  0  0  0  0
  4 22  1  0  0  0  0
  5  6  1  0  0  0  0
  5 23  1  0  0  0  0
  5 24  1  0  0  0  0
  6  7  1  0  0  0  0
  7  8  2  0  0  0  0
  7  9  1  0  0  0  0
 10 25  1  0  0  0  0
 10 26  1  0  0  0  0
 10 27  1  0  0  0  0
 11 12  1  0  0  0  0
 11 28  1  0  0  0  0
 12 13  1  0  0  0  0
 12 14  2  0  0  0  0
 13 29  1  0  0  0  0
 13 30  1  0  0  0  0
 13 31  1  0  0  0  0
 15 16  1  0  0  0  0
 16 17  1  0  0  0  0
 16 32  1  0  0  0  0
 16 33  1  0  0  0  0
 17 18  1  0  0  0  0
 17 34  1  0  0  0  0
 17 35  1  0  0  0  0
 18 36  1  0  0  0  0
 18 37  1  0  0  0  0
 18 38  1  0  0  0  0
M  END
> <Name>
BDB4983

> <Target>
Neuraminidase A

> <IC50_in_nM>
180

> <Kd_from_ITC>
false

> <source_organism>
Influenza A virus (A/Puerto Rico/8/34/Mount Sinai(H1N1))

> <SourceTag>
NA

> <atoms in reference ligand area>
16

> <score>
-10.894

$$$$
BDB5228
      BALL 1.4.0 (Jan  4 2012, 23:22:29)

 49 50  0999  0  0  0  0  0  0999 V2000
  -32.1863   11.8901  -19.2652 C   0  0  0  0  0  0  0  0  0  0  0  0
  -31.5632   11.4002  -20.5363 C   0  0  0  0  0  0  0  0  0  0  0  0
  -31.4126   12.6118  -21.5735 C   0  0  0  0  0  0  0  0  0  0  0  0
  -32.6767   13.5041  -21.6911 C   0  0  0  0  0  0  0  0  0  0  0  0
  -32.9638   14.1097  -20.3242 C   0  0  0  0  0  0  0  0  0  0  0  0
  -32.8441   13.0651  -19.1644 C   0  0  0  0  0  0  0  0  0  0  0  0
  -32.3671   10.1295  -20.9767 N   0  0  0  0  0  0  0  0  0  0  0  0
  -33.5729   10.4440  -21.7698 C   0  0  0  0  0  0  0  0  0  0  0  0
  -32.5568    9.0076  -20.0033 C   0  0  0  0  0  0  0  0  0  0  0  0
  -33.9515    8.3250  -20.0958 C   0  0  0  0  0  0  0  0  0  0  0  0
  -33.3452   13.4326  -17.8526 C   0  0  0  0  0  0  0  0  0  0  0  0
  -34.3652   14.1245  -17.7588 O   0  0  0  0  0  0  0  0  0  0  0  0
  -32.7463   12.9469  -16.7395 O   0  5  0  0  0  0  0  0  0  0  0  0
  -33.8509   12.8260  -22.0886 N   0  3  0  0  0  0  0  0  0  0  0  0
  -30.1908   13.5314  -21.3591 N   0  0  0  0  0  0  0  0  0  0  0  0
  -29.1288   13.5948  -20.3218 C   0  0  0  0  0  0  0  0  0  0  0  0
  -28.8047   12.5858  -19.2596 C   0  0  0  0  0  0  0  0  0  0  0  0
  -28.3797   14.5763  -20.3725 O   0  0  0  0  0  0  0  0  0  0  0  0
  -34.3396    7.7602  -18.7239 C   0  0  0  0  0  0  0  0  0  0  0  0
  -35.0927    6.7774  -16.2209 C   0  0  0  0  0  0  0  0  0  0  0  0
  -34.1929    7.8262  -16.3112 C   0  0  0  0  0  0  0  0  0  0  0  0
  -33.8193    8.3077  -17.5653 C   0  0  0  0  0  0  0  0  0  0  0  0
  -35.2491    6.7035  -18.6283 C   0  0  0  0  0  0  0  0  0  0  0  0
  -35.6164    6.2146  -17.3835 C   0  0  0  0  0  0  0  0  0  0  0  0
  -32.1059   11.2773  -18.3919 H   0  0  0  0  0  0  0  0  0  0  0  0
  -30.5447   11.0187  -20.3749 H   0  0  0  0  0  0  0  0  0  0  0  0
  -31.2063   12.1677  -22.5528 H   0  0  0  0  0  0  0  0  0  0  0  0
  -32.4874   14.2825  -22.4388 H   0  0  0  0  0  0  0  0  0  0  0  0
  -33.9629   14.5284  -20.3231 H   0  0  0  0  0  0  0  0  0  0  0  0
  -32.2692   14.9245  -20.1427 H   0  0  0  0  0  0  0  0  0  0  0  0
  -33.2533   11.0010  -22.6366 H   0  0  0  0  0  0  0  0  0  0  0  0
  -34.1956   11.0884  -21.1690 H   0  0  0  0  0  0  0  0  0  0  0  0
  -34.0812    9.5790  -22.0446 H   0  0  0  0  0  0  0  0  0  0  0  0
  -31.7821    8.2581  -20.1706 H   0  0  0  0  0  0  0  0  0  0  0  0
  -32.4138    9.3863  -18.9934 H   0  0  0  0  0  0  0  0  0  0  0  0
  -33.9134    7.5294  -20.8101 H   0  0  0  0  0  0  0  0  0  0  0  0
  -34.6829    9.0464  -20.4045 H   0  0  0  0  0  0  0  0  0  0  0  0
  -34.5779   13.2776  -21.6941 H   0  0  0  0  0  0  0  0  0  0  0  0
  -33.8202   11.8373  -21.8000 H   0  0  0  0  0  0  0  0  0  0  0  0
  -33.9605   12.8925  -23.1032 H   0  0  0  0  0  0  0  0  0  0  0  0
  -30.1160   14.2494  -22.0374 H   0  0  0  0  0  0  0  0  0  0  0  0
  -28.7053   11.6694  -19.8926 H   0  0  0  0  0  0  0  0  0  0  0  0
  -29.8174   12.4597  -18.8025 H   0  0  0  0  0  0  0  0  0  0  0  0
  -28.1016   12.7740  -18.6789 H   0  0  0  0  0  0  0  0  0  0  0  0
  -35.3846    6.4008  -15.2629 H   0  0  0  0  0  0  0  0  0  0  0  0
  -33.7867    8.2645  -15.4236 H   0  0  0  0  0  0  0  0  0  0  0  0
  -33.1187    9.1138  -17.6322 H   0  0  0  0  0  0  0  0  0  0  0  0
  -35.6622    6.2715  -19.5157 H   0  0  0  0  0  0  0  0  0  0  0  0
  -36.3066    5.3998  -17.3152 H   0  0  0  0  0  0  0  0  0  0  0  0
  1  2  1  0  0  0  0
  1  6  2  0  0  0  0
  1 25  1  0  0  0  0
  2  3  1  0  0  0  0
  2  7  1  0  0  0  0
  2 26  1  0  0  0  0
  3  4  1  0  0  0  0
  3 15  1  0  0  0  0
  3 27  1  0  0  0  0
  4  5  1  0  0  0  0
  4 14  1  0  0  0  0
  4 28  1  0  0  0  0
  5  6  1  0  0  0  0
  5 29  1  0  0  0  0
  5 30  1  0  0  0  0
  6 11  1  0  0  0  0
  7  9  1  0  0  0  0
  7  8  1  0  0  0  0
  8 31  1  0  0  0  0
  8 32  1  0  0  0  0
  8 33  1  0  0  0  0
  9 10  1  0  0  0  0
  9 34  1  0  0  0  0
  9 35  1  0  0  0  0
 10 19  1  0  0  0  0
 10 36  1  0  0  0  0
 10 37  1  0  0  0  0
 11 12  2  0  0  0  0
 11 13  1  0  0  0  0
 14 38  1  0  0  0  0
 14 39  1  0  0  0  0
 14 40  1  0  0  0  0
 15 16  1  0  0  0  0
 15 41  1  0  0  0  0
 16 17  1  0  0  0  0
 16 18  2  0  0  0  0
 17 42  1  0  0  0  0
 17 43  1  0  0  0  0
 17 44  1  0  0  0  0
 19 22  2  0  0  0  0
 19 23  1  0  0  0  0
 20 21  2  0  0  0  0
 20 24  1  0  0  0  0
 20 45  1  0  0  0  0
 21 22  1  0  0  0  0
 21 46  1  0  0  0  0
 22 47  1  0  0  0  0
 23 24  2  0  0  0  0
 23 48  1  0  0  0  0
 24 49  1  0  0  0  0
M  END
> <Name>
BDB5228

> <Target>
Neuraminidase A

> <IC50_in_nM>
100

> <Kd_from_ITC>
false

> <source_organism>
Influenza A virus (A/Puerto Rico/8/34(H1N1))

> <SourceTag>
NA

> <atoms in reference ligand area>
27

> <score>
-10.6525

$$$$
BDB5023
      BALL 1.4.0 (Jan  4 2012, 23:22:29)

 50 50  0999  0  0  0  0  0  0999 V2000
  -30.0881    7.4546  -23.1473 C   0  0  0  0  0  0  0  0  0  0  0  0
  -31.3418    7.3508  -21.0408 C   0  0  0  0  0  0  0  0  0  0  0  0
  -30.9080    6.4667  -22.2435 C   0  0  0  0  0  0  0  0  0  0  0  0
  -32.1590    6.1261  -23.0059 C   0  0  0  0  0  0  0  0  0  0  0  0
  -32.2348    6.3797  -24.2132 O   0  0  0  0  0  0  0  0  0  0  0  0
  -33.2046    5.5403  -22.3672 O   0  5  0  0  0  0  0  0  0  0  0  0
  -30.2104    8.8018  -22.4122 C   0  0  0  0  0  0  0  0  0  0  0  0
  -31.5504    8.6932  -21.7283 C   0  0  0  0  0  0  0  0  0  0  0  0
  -31.7694    9.8571  -20.6983 C   0  0  0  0  0  0  0  0  0  0  0  0
  -30.5135   10.2350  -20.1057 N   0  0  0  0  0  0  0  0  0  0  0  0
  -30.4342   11.2662  -19.1531 C   0  0  0  0  0  0  0  0  0  0  0  0
  -31.6767   11.9744  -18.6815 C   0  0  0  0  0  0  0  0  0  0  0  0
  -29.3363   11.5856  -18.6898 O   0  0  0  0  0  0  0  0  0  0  0  0
  -33.8324   10.5919  -22.0074 C   0  0  0  0  0  0  0  0  0  0  0  0
  -34.7016    9.7289  -21.0698 C   0  0  0  0  0  0  0  0  0  0  0  0
  -30.0982    9.9397  -23.3022 N   0  0  0  0  0  0  0  0  0  0  0  0
  -30.4702    9.8841  -24.6649 C   0  0  0  0  0  0  0  0  0  0  0  0
  -30.9233    8.7968  -25.1411 N   0  3  0  0  0  0  0  0  0  0  0  0
  -30.3505   11.0012  -25.5018 N   0  0  0  0  0  0  0  0  0  0  0  0
  -32.5934   11.1053  -21.2457 C   0  0  0  0  0  0  0  0  0  0  0  0
  -31.8056   12.0987  -22.1559 C   0  0  0  0  0  0  0  0  0  0  0  0
  -30.6867   12.8253  -21.3786 C   0  0  0  0  0  0  0  0  0  0  0  0
  -30.5457    7.5230  -24.1453 H   0  0  0  0  0  0  0  0  0  0  0  0
  -29.0352    7.1397  -23.1935 H   0  0  0  0  0  0  0  0  0  0  0  0
  -32.2874    6.9828  -20.6163 H   0  0  0  0  0  0  0  0  0  0  0  0
  -30.5296    7.4180  -20.3020 H   0  0  0  0  0  0  0  0  0  0  0  0
  -30.3581    5.5587  -21.9549 H   0  0  0  0  0  0  0  0  0  0  0  0
  -29.3930    8.9826  -21.6988 H   0  0  0  0  0  0  0  0  0  0  0  0
  -32.4335    8.7611  -22.3807 H   0  0  0  0  0  0  0  0  0  0  0  0
  -32.4276    9.4517  -19.9157 H   0  0  0  0  0  0  0  0  0  0  0  0
  -29.6547    9.7396  -20.3852 H   0  0  0  0  0  0  0  0  0  0  0  0
  -32.3957   11.1683  -18.4735 H   0  0  0  0  0  0  0  0  0  0  0  0
  -32.0449   12.5120  -19.5677 H   0  0  0  0  0  0  0  0  0  0  0  0
  -31.5191   12.6367  -17.8175 H   0  0  0  0  0  0  0  0  0  0  0  0
  -34.4219   11.4483  -22.3668 H   0  0  0  0  0  0  0  0  0  0  0  0
  -33.5097    9.9858  -22.8668 H   0  0  0  0  0  0  0  0  0  0  0  0
  -35.6650    9.5177  -21.5569 H   0  0  0  0  0  0  0  0  0  0  0  0
  -34.8795   10.2748  -20.1314 H   0  0  0  0  0  0  0  0  0  0  0  0
  -34.1844    8.7828  -20.8522 H   0  0  0  0  0  0  0  0  0  0  0  0
  -29.7319   10.8260  -22.9263 H   0  0  0  0  0  0  0  0  0  0  0  0
  -31.0199    7.9632  -24.5437 H   0  0  0  0  0  0  0  0  0  0  0  0
  -31.1959    8.7506  -26.1333 H   0  0  0  0  0  0  0  0  0  0  0  0
  -30.6333   10.9168  -26.4887 H   0  0  0  0  0  0  0  0  0  0  0  0
  -29.9860   11.8938  -25.1396 H   0  0  0  0  0  0  0  0  0  0  0  0
  -32.8599   11.6898  -20.3528 H   0  0  0  0  0  0  0  0  0  0  0  0
  -32.5024   12.8449  -22.5652 H   0  0  0  0  0  0  0  0  0  0  0  0
  -31.3595   11.5437  -22.9943 H   0  0  0  0  0  0  0  0  0  0  0  0
  -29.9970   12.0702  -20.9736 H   0  0  0  0  0  0  0  0  0  0  0  0
  -31.1438   13.3748  -20.5425 H   0  0  0  0  0  0  0  0  0  0  0  0
  -30.1455   13.5193  -22.0386 H   0  0  0  0  0  0  0  0  0  0  0  0
  1  7  1  0  0  0  0
  1  3  1  0  0  0  0
  1 23  1  0  0  0  0
  1 24  1  0  0  0  0
  2  8  1  0  0  0  0
  2  3  1  0  0  0  0
  2 25  1  0  0  0  0
  2 26  1  0  0  0  0
  3  4  1  0  0  0  0
  3 27  1  0  0  0  0
  4  6  1  0  0  0  0
  4  5  2  0  0  0  0
  7  8  1  0  0  0  0
  7 16  1  0  0  0  0
  7 28  1  0  0  0  0
  8  9  1  0  0  0  0
  8 29  1  0  0  0  0
  9 10  1  0  0  0  0
  9 20  1  0  0  0  0
  9 30  1  0  0  0  0
 10 11  1  0  0  0  0
 10 31  1  0  0  0  0
 11 12  1  0  0  0  0
 11 13  2  0  0  0  0
 12 32  1  0  0  0  0
 12 33  1  0  0  0  0
 12 34  1  0  0  0  0
 14 20  1  0  0  0  0
 14 15  1  0  0  0  0
 14 35  1  0  0  0  0
 14 36  1  0  0  0  0
 15 37  1  0  0  0  0
 15 38  1  0  0  0  0
 15 39  1  0  0  0  0
 16 17  1  0  0  0  0
 16 40  1  0  0  0  0
 17 18  2  0  0  0  0
 17 19  1  0  0  0  0
 18 41  1  0  0  0  0
 18 42  1  0  0  0  0
 19 43  1  0  0  0  0
 19 44  1  0  0  0  0
 20 21  1  0  0  0  0
 20 45  1  0  0  0  0
 21 22  1  0  0  0  0
 21 46  1  0  0  0  0
 21 47  1  0  0  0  0
 22 48  1  0  0  0  0
 22 49  1  0  0  0  0
 22 50  1  0  0  0  0
M  END
> <Name>
BDB5023

> <Target>
Neuraminidase A

> <IC50_in_nM>
1

> <Kd_from_ITC>
false

> <source_organism>
Influenza A virus (A/Singapore/1/57(H2N2))

> <SourceTag>
NA

> <atoms in reference ligand area>
18

> <score>
-10.4751

$$$$
BDB4997
      BALL 1.4.0 (Jan  4 2012, 23:22:29)

 59 59  0999  0  0  0  0  0  0999 V2000
  -35.9288    8.0991  -13.7260 C   0  0  0  0  0  0  0  0  0  0  0  0
  -35.4830    9.5313  -13.8314 C   0  0  0  0  0  0  0  0  0  0  0  0
  -36.5393   10.5171  -13.1346 C   0  0  0  0  0  0  0  0  0  0  0  0
  -38.0423   10.1329  -13.3667 C   0  0  0  0  0  0  0  0  0  0  0  0
  -38.2619    8.7031  -12.8645 C   0  0  0  0  0  0  0  0  0  0  0  0
  -37.1639    7.7165  -13.3397 C   0  0  0  0  0  0  0  0  0  0  0  0
  -37.4164    6.2838  -13.2735 C   0  0  0  0  0  0  0  0  0  0  0  0
  -36.8833    5.6058  -12.3920 O   0  0  0  0  0  0  0  0  0  0  0  0
  -38.2608    5.7034  -14.1623 O   0  5  0  0  0  0  0  0  0  0  0  0
  -38.5109   10.1909  -14.7093 N   0  3  0  0  0  0  0  0  0  0  0  0
  -36.3822   10.6998  -11.6187 N   0  0  0  0  0  0  0  0  0  0  0  0
  -36.4652    9.7614  -10.4890 C   0  0  0  0  0  0  0  0  0  0  0  0
  -36.3993    8.2633  -10.5441 C   0  0  0  0  0  0  0  0  0  0  0  0
  -36.5258   10.2667   -9.3618 O   0  0  0  0  0  0  0  0  0  0  0  0
  -35.0509    9.7580  -15.2804 O   0  0  0  0  0  0  0  0  0  0  0  0
  -33.6758   10.0878  -15.6111 C   0  0  0  0  0  0  0  0  0  0  0  0
  -32.9914    8.9132  -16.3683 C   0  0  0  0  0  0  0  0  0  0  0  0
  -33.7497    8.5881  -17.6685 C   0  0  0  0  0  0  0  0  0  0  0  0
  -33.5803   11.3038  -16.5476 C   0  0  0  0  0  0  0  0  0  0  0  0
  -32.0609   11.5642  -16.6848 C   0  0  0  0  0  0  0  0  0  0  0  0
  -31.7059   12.6097  -17.7473 C   0  0  0  0  0  0  0  0  0  0  0  0
  -30.1652   12.7042  -17.7586 C   0  0  0  0  0  0  0  0  0  0  0  0
  -29.6763   13.8017  -18.7131 C   0  0  0  0  0  0  0  0  0  0  0  0
  -28.1342   13.8235  -18.6809 C   0  0  0  0  0  0  0  0  0  0  0  0
  -27.6063   14.8773  -19.6691 C   0  0  0  0  0  0  0  0  0  0  0  0
  -35.2218    7.3349  -13.9729 H   0  0  0  0  0  0  0  0  0  0  0  0
  -34.5396    9.6862  -13.2882 H   0  0  0  0  0  0  0  0  0  0  0  0
  -36.3457   11.5277  -13.5179 H   0  0  0  0  0  0  0  0  0  0  0  0
  -38.6656   10.8367  -12.7998 H   0  0  0  0  0  0  0  0  0  0  0  0
  -39.2286    8.3498  -13.2078 H   0  0  0  0  0  0  0  0  0  0  0  0
  -38.2891    8.7081  -11.7771 H   0  0  0  0  0  0  0  0  0  0  0  0
  -39.3683    9.7333  -14.7761 H   0  0  0  0  0  0  0  0  0  0  0  0
  -37.8091    9.7723  -15.3310 H   0  0  0  0  0  0  0  0  0  0  0  0
  -38.6521   11.1712  -14.9697 H   0  0  0  0  0  0  0  0  0  0  0  0
  -36.2526   11.6444  -11.3422 H   0  0  0  0  0  0  0  0  0  0  0  0
  -35.4537    8.1261  -11.1177 H   0  0  0  0  0  0  0  0  0  0  0  0
  -37.1887    8.0564  -11.3030 H   0  0  0  0  0  0  0  0  0  0  0  0
  -36.4674    7.7978   -9.7311 H   0  0  0  0  0  0  0  0  0  0  0  0
  -33.1335   10.3511  -14.7051 H   0  0  0  0  0  0  0  0  0  0  0  0
  -32.9765    8.0426  -15.7384 H   0  0  0  0  0  0  0  0  0  0  0  0
  -31.9762    9.1847  -16.6060 H   0  0  0  0  0  0  0  0  0  0  0  0
  -33.7606    9.4609  -18.2912 H   0  0  0  0  0  0  0  0  0  0  0  0
  -34.7588    8.3204  -17.4239 H   0  0  0  0  0  0  0  0  0  0  0  0
  -33.2738    7.7853  -18.1767 H   0  0  0  0  0  0  0  0  0  0  0  0
  -34.0440   12.1332  -16.1044 H   0  0  0  0  0  0  0  0  0  0  0  0
  -33.9869   11.0639  -17.4870 H   0  0  0  0  0  0  0  0  0  0  0  0
  -31.6671   11.8902  -15.7210 H   0  0  0  0  0  0  0  0  0  0  0  0
  -31.5599   10.6291  -16.9277 H   0  0  0  0  0  0  0  0  0  0  0  0
  -32.1175   13.5445  -17.4808 H   0  0  0  0  0  0  0  0  0  0  0  0
  -32.0505   12.2879  -18.6950 H   0  0  0  0  0  0  0  0  0  0  0  0
  -29.8133   12.9186  -16.7593 H   0  0  0  0  0  0  0  0  0  0  0  0
  -29.7515   11.7571  -18.0651 H   0  0  0  0  0  0  0  0  0  0  0  0
  -30.0521   14.7459  -18.3949 H   0  0  0  0  0  0  0  0  0  0  0  0
  -30.0097   13.5879  -19.7046 H   0  0  0  0  0  0  0  0  0  0  0  0
  -27.7573   12.8592  -18.9546 H   0  0  0  0  0  0  0  0  0  0  0  0
  -27.8006   14.0657  -17.6894 H   0  0  0  0  0  0  0  0  0  0  0  0
  -27.9828   15.8409  -19.3946 H   0  0  0  0  0  0  0  0  0  0  0  0
  -27.9395   14.6352  -20.6570 H   0  0  0  0  0  0  0  0  0  0  0  0
  -26.5366   14.8901  -19.6446 H   0  0  0  0  0  0  0  0  0  0  0  0
  1  2  1  0  0  0  0
  1  6  2  0  0  0  0
  1 26  1  0  0  0  0
  2  3  1  0  0  0  0
  2 15  1  0  0  0  0
  2 27  1  0  0  0  0
  3  4  1  0  0  0  0
  3 11  1  0  0  0  0
  3 28  1  0  0  0  0
  4  5  1  0  0  0  0
  4 10  1  0  0  0  0
  4 29  1  0  0  0  0
  5  6  1  0  0  0  0
  5 30  1  0  0  0  0
  5 31  1  0  0  0  0
  6  7  1  0  0  0  0
  7  8  2  0  0  0  0
  7  9  1  0  0  0  0
 10 32  1  0  0  0  0
 10 33  1  0  0  0  0
 10 34  1  0  0  0  0
 11 12  1  0  0  0  0
 11 35  1  0  0  0  0
 12 13  1  0  0  0  0
 12 14  2  0  0  0  0
 13 36  1  0  0  0  0
 13 37  1  0  0  0  0
 13 38  1  0  0  0  0
 15 16  1  0  0  0  0
 16 19  1  0  0  0  0
 16 17  1  0  0  0  0
 16 39  1  0  0  0  0
 17 18  1  0  0  0  0
 17 40  1  0  0  0  0
 17 41  1  0  0  0  0
 18 42  1  0  0  0  0
 18 43  1  0  0  0  0
 18 44  1  0  0  0  0
 19 20  1  0  0  0  0
 19 45  1  0  0  0  0
 19 46  1  0  0  0  0
 20 21  1  0  0  0  0
 20 47  1  0  0  0  0
 20 48  1  0  0  0  0
 21 22  1  0  0  0  0
 21 49  1  0  0  0  0
 21 50  1  0  0  0  0
 22 23  1  0  0  0  0
 22 51  1  0  0  0  0
 22 52  1  0  0  0  0
 23 24  1  0  0  0  0
 23 53  1  0  0  0  0
 23 54  1  0  0  0  0
 24 25  1  0  0  0  0
 24 55  1  0  0  0  0
 24 56  1  0  0  0  0
 25 57  1  0  0  0  0
 25 58  1  0  0  0  0
 25 59  1  0  0  0  0
M  END
> <Name>
BDB4997

> <Target>
Neuraminidase A

> <IC50_in_nM>
1

> <Kd_from_ITC>
false

> <source_organism>
Influenza A virus (A/Puerto Rico/8/34/Mount Sinai(H1N1))

> <SourceTag>
NA

> <atoms in reference ligand area>
10

> <score>
-10.4674

$$$$
BDB5015
      BALL 1.4.0 (Jan  4 2012, 23:22:29)

 44 44  0999  0  0  0  0  0  0999 V2000
  -30.6256   10.5939  -20.3826 C   0  0  0  0  0  0  0  0  0  0  0  0
  -30.4633   10.3791  -21.9368 C   0  0  0  0  0  0  0  0  0  0  0  0
  -30.4229   11.7049  -22.7582 C   0  0  0  0  0  0  0  0  0  0  0  0
  -29.2563   12.5459  -22.2512 C   0  0  0  0  0  0  0  0  0  0  0  0
  -29.1958   12.6430  -20.6993 C   0  0  0  0  0  0  0  0  0  0  0  0
  -28.3754   13.7222  -20.1185 C   0  0  0  0  0  0  0  0  0  0  0  0
  -27.8295   14.5374  -20.8728 O   0  0  0  0  0  0  0  0  0  0  0  0
  -28.1591   13.8074  -18.7792 O   0  5  0  0  0  0  0  0  0  0  0  0
  -29.2633    9.5349  -22.3673 N   0  0  0  0  0  0  0  0  0  0  0  0
  -28.8818    8.9337  -23.6513 C   0  0  0  0  0  0  0  0  0  0  0  0
  -29.4534    9.2393  -25.0038 C   0  0  0  0  0  0  0  0  0  0  0  0
  -27.9387    8.1347  -23.6213 O   0  0  0  0  0  0  0  0  0  0  0  0
  -31.5963   12.5278  -22.7009 N   0  3  0  0  0  0  0  0  0  0  0  0
  -32.0313   10.7282  -19.8638 O   0  0  0  0  0  0  0  0  0  0  0  0
  -32.8536   11.8335  -20.2767 C   0  0  0  0  0  0  0  0  0  0  0  0
  -33.2990   12.6483  -19.0426 C   0  0  0  0  0  0  0  0  0  0  0  0
  -34.3260   13.7220  -19.4697 C   0  0  0  0  0  0  0  0  0  0  0  0
  -34.1098   11.3096  -21.0280 C   0  0  0  0  0  0  0  0  0  0  0  0
  -34.8801   10.2988  -20.1646 C   0  0  0  0  0  0  0  0  0  0  0  0
  -29.7935   11.7458  -19.8708 C   0  0  0  0  0  0  0  0  0  0  0  0
  -29.6578   11.8720  -18.5446 F   0  0  0  0  0  0  0  0  0  0  0  0
  -30.3083    9.6522  -19.9134 H   0  0  0  0  0  0  0  0  0  0  0  0
  -31.3147    9.7675  -22.2633 H   0  0  0  0  0  0  0  0  0  0  0  0
  -30.2799   11.4446  -23.8148 H   0  0  0  0  0  0  0  0  0  0  0  0
  -29.3324   13.5466  -22.6663 H   0  0  0  0  0  0  0  0  0  0  0  0
  -28.3242   12.1185  -22.6174 H   0  0  0  0  0  0  0  0  0  0  0  0
  -28.6368    9.3254  -21.6268 H   0  0  0  0  0  0  0  0  0  0  0  0
  -29.8611   10.2606  -24.8225 H   0  0  0  0  0  0  0  0  0  0  0  0
  -30.3633    8.5961  -24.9864 H   0  0  0  0  0  0  0  0  0  0  0  0
  -28.8849    9.1409  -25.7452 H   0  0  0  0  0  0  0  0  0  0  0  0
  -31.9762   12.5006  -21.7948 H   0  0  0  0  0  0  0  0  0  0  0  0
  -32.2754   12.2085  -23.4042 H   0  0  0  0  0  0  0  0  0  0  0  0
  -31.3286   13.4970  -22.9016 H   0  0  0  0  0  0  0  0  0  0  0  0
  -32.2844   12.4606  -20.9307 H   0  0  0  0  0  0  0  0  0  0  0  0
  -32.4476   13.1254  -18.6030 H   0  0  0  0  0  0  0  0  0  0  0  0
  -33.7485   11.9908  -18.3234 H   0  0  0  0  0  0  0  0  0  0  0  0
  -35.1774   13.2452  -19.9084 H   0  0  0  0  0  0  0  0  0  0  0  0
  -33.8776   14.3776  -20.1870 H   0  0  0  0  0  0  0  0  0  0  0  0
  -34.6338   14.2862  -18.6127 H   0  0  0  0  0  0  0  0  0  0  0  0
  -33.8065   10.8358  -21.9441 H   0  0  0  0  0  0  0  0  0  0  0  0
  -34.7552   12.1392  -21.2667 H   0  0  0  0  0  0  0  0  0  0  0  0
  -35.1785   10.7788  -19.2531 H   0  0  0  0  0  0  0  0  0  0  0  0
  -34.2308    9.4779  -19.9305 H   0  0  0  0  0  0  0  0  0  0  0  0
  -35.7349    9.9487  -20.6881 H   0  0  0  0  0  0  0  0  0  0  0  0
  1 20  1  0  0  0  0
  1  2  1  0  0  0  0
  1 14  1  0  0  0  0
  1 22  1  0  0  0  0
  2  3  1  0  0  0  0
  2  9  1  0  0  0  0
  2 23  1  0  0  0  0
  3  4  1  0  0  0  0
  3 13  1  0  0  0  0
  3 24  1  0  0  0  0
  4  5  1  0  0  0  0
  4 25  1  0  0  0  0
  4 26  1  0  0  0  0
  5 20  2  0  0  0  0
  5  6  1  0  0  0  0
  6  7  2  0  0  0  0
  6  8  1  0  0  0  0
  9 10  1  0  0  0  0
  9 27  1  0  0  0  0
 10 11  1  0  0  0  0
 10 12  2  0  0  0  0
 11 28  1  0  0  0  0
 11 29  1  0  0  0  0
 11 30  1  0  0  0  0
 13 31  1  0  0  0  0
 13 32  1  0  0  0  0
 13 33  1  0  0  0  0
 14 15  1  0  0  0  0
 15 16  1  0  0  0  0
 15 18  1  0  0  0  0
 15 34  1  0  0  0  0
 16 17  1  0  0  0  0
 16 35  1  0  0  0  0
 16 36  1  0  0  0  0
 17 37  1  0  0  0  0
 17 38  1  0  0  0  0
 17 39  1  0  0  0  0
 18 19  1  0  0  0  0
 18 40  1  0  0  0  0
 18 41  1  0  0  0  0
 19 42  1  0  0  0  0
 19 43  1  0  0  0  0
 19 44  1  0  0  0  0
 20 21  1  0  0  0  0
M  END
> <Name>
BDB5015

> <Target>
Neuraminidase A

> <IC50_in_nM>
3

> <Kd_from_ITC>
false

> <source_organism>
Influenza A virus (A/Puerto Rico/8/34/Mount Sinai(H1N1))

> <SourceTag>
NA

> <atoms in reference ligand area>
28

> <score>
-10.1167

$$$$
BDB4965
      BALL 1.4.0 (Jan  4 2012, 23:22:29)

 59 60  0999  0  0  0  0  0  0999 V2000
  -31.6483   10.1623  -20.2796 C   0  0  0  0  0  0  0  0  0  0  0  0
  -31.6133   10.5082  -23.0099 C   0  0  0  0  0  0  0  0  0  0  0  0
  -31.3129   11.7255  -22.1537 C   0  0  0  0  0  0  0  0  0  0  0  0
  -31.6657   11.4163  -20.7438 C   0  0  0  0  0  0  0  0  0  0  0  0
  -31.2850    9.0467  -21.0815 O   0  0  0  0  0  0  0  0  0  0  0  0
  -32.0551    9.9235  -18.8939 C   0  0  0  0  0  0  0  0  0  0  0  0
  -32.0639    8.7730  -18.4413 O   0  0  0  0  0  0  0  0  0  0  0  0
  -32.4232   10.9665  -18.1050 O   0  5  0  0  0  0  0  0  0  0  0  0
  -30.9069    8.1226  -23.2857 C   0  0  0  0  0  0  0  0  0  0  0  0
  -30.6287    8.2341  -24.4848 O   0  0  0  0  0  0  0  0  0  0  0  0
  -30.8100    9.3722  -22.4068 C   0  0  0  0  0  0  0  0  0  0  0  0
  -31.1507   10.7728  -24.3791 N   0  0  0  0  0  0  0  0  0  0  0  0
  -29.8120   11.1168  -24.7761 C   0  0  0  0  0  0  0  0  0  0  0  0
  -28.6603   11.2570  -23.8000 C   0  0  0  0  0  0  0  0  0  0  0  0
  -29.5884   11.3081  -25.9764 O   0  0  0  0  0  0  0  0  0  0  0  0
  -32.0717   12.8900  -22.6315 N   0  3  0  0  0  0  0  0  0  0  0  0
  -31.7297    5.8591  -23.7872 C   0  0  0  0  0  0  0  0  0  0  0  0
  -32.3932    4.6416  -23.1089 C   0  0  0  0  0  0  0  0  0  0  0  0
  -32.8220    3.6499  -24.1499 C   0  0  0  0  0  0  0  0  0  0  0  0
  -32.9100    2.9472  -26.4501 C   0  0  0  0  0  0  0  0  0  0  0  0
  -32.5065    3.8638  -25.4864 C   0  0  0  0  0  0  0  0  0  0  0  0
  -33.5403    2.5205  -23.7768 C   0  0  0  0  0  0  0  0  0  0  0  0
  -33.9437    1.6040  -24.7406 C   0  0  0  0  0  0  0  0  0  0  0  0
  -31.3165    6.8389  -22.8105 N   0  0  0  0  0  0  0  0  0  0  0  0
  -31.3454    6.4958  -21.4023 C   0  0  0  0  0  0  0  0  0  0  0  0
  -32.7608    6.7195  -20.8185 C   0  0  0  0  0  0  0  0  0  0  0  0
  -32.7693    6.3135  -19.3344 C   0  0  0  0  0  0  0  0  0  0  0  0
  -33.6284    1.8175  -26.0771 C   0  0  0  0  0  0  0  0  0  0  0  0
  -32.5931    3.1613  -27.7960 O   0  0  0  0  0  0  0  0  0  0  0  0
  -32.2190    1.9336  -28.4360 C   0  0  0  0  0  0  0  0  0  0  0  0
  -32.6865   10.2688  -23.0405 H   0  0  0  0  0  0  0  0  0  0  0  0
  -30.2426   11.9703  -22.2208 H   0  0  0  0  0  0  0  0  0  0  0  0
  -31.9472   12.2367  -20.0674 H   0  0  0  0  0  0  0  0  0  0  0  0
  -29.7632    9.7043  -22.3446 H   0  0  0  0  0  0  0  0  0  0  0  0
  -31.8544   10.7052  -25.1283 H   0  0  0  0  0  0  0  0  0  0  0  0
  -28.5314   10.2370  -23.4085 H   0  0  0  0  0  0  0  0  0  0  0  0
  -29.0918   11.8484  -22.9790 H   0  0  0  0  0  0  0  0  0  0  0  0
  -27.7367   11.6883  -24.2134 H   0  0  0  0  0  0  0  0  0  0  0  0
  -32.7558   12.5799  -23.3363 H   0  0  0  0  0  0  0  0  0  0  0  0
  -31.4211   13.5617  -23.0633 H   0  0  0  0  0  0  0  0  0  0  0  0
  -32.5619   13.3376  -21.8441 H   0  0  0  0  0  0  0  0  0  0  0  0
  -30.8514    5.5220  -24.3572 H   0  0  0  0  0  0  0  0  0  0  0  0
  -32.4459    6.3212  -24.4827 H   0  0  0  0  0  0  0  0  0  0  0  0
  -33.2723    4.9739  -22.5373 H   0  0  0  0  0  0  0  0  0  0  0  0
  -31.6738    4.1661  -22.4259 H   0  0  0  0  0  0  0  0  0  0  0  0
  -31.9379    4.7580  -25.7813 H   0  0  0  0  0  0  0  0  0  0  0  0
  -33.7897    2.3518  -22.7189 H   0  0  0  0  0  0  0  0  0  0  0  0
  -34.5123    0.7098  -24.4454 H   0  0  0  0  0  0  0  0  0  0  0  0
  -30.6245    7.1242  -20.8589 H   0  0  0  0  0  0  0  0  0  0  0  0
  -31.0640    5.4395  -21.2793 H   0  0  0  0  0  0  0  0  0  0  0  0
  -33.4878    6.1056  -21.3704 H   0  0  0  0  0  0  0  0  0  0  0  0
  -33.0318    7.7817  -20.9095 H   0  0  0  0  0  0  0  0  0  0  0  0
  -31.9267    6.7941  -18.8156 H   0  0  0  0  0  0  0  0  0  0  0  0
  -32.6764    5.2207  -19.2503 H   0  0  0  0  0  0  0  0  0  0  0  0
  -33.7138    6.6359  -18.8721 H   0  0  0  0  0  0  0  0  0  0  0  0
  -33.9477    1.0921  -26.8400 H   0  0  0  0  0  0  0  0  0  0  0  0
  -33.0573    1.2248  -28.3648 H   0  0  0  0  0  0  0  0  0  0  0  0
  -31.3458    1.5124  -27.9161 H   0  0  0  0  0  0  0  0  0  0  0  0
  -31.9728    2.1166  -29.4923 H   0  0  0  0  0  0  0  0  0  0  0  0
  1  5  1  0  0  0  0
  1  4  2  0  0  0  0
  1  6  1  0  0  0  0
  2 11  1  0  0  0  0
  2  3  1  0  0  0  0
  2 12  1  0  0  0  0
  2 31  1  0  0  0  0
  3  4  1  0  0  0  0
  3 16  1  0  0  0  0
  3 32  1  0  0  0  0
  4 33  1  0  0  0  0
  5 11  1  0  0  0  0
  6  7  2  0  0  0  0
  6  8  1  0  0  0  0
  9 11  1  0  0  0  0
  9 24  1  0  0  0  0
  9 10  2  0  0  0  0
 11 34  1  0  0  0  0
 12 13  1  0  0  0  0
 12 35  1  0  0  0  0
 13 14  1  0  0  0  0
 13 15  2  0  0  0  0
 14 36  1  0  0  0  0
 14 37  1  0  0  0  0
 14 38  1  0  0  0  0
 16 39  1  0  0  0  0
 16 40  1  0  0  0  0
 16 41  1  0  0  0  0
 17 24  1  0  0  0  0
 17 18  1  0  0  0  0
 17 42  1  0  0  0  0
 17 43  1  0  0  0  0
 18 19  1  0  0  0  0
 18 44  1  0  0  0  0
 18 45  1  0  0  0  0
 19 21  2  0  0  0  0
 19 22  1  0  0  0  0
 20 28  2  0  0  0  0
 20 21  1  0  0  0  0
 20 29  1  0  0  0  0
 21 46  1  0  0  0  0
 22 23  2  0  0  0  0
 22 47  1  0  0  0  0
 23 28  1  0  0  0  0
 23 48  1  0  0  0  0
 24 25  1  0  0  0  0
 25 26  1  0  0  0  0
 25 49  1  0  0  0  0
 25 50  1  0  0  0  0
 26 27  1  0  0  0  0
 26 51  1  0  0  0  0
 26 52  1  0  0  0  0
 27 53  1  0  0  0  0
 27 54  1  0  0  0  0
 27 55  1  0  0  0  0
 28 56  1  0  0  0  0
 29 30  1  0  0  0  0
 30 57  1  0  0  0  0
 30 58  1  0  0  0  0
 30 59  1  0  0  0  0
M  END
> <Name>
BDB4965

> <Target>
Neuraminidase A

> <IC50_in_nM>
5

> <Kd_from_ITC>
false

> <source_organism>
Influenza A virus (A/Singapore/1/57(H2N2))

> <SourceTag>
NA

> <atoms in reference ligand area>
18

> <score>
-9.92914

$$$$
BDB5007
      BALL 1.4.0 (Jan  4 2012, 23:22:29)

 58 60  0999  0  0  0  0  0  0999 V2000
  -32.0158    8.8799  -20.8319 C   0  0  0  0  0  0  0  0  0  0  0  0
  -30.8999    8.4050  -21.7058 C   0  0  0  0  0  0  0  0  0  0  0  0
  -30.2147    9.5527  -22.4786 C   0  0  0  0  0  0  0  0  0  0  0  0
  -31.3384   10.4135  -23.1695 C   0  0  0  0  0  0  0  0  0  0  0  0
  -32.2029   11.0667  -22.0909 C   0  0  0  0  0  0  0  0  0  0  0  0
  -32.6342   10.0535  -21.0110 C   0  0  0  0  0  0  0  0  0  0  0  0
  -33.6622   10.4257  -20.0530 C   0  0  0  0  0  0  0  0  0  0  0  0
  -34.4422    9.5662  -19.6248 O   0  0  0  0  0  0  0  0  0  0  0  0
  -33.7090   11.6875  -19.5691 O   0  5  0  0  0  0  0  0  0  0  0  0
  -32.2555    9.6539  -24.0378 N   0  3  0  0  0  0  0  0  0  0  0  0
  -29.2167   10.4565  -21.7755 N   0  0  0  0  0  0  0  0  0  0  0  0
  -28.9640   11.8996  -21.8390 C   0  0  0  0  0  0  0  0  0  0  0  0
  -29.8216   12.9512  -22.4729 C   0  0  0  0  0  0  0  0  0  0  0  0
  -27.9518   12.2994  -21.2545 O   0  0  0  0  0  0  0  0  0  0  0  0
  -31.4726    7.6037  -22.7782 O   0  0  0  0  0  0  0  0  0  0  0  0
  -32.5233    6.7167  -22.3904 C   0  0  0  0  0  0  0  0  0  0  0  0
  -33.1822    6.0700  -23.6741 C   0  0  0  0  0  0  0  0  0  0  0  0
  -34.1672    6.9835  -24.5092 C   0  0  0  0  0  0  0  0  0  0  0  0
  -34.8589    6.0519  -25.4959 C   0  0  0  0  0  0  0  0  0  0  0  0
  -36.2609    4.3089  -27.1553 C   0  0  0  0  0  0  0  0  0  0  0  0
  -36.0019    3.9615  -25.8503 C   0  0  0  0  0  0  0  0  0  0  0  0
  -35.3059    4.8294  -25.0176 C   0  0  0  0  0  0  0  0  0  0  0  0
  -35.1030    6.4041  -26.8234 C   0  0  0  0  0  0  0  0  0  0  0  0
  -35.8041    5.5378  -27.6571 C   0  0  0  0  0  0  0  0  0  0  0  0
  -37.0399    3.3980  -27.9917 C   0  0  0  0  0  0  0  0  0  0  0  0
  -38.4957    1.5828  -29.5114 C   0  0  0  0  0  0  0  0  0  0  0  0
  -37.3955    1.1464  -28.7819 C   0  0  0  0  0  0  0  0  0  0  0  0
  -36.6685    2.0466  -28.0205 C   0  0  0  0  0  0  0  0  0  0  0  0
  -38.1290    3.8293  -28.7172 C   0  0  0  0  0  0  0  0  0  0  0  0
  -38.8632    2.9224  -29.4802 C   0  0  0  0  0  0  0  0  0  0  0  0
  -32.3350    8.2528  -20.0259 H   0  0  0  0  0  0  0  0  0  0  0  0
  -30.1639    7.8040  -21.1267 H   0  0  0  0  0  0  0  0  0  0  0  0
  -29.6157    9.0670  -23.2607 H   0  0  0  0  0  0  0  0  0  0  0  0
  -30.8590   11.1747  -23.7911 H   0  0  0  0  0  0  0  0  0  0  0  0
  -33.0821   11.4936  -22.5486 H   0  0  0  0  0  0  0  0  0  0  0  0
  -31.6459   11.8688  -21.6246 H   0  0  0  0  0  0  0  0  0  0  0  0
  -32.3075    8.7026  -23.7328 H   0  0  0  0  0  0  0  0  0  0  0  0
  -31.9394    9.6994  -25.0169 H   0  0  0  0  0  0  0  0  0  0  0  0
  -33.1952   10.0574  -23.9617 H   0  0  0  0  0  0  0  0  0  0  0  0
  -28.5838    9.9664  -21.1925 H   0  0  0  0  0  0  0  0  0  0  0  0
  -30.6605   12.9898  -21.7391 H   0  0  0  0  0  0  0  0  0  0  0  0
  -30.2542   12.3686  -23.3196 H   0  0  0  0  0  0  0  0  0  0  0  0
  -29.4161   13.7680  -22.6897 H   0  0  0  0  0  0  0  0  0  0  0  0
  -32.1233    5.9406  -21.7652 H   0  0  0  0  0  0  0  0  0  0  0  0
  -33.2670    7.2609  -21.8447 H   0  0  0  0  0  0  0  0  0  0  0  0
  -32.3773    5.7143  -24.3440 H   0  0  0  0  0  0  0  0  0  0  0  0
  -33.7202    5.1552  -23.3734 H   0  0  0  0  0  0  0  0  0  0  0  0
  -34.8838    7.4172  -23.8647 H   0  0  0  0  0  0  0  0  0  0  0  0
  -33.6177    7.7138  -25.0339 H   0  0  0  0  0  0  0  0  0  0  0  0
  -36.3379    3.0179  -25.4740 H   0  0  0  0  0  0  0  0  0  0  0  0
  -35.1139    4.5529  -24.0019 H   0  0  0  0  0  0  0  0  0  0  0  0
  -34.7509    7.3412  -27.2011 H   0  0  0  0  0  0  0  0  0  0  0  0
  -35.9941    5.8071  -28.6751 H   0  0  0  0  0  0  0  0  0  0  0  0
  -39.0595    0.8869  -30.0968 H   0  0  0  0  0  0  0  0  0  0  0  0
  -37.1104    0.1155  -28.8086 H   0  0  0  0  0  0  0  0  0  0  0  0
  -35.8245    1.7110  -27.4549 H   0  0  0  0  0  0  0  0  0  0  0  0
  -38.4115    4.8612  -28.6951 H   0  0  0  0  0  0  0  0  0  0  0  0
  -39.7099    3.2579  -30.0420 H   0  0  0  0  0  0  0  0  0  0  0  0
  1  2  1  0  0  0  0
  1  6  2  0  0  0  0
  1 31  1  0  0  0  0
  2  3  1  0  0  0  0
  2 15  1  0  0  0  0
  2 32  1  0  0  0  0
  3  4  1  0  0  0  0
  3 11  1  0  0  0  0
  3 33  1  0  0  0  0
  4  5  1  0  0  0  0
  4 10  1  0  0  0  0
  4 34  1  0  0  0  0
  5  6  1  0  0  0  0
  5 35  1  0  0  0  0
  5 36  1  0  0  0  0
  6  7  1  0  0  0  0
  7  8  2  0  0  0  0
  7  9  1  0  0  0  0
 10 37  1  0  0  0  0
 10 38  1  0  0  0  0
 10 39  1  0  0  0  0
 11 12  1  0  0  0  0
 11 40  1  0  0  0  0
 12 13  1  0  0  0  0
 12 14  2  0  0  0  0
 13 41  1  0  0  0  0
 13 42  1  0  0  0  0
 13 43  1  0  0  0  0
 15 16  1  0  0  0  0
 16 17  1  0  0  0  0
 16 44  1  0  0  0  0
 16 45  1  0  0  0  0
 17 18  1  0  0  0  0
 17 46  1  0  0  0  0
 17 47  1  0  0  0  0
 18 19  1  0  0  0  0
 18 48  1  0  0  0  0
 18 49  1  0  0  0  0
 19 22  2  0  0  0  0
 19 23  1  0  0  0  0
 20 21  2  0  0  0  0
 20 24  1  0  0  0  0
 20 25  1  0  0  0  0
 21 22  1  0  0  0  0
 21 50  1  0  0  0  0
 22 51  1  0  0  0  0
 23 24  2  0  0  0  0
 23 52  1  0  0  0  0
 24 53  1  0  0  0  0
 25 28  2  0  0  0  0
 25 29  1  0  0  0  0
 26 27  2  0  0  0  0
 26 30  1  0  0  0  0
 26 54  1  0  0  0  0
 27 28  1  0  0  0  0
 27 55  1  0  0  0  0
 28 56  1  0  0  0  0
 29 30  2  0  0  0  0
 29 57  1  0  0  0  0
 30 58  1  0  0  0  0
M  END
> <Name>
BDB5007

> <Target>
Neuraminidase A

> <IC50_in_nM>
90

> <Kd_from_ITC>
false

> <source_organism>
Influenza A virus (A/Puerto Rico/8/34/Mount Sinai(H1N1))

> <SourceTag>
NA

> <atoms in reference ligand area>
14

> <score>
-9.59397

$$$$
BDB4952
      BALL 1.4.0 (Jan  4 2012, 23:22:29)

 52 53  0999  0  0  0  0  0  0999 V2000
  -29.9584   12.8891  -20.1408 C   0  0  0  0  0  0  0  0  0  0  0  0
  -31.2260   11.4552  -22.1189 C   0  0  0  0  0  0  0  0  0  0  0  0
  -31.0060   12.9363  -22.3699 C   0  0  0  0  0  0  0  0  0  0  0  0
  -30.5890   13.5794  -21.0970 C   0  0  0  0  0  0  0  0  0  0  0  0
  -29.6320   11.5121  -20.2699 O   0  0  0  0  0  0  0  0  0  0  0  0
  -29.6205   13.5729  -18.8915 C   0  0  0  0  0  0  0  0  0  0  0  0
  -28.8927   13.0183  -18.0601 O   0  0  0  0  0  0  0  0  0  0  0  0
  -30.1069   14.8174  -18.6456 O   0  5  0  0  0  0  0  0  0  0  0  0
  -29.9643    9.4074  -21.4199 C   0  0  0  0  0  0  0  0  0  0  0  0
  -29.6068    8.7249  -22.3862 O   0  0  0  0  0  0  0  0  0  0  0  0
  -29.9154   10.9327  -21.5630 C   0  0  0  0  0  0  0  0  0  0  0  0
  -31.5187   10.8010  -23.4015 N   0  0  0  0  0  0  0  0  0  0  0  0
  -30.5554   10.2703  -24.3282 C   0  0  0  0  0  0  0  0  0  0  0  0
  -29.0578   10.3175  -24.0962 C   0  0  0  0  0  0  0  0  0  0  0  0
  -30.9703    9.7483  -25.3687 O   0  0  0  0  0  0  0  0  0  0  0  0
  -32.2345   13.5586  -22.8836 N   0  3  0  0  0  0  0  0  0  0  0  0
  -30.4052    8.7208  -20.2445 N   0  0  0  0  0  0  0  0  0  0  0  0
  -30.3034    7.2790  -20.2316 C   0  0  0  0  0  0  0  0  0  0  0  0
  -30.8330    6.6889  -18.9068 C   0  0  0  0  0  0  0  0  0  0  0  0
  -30.7134    5.1925  -18.9362 C   0  0  0  0  0  0  0  0  0  0  0  0
  -30.5042    2.4219  -18.9864 C   0  0  0  0  0  0  0  0  0  0  0  0
  -29.9883    3.1763  -20.0326 C   0  0  0  0  0  0  0  0  0  0  0  0
  -30.0932    4.5626  -20.0073 C   0  0  0  0  0  0  0  0  0  0  0  0
  -31.2297    4.4376  -17.8887 C   0  0  0  0  0  0  0  0  0  0  0  0
  -31.1251    3.0525  -17.9140 C   0  0  0  0  0  0  0  0  0  0  0  0
  -30.9578    9.4088  -19.0918 C   0  0  0  0  0  0  0  0  0  0  0  0
  -32.4579    9.7283  -19.3156 C   0  0  0  0  0  0  0  0  0  0  0  0
  -32.0599   11.2640  -21.4274 H   0  0  0  0  0  0  0  0  0  0  0  0
  -30.2187   13.0707  -23.1262 H   0  0  0  0  0  0  0  0  0  0  0  0
  -30.8035   14.6464  -20.9378 H   0  0  0  0  0  0  0  0  0  0  0  0
  -29.1207   11.2161  -22.2687 H   0  0  0  0  0  0  0  0  0  0  0  0
  -32.5112   10.7138  -23.6626 H   0  0  0  0  0  0  0  0  0  0  0  0
  -28.9614   10.8967  -23.1660 H   0  0  0  0  0  0  0  0  0  0  0  0
  -28.6946   10.9707  -24.9033 H   0  0  0  0  0  0  0  0  0  0  0  0
  -28.5515    9.3416  -24.0599 H   0  0  0  0  0  0  0  0  0  0  0  0
  -31.9818   14.3517  -23.4902 H   0  0  0  0  0  0  0  0  0  0  0  0
  -32.7943   13.9032  -22.0907 H   0  0  0  0  0  0  0  0  0  0  0  0
  -32.7797   12.8695  -23.4209 H   0  0  0  0  0  0  0  0  0  0  0  0
  -29.2502    6.9891  -20.3611 H   0  0  0  0  0  0  0  0  0  0  0  0
  -30.8863    6.8682  -21.0692 H   0  0  0  0  0  0  0  0  0  0  0  0
  -31.8889    6.9685  -18.7764 H   0  0  0  0  0  0  0  0  0  0  0  0
  -30.2438    7.0863  -18.0673 H   0  0  0  0  0  0  0  0  0  0  0  0
  -30.4213    1.3252  -19.0062 H   0  0  0  0  0  0  0  0  0  0  0  0
  -29.4972    2.6771  -20.8809 H   0  0  0  0  0  0  0  0  0  0  0  0
  -29.6849    5.1604  -20.8357 H   0  0  0  0  0  0  0  0  0  0  0  0
  -31.7209    4.9369  -17.0405 H   0  0  0  0  0  0  0  0  0  0  0  0
  -31.5334    2.4548  -17.0857 H   0  0  0  0  0  0  0  0  0  0  0  0
  -30.8506    8.7711  -18.2019 H   0  0  0  0  0  0  0  0  0  0  0  0
  -30.4068   10.3467  -18.9283 H   0  0  0  0  0  0  0  0  0  0  0  0
  -33.0313    8.7897  -19.2990 H   0  0  0  0  0  0  0  0  0  0  0  0
  -32.5800   10.2096  -20.2972 H   0  0  0  0  0  0  0  0  0  0  0  0
  -32.8210   10.4003  -18.5240 H   0  0  0  0  0  0  0  0  0  0  0  0
  1  5  1  0  0  0  0
  1  4  2  0  0  0  0
  1  6  1  0  0  0  0
  2 11  1  0  0  0  0
  2  3  1  0  0  0  0
  2 12  1  0  0  0  0
  2 28  1  0  0  0  0
  3  4  1  0  0  0  0
  3 16  1  0  0  0  0
  3 29  1  0  0  0  0
  4 30  1  0  0  0  0
  5 11  1  0  0  0  0
  6  7  2  0  0  0  0
  6  8  1  0  0  0  0
  9 11  1  0  0  0  0
  9 17  1  0  0  0  0
  9 10  2  0  0  0  0
 11 31  1  0  0  0  0
 12 13  1  0  0  0  0
 12 32  1  0  0  0  0
 13 14  1  0  0  0  0
 13 15  2  0  0  0  0
 14 33  1  0  0  0  0
 14 34  1  0  0  0  0
 14 35  1  0  0  0  0
 16 36  1  0  0  0  0
 16 37  1  0  0  0  0
 16 38  1  0  0  0  0
 17 18  1  0  0  0  0
 17 26  1  0  0  0  0
 18 19  1  0  0  0  0
 18 39  1  0  0  0  0
 18 40  1  0  0  0  0
 19 20  1  0  0  0  0
 19 41  1  0  0  0  0
 19 42  1  0  0  0  0
 20 23  2  0  0  0  0
 20 24  1  0  0  0  0
 21 22  2  0  0  0  0
 21 25  1  0  0  0  0
 21 43  1  0  0  0  0
 22 23  1  0  0  0  0
 22 44  1  0  0  0  0
 23 45  1  0  0  0  0
 24 25  2  0  0  0  0
 24 46  1  0  0  0  0
 25 47  1  0  0  0  0
 26 27  1  0  0  0  0
 26 48  1  0  0  0  0
 26 49  1  0  0  0  0
 27 50  1  0  0  0  0
 27 51  1  0  0  0  0
 27 52  1  0  0  0  0
M  END
> <Name>
BDB4952

> <Target>
Neuraminidase A

> <IC50_in_nM>
5

> <Kd_from_ITC>
false

> <source_organism>
Influenza A virus (A/Singapore/1/57(H2N2))

> <SourceTag>
NA

> <atoms in reference ligand area>
25

> <score>
-9.53918

$$$$
BDB5242
      BALL 1.4.0 (Jan  4 2012, 23:22:29)

 40 40  0999  0  0  0  0  0  0999 V2000
  -30.7133   11.7280  -21.1658 C   0  0  0  0  0  0  0  0  0  0  0  0
  -31.3721   12.4427  -20.0119 C   0  0  0  0  0  0  0  0  0  0  0  0
  -32.9259   12.1579  -19.9617 C   0  0  0  0  0  0  0  0  0  0  0  0
  -33.6235   12.1234  -21.3625 C   0  0  0  0  0  0  0  0  0  0  0  0
  -32.9559   11.0021  -22.1665 C   0  0  0  0  0  0  0  0  0  0  0  0
  -31.4085   11.1025  -22.1455 C   0  0  0  0  0  0  0  0  0  0  0  0
  -30.6371   10.4123  -23.1706 C   0  0  0  0  0  0  0  0  0  0  0  0
  -31.1971    9.9807  -24.1789 O   0  0  0  0  0  0  0  0  0  0  0  0
  -29.2924   10.2847  -23.0294 O   0  5  0  0  0  0  0  0  0  0  0  0
  -33.5855   13.3325  -22.1704 N   0  3  0  0  0  0  0  0  0  0  0  0
  -33.3600   10.8730  -19.2647 N   0  0  0  0  0  0  0  0  0  0  0  0
  -32.6004    9.7411  -18.7189 C   0  0  0  0  0  0  0  0  0  0  0  0
  -31.1097    9.6125  -18.6084 C   0  0  0  0  0  0  0  0  0  0  0  0
  -33.2668    8.7992  -18.2751 O   0  0  0  0  0  0  0  0  0  0  0  0
  -30.0499   14.4738  -18.9551 C   0  0  0  0  0  0  0  0  0  0  0  0
  -28.9708   15.4083  -19.5076 C   0  0  0  0  0  0  0  0  0  0  0  0
  -27.9614   15.7098  -18.3818 C   0  0  0  0  0  0  0  0  0  0  0  0
  -30.9711   13.9796  -20.0675 C   0  0  0  0  0  0  0  0  0  0  0  0
  -29.6444   11.7147  -21.2127 H   0  0  0  0  0  0  0  0  0  0  0  0
  -30.9679   12.1136  -19.0435 H   0  0  0  0  0  0  0  0  0  0  0  0
  -33.3756   12.9451  -19.3416 H   0  0  0  0  0  0  0  0  0  0  0  0
  -34.6846   11.8992  -21.1971 H   0  0  0  0  0  0  0  0  0  0  0  0
  -33.3004   11.0445  -23.1911 H   0  0  0  0  0  0  0  0  0  0  0  0
  -33.2561   10.0434  -21.7579 H   0  0  0  0  0  0  0  0  0  0  0  0
  -32.6760   13.6760  -22.2132 H   0  0  0  0  0  0  0  0  0  0  0  0
  -34.2318   14.0375  -21.7861 H   0  0  0  0  0  0  0  0  0  0  0  0
  -33.8684   13.0955  -23.1282 H   0  0  0  0  0  0  0  0  0  0  0  0
  -34.3433   10.7849  -19.1613 H   0  0  0  0  0  0  0  0  0  0  0  0
  -30.8672   10.5600  -18.0738 H   0  0  0  0  0  0  0  0  0  0  0  0
  -30.8125    9.8319  -19.6601 H   0  0  0  0  0  0  0  0  0  0  0  0
  -30.7709    8.8213  -18.2336 H   0  0  0  0  0  0  0  0  0  0  0  0
  -30.6334   15.0009  -18.2161 H   0  0  0  0  0  0  0  0  0  0  0  0
  -29.5799   13.6304  -18.4797 H   0  0  0  0  0  0  0  0  0  0  0  0
  -29.4188   16.3171  -19.8364 H   0  0  0  0  0  0  0  0  0  0  0  0
  -28.4672   14.9322  -20.3204 H   0  0  0  0  0  0  0  0  0  0  0  0
  -27.5051   14.8045  -18.0474 H   0  0  0  0  0  0  0  0  0  0  0  0
  -28.4560   16.1875  -17.5652 H   0  0  0  0  0  0  0  0  0  0  0  0
  -27.1940   16.3699  -18.7619 H   0  0  0  0  0  0  0  0  0  0  0  0
  -31.8871   14.5867  -20.0602 H   0  0  0  0  0  0  0  0  0  0  0  0
  -30.4936   14.1876  -21.0384 H   0  0  0  0  0  0  0  0  0  0  0  0
  1  2  1  0  0  0  0
  1  6  2  0  0  0  0
  1 19  1  0  0  0  0
  2  3  1  0  0  0  0
  2 18  1  0  0  0  0
  2 20  1  0  0  0  0
  3  4  1  0  0  0  0
  3 11  1  0  0  0  0
  3 21  1  0  0  0  0
  4  5  1  0  0  0  0
  4 10  1  0  0  0  0
  4 22  1  0  0  0  0
  5  6  1  0  0  0  0
  5 23  1  0  0  0  0
  5 24  1  0  0  0  0
  6  7  1  0  0  0  0
  7  8  2  0  0  0  0
  7  9  1  0  0  0  0
 10 25  1  0  0  0  0
 10 26  1  0  0  0  0
 10 27  1  0  0  0  0
 11 12  1  0  0  0  0
 11 28  1  0  0  0  0
 12 13  1  0  0  0  0
 12 14  2  0  0  0  0
 13 29  1  0  0  0  0
 13 30  1  0  0  0  0
 13 31  1  0  0  0  0
 15 18  1  0  0  0  0
 15 16  1  0  0  0  0
 15 32  1  0  0  0  0
 15 33  1  0  0  0  0
 16 17  1  0  0  0  0
 16 34  1  0  0  0  0
 16 35  1  0  0  0  0
 17 36  1  0  0  0  0
 17 37  1  0  0  0  0
 17 38  1  0  0  0  0
 18 39  1  0  0  0  0
 18 40  1  0  0  0  0
M  END
> <Name>
BDB5242

> <Target>
Neuraminidase A

> <IC50_in_nM>
220

> <Kd_from_ITC>
false

> <source_organism>
Influenza A virus (A/Puerto Rico/8/34(H1N1))

> <SourceTag>
NA

> <atoms in reference ligand area>
24

> <score>
-9.07104

$$$$
BDB5222
      BALL 1.4.0 (Jan  4 2012, 23:22:29)

 41 41  0999  0  0  0  0  0  0999 V2000
  -30.5641    7.8856  -22.5374 C   0  0  0  0  0  0  0  0  0  0  0  0
  -31.8982    8.2052  -21.9080 C   0  0  0  0  0  0  0  0  0  0  0  0
  -33.0898    7.5509  -22.6959 C   0  0  0  0  0  0  0  0  0  0  0  0
  -32.9257    7.8520  -24.2213 C   0  0  0  0  0  0  0  0  0  0  0  0
  -31.6377    7.1837  -24.7224 C   0  0  0  0  0  0  0  0  0  0  0  0
  -30.4318    7.4621  -23.8061 C   0  0  0  0  0  0  0  0  0  0  0  0
  -29.0922    7.1906  -24.3068 C   0  0  0  0  0  0  0  0  0  0  0  0
  -28.1337    7.1809  -23.5265 O   0  0  0  0  0  0  0  0  0  0  0  0
  -33.3688    6.0562  -22.4832 N   0  0  0  0  0  0  0  0  0  0  0  0
  -31.9880    9.6653  -21.9266 O   0  0  0  0  0  0  0  0  0  0  0  0
  -28.8990    6.9451  -25.6262 O   0  5  0  0  0  0  0  0  0  0  0  0
  -31.2926   10.2565  -20.8070 C   0  0  0  0  0  0  0  0  0  0  0  0
  -31.0342   11.7710  -21.0366 C   0  0  0  0  0  0  0  0  0  0  0  0
  -31.1167   12.5631  -19.7224 C   0  0  0  0  0  0  0  0  0  0  0  0
  -32.4986    4.8689  -22.4535 C   0  0  0  0  0  0  0  0  0  0  0  0
  -31.0028    4.8329  -22.4147 C   0  0  0  0  0  0  0  0  0  0  0  0
  -33.0707    3.7743  -22.4009 O   0  0  0  0  0  0  0  0  0  0  0  0
  -32.8858    9.3070  -24.5749 N   0  0  0  0  0  0  0  0  0  0  0  0
  -31.6301   10.0102  -24.5898 C   0  0  0  0  0  0  0  0  0  0  0  0
  -31.5908   11.2695  -24.4691 N   0  3  0  0  0  0  0  0  0  0  0  0
  -29.6808    8.0019  -21.9448 H   0  0  0  0  0  0  0  0  0  0  0  0
  -31.9278    7.8999  -20.8529 H   0  0  0  0  0  0  0  0  0  0  0  0
  -34.0153    8.0212  -22.3496 H   0  0  0  0  0  0  0  0  0  0  0  0
  -33.7904    7.4222  -24.7464 H   0  0  0  0  0  0  0  0  0  0  0  0
  -31.4152    7.5417  -25.7197 H   0  0  0  0  0  0  0  0  0  0  0  0
  -31.7948    6.1115  -24.7879 H   0  0  0  0  0  0  0  0  0  0  0  0
  -34.3309    5.8449  -22.3594 H   0  0  0  0  0  0  0  0  0  0  0  0
  -30.3510    9.7524  -20.6664 H   0  0  0  0  0  0  0  0  0  0  0  0
  -31.8835   10.1271  -19.9123 H   0  0  0  0  0  0  0  0  0  0  0  0
  -31.7642   12.1568  -21.7300 H   0  0  0  0  0  0  0  0  0  0  0  0
  -30.0533   11.9039  -21.4715 H   0  0  0  0  0  0  0  0  0  0  0  0
  -30.2777   12.2918  -19.1090 H   0  0  0  0  0  0  0  0  0  0  0  0
  -32.0208   12.2841  -19.2138 H   0  0  0  0  0  0  0  0  0  0  0  0
  -31.1096   13.6006  -19.9169 H   0  0  0  0  0  0  0  0  0  0  0  0
  -30.8126    5.4992  -21.5405 H   0  0  0  0  0  0  0  0  0  0  0  0
  -30.7676    5.4883  -23.2861 H   0  0  0  0  0  0  0  0  0  0  0  0
  -30.5896    3.9920  -22.3989 H   0  0  0  0  0  0  0  0  0  0  0  0
  -33.7249    9.8721  -24.3877 H   0  0  0  0  0  0  0  0  0  0  0  0
  -30.7186    9.4617  -24.7044 H   0  0  0  0  0  0  0  0  0  0  0  0
  -32.4318   11.7837  -24.3775 H   0  0  0  0  0  0  0  0  0  0  0  0
  -30.7153   11.7402  -24.4684 H   0  0  0  0  0  0  0  0  0  0  0  0
  1  2  1  0  0  0  0
  1  6  2  0  0  0  0
  1 21  1  0  0  0  0
  2  3  1  0  0  0  0
  2 10  1  0  0  0  0
  2 22  1  0  0  0  0
  3  4  1  0  0  0  0
  3  9  1  0  0  0  0
  3 23  1  0  0  0  0
  4  5  1  0  0  0  0
  4 18  1  0  0  0  0
  4 24  1  0  0  0  0
  5  6  1  0  0  0  0
  5 25  1  0  0  0  0
  5 26  1  0  0  0  0
  6  7  1  0  0  0  0
  7  8  2  0  0  0  0
  7 11  1  0  0  0  0
  9 15  1  0  0  0  0
  9 27  1  0  0  0  0
 10 12  1  0  0  0  0
 12 13  1  0  0  0  0
 12 28  1  0  0  0  0
 12 29  1  0  0  0  0
 13 14  1  0  0  0  0
 13 30  1  0  0  0  0
 13 31  1  0  0  0  0
 14 32  1  0  0  0  0
 14 33  1  0  0  0  0
 14 34  1  0  0  0  0
 15 16  1  0  0  0  0
 15 17  2  0  0  0  0
 16 35  1  0  0  0  0
 16 36  1  0  0  0  0
 16 37  1  0  0  0  0
 18 19  1  0  0  0  0
 18 38  1  0  0  0  0
 19 20  2  0  0  0  0
 19 39  1  0  0  0  0
 20 40  1  0  0  0  0
 20 41  1  0  0  0  0
M  END
> <Name>
BDB5222

> <Target>
Neuraminidase A

> <IC50_in_nM>
140

> <Kd_from_ITC>
false

> <source_organism>
Influenza A virus (A/Puerto Rico/8/34(H1N1))

> <SourceTag>
NA

> <atoms in reference ligand area>
12

> <score>
-8.88846

$$$$
BDB4995
      BALL 1.4.0 (Jan  4 2012, 23:22:29)

 45 45  0999  0  0  0  0  0  0999 V2000
  -33.1846    9.3452  -20.6397 C   0  0  0  0  0  0  0  0  0  0  0  0
  -32.3362   10.5736  -20.4833 C   0  0  0  0  0  0  0  0  0  0  0  0
  -33.1170   11.7223  -19.6897 C   0  0  0  0  0  0  0  0  0  0  0  0
  -34.6259   11.8635  -20.0768 C   0  0  0  0  0  0  0  0  0  0  0  0
  -35.3185   10.5161  -19.8436 C   0  0  0  0  0  0  0  0  0  0  0  0
  -34.5123    9.3115  -20.4010 C   0  0  0  0  0  0  0  0  0  0  0  0
  -35.1783    8.0291  -20.5818 C   0  0  0  0  0  0  0  0  0  0  0  0
  -34.8342    7.0570  -19.9055 O   0  0  0  0  0  0  0  0  0  0  0  0
  -36.1966    7.9148  -21.4702 O   0  5  0  0  0  0  0  0  0  0  0  0
  -34.8915   12.2559  -21.4179 N   0  3  0  0  0  0  0  0  0  0  0  0
  -33.0710   11.6285  -18.1582 N   0  0  0  0  0  0  0  0  0  0  0  0
  -33.5668   10.6230  -17.2062 C   0  0  0  0  0  0  0  0  0  0  0  0
  -33.9616    9.2064  -17.5026 C   0  0  0  0  0  0  0  0  0  0  0  0
  -33.5906   10.9615  -16.0169 O   0  0  0  0  0  0  0  0  0  0  0  0
  -31.7215   10.8745  -21.8455 O   0  0  0  0  0  0  0  0  0  0  0  0
  -30.2773   10.8924  -22.0498 C   0  0  0  0  0  0  0  0  0  0  0  0
  -29.8961   11.9288  -23.1164 C   0  0  0  0  0  0  0  0  0  0  0  0
  -28.3894   11.9251  -23.2297 C   0  0  0  0  0  0  0  0  0  0  0  0
  -27.7811   12.5282  -24.2480 C   0  0  0  0  0  0  0  0  0  0  0  0
  -29.7712    9.5185  -22.5718 C   0  0  0  0  0  0  0  0  0  0  0  0
  -30.4653    9.1571  -23.8962 C   0  0  0  0  0  0  0  0  0  0  0  0
  -32.7080    8.4421  -20.9597 H   0  0  0  0  0  0  0  0  0  0  0  0
  -31.4452   10.3564  -19.8760 H   0  0  0  0  0  0  0  0  0  0  0  0
  -32.5912   12.6662  -19.8852 H   0  0  0  0  0  0  0  0  0  0  0  0
  -35.0707   12.6390  -19.4401 H   0  0  0  0  0  0  0  0  0  0  0  0
  -36.2979   10.5338  -20.3106 H   0  0  0  0  0  0  0  0  0  0  0  0
  -35.4745   10.3762  -18.7760 H   0  0  0  0  0  0  0  0  0  0  0  0
  -34.2405   11.8447  -22.0095 H   0  0  0  0  0  0  0  0  0  0  0  0
  -34.8670   13.2815  -21.4841 H   0  0  0  0  0  0  0  0  0  0  0  0
  -35.8214   11.9195  -21.6847 H   0  0  0  0  0  0  0  0  0  0  0  0
  -32.6797   12.4296  -17.7218 H   0  0  0  0  0  0  0  0  0  0  0  0
  -33.0465    8.8503  -18.0299 H   0  0  0  0  0  0  0  0  0  0  0  0
  -34.6855    9.3707  -18.3340 H   0  0  0  0  0  0  0  0  0  0  0  0
  -34.2614    8.6821  -16.7835 H   0  0  0  0  0  0  0  0  0  0  0  0
  -29.7703   11.1802  -21.1293 H   0  0  0  0  0  0  0  0  0  0  0  0
  -30.2282   12.8901  -22.8158 H   0  0  0  0  0  0  0  0  0  0  0  0
  -30.3253   11.6552  -24.0502 H   0  0  0  0  0  0  0  0  0  0  0  0
  -27.8044   11.4315  -22.4821 H   0  0  0  0  0  0  0  0  0  0  0  0
  -28.3727   13.0218  -24.9951 H   0  0  0  0  0  0  0  0  0  0  0  0
  -26.7197   12.5222  -24.3223 H   0  0  0  0  0  0  0  0  0  0  0  0
  -29.9810    8.7596  -21.8420 H   0  0  0  0  0  0  0  0  0  0  0  0
  -28.7071    9.5656  -22.7283 H   0  0  0  0  0  0  0  0  0  0  0  0
  -30.2526    9.9177  -24.6206 H   0  0  0  0  0  0  0  0  0  0  0  0
  -31.5239    9.1128  -23.7345 H   0  0  0  0  0  0  0  0  0  0  0  0
  -30.1127    8.2154  -24.2458 H   0  0  0  0  0  0  0  0  0  0  0  0
  1  2  1  0  0  0  0
  1  6  2  0  0  0  0
  1 22  1  0  0  0  0
  2  3  1  0  0  0  0
  2 15  1  0  0  0  0
  2 23  1  0  0  0  0
  3  4  1  0  0  0  0
  3 11  1  0  0  0  0
  3 24  1  0  0  0  0
  4  5  1  0  0  0  0
  4 10  1  0  0  0  0
  4 25  1  0  0  0  0
  5  6  1  0  0  0  0
  5 26  1  0  0  0  0
  5 27  1  0  0  0  0
  6  7  1  0  0  0  0
  7  8  2  0  0  0  0
  7  9  1  0  0  0  0
 10 28  1  0  0  0  0
 10 29  1  0  0  0  0
 10 30  1  0  0  0  0
 11 12  1  0  0  0  0
 11 31  1  0  0  0  0
 12 13  1  0  0  0  0
 12 14  2  0  0  0  0
 13 32  1  0  0  0  0
 13 33  1  0  0  0  0
 13 34  1  0  0  0  0
 15 16  1  0  0  0  0
 16 17  1  0  0  0  0
 16 20  1  0  0  0  0
 16 35  1  0  0  0  0
 17 18  1  0  0  0  0
 17 36  1  0  0  0  0
 17 37  1  0  0  0  0
 18 19  2  0  0  0  0
 18 38  1  0  0  0  0
 19 39  1  0  0  0  0
 19 40  1  0  0  0  0
 20 21  1  0  0  0  0
 20 41  1  0  0  0  0
 20 42  1  0  0  0  0
 21 43  1  0  0  0  0
 21 44  1  0  0  0  0
 21 45  1  0  0  0  0
M  END
> <Name>
BDB4995

> <Target>
Neuraminidase A

> <IC50_in_nM>
1

> <Kd_from_ITC>
false

> <source_organism>
Influenza A virus (A/Puerto Rico/8/34/Mount Sinai(H1N1))

> <SourceTag>
NA

> <atoms in reference ligand area>
17

> <score>
-8.64882

$$$$
BDB5257
      BALL 1.4.0 (Jan  4 2012, 23:22:29)

 41 42  0999  0  0  0  0  0  0999 V2000
  -32.1107    8.1985  -21.8097 C   0  0  0  0  0  0  0  0  0  0  0  0
  -32.3770    9.4205  -22.6539 C   0  0  0  0  0  0  0  0  0  0  0  0
  -31.1862    9.6892  -23.6651 C   0  0  0  0  0  0  0  0  0  0  0  0
  -29.7535    9.3783  -23.0860 C   0  0  0  0  0  0  0  0  0  0  0  0
  -29.7363    7.8979  -22.7009 C   0  0  0  0  0  0  0  0  0  0  0  0
  -30.9388    7.5221  -21.8065 C   0  0  0  0  0  0  0  0  0  0  0  0
  -30.8759    6.3260  -20.9792 C   0  0  0  0  0  0  0  0  0  0  0  0
  -30.2833    5.3268  -21.3849 O   0  0  0  0  0  0  0  0  0  0  0  0
  -31.4296    6.3350  -19.7393 O   0  5  0  0  0  0  0  0  0  0  0  0
  -29.2965   10.1226  -21.9237 N   0  3  0  0  0  0  0  0  0  0  0  0
  -31.2333    8.9214  -24.9867 N   0  0  0  0  0  0  0  0  0  0  0  0
  -31.2630    7.4826  -25.2910 C   0  0  0  0  0  0  0  0  0  0  0  0
  -31.4661    6.3522  -24.3230 C   0  0  0  0  0  0  0  0  0  0  0  0
  -31.1475    7.1723  -26.4824 O   0  0  0  0  0  0  0  0  0  0  0  0
  -34.7297   11.5936  -20.5661 C   0  0  0  0  0  0  0  0  0  0  0  0
  -32.6049   11.9284  -19.6756 C   0  0  0  0  0  0  0  0  0  0  0  0
  -32.0710   10.7354  -20.4802 C   0  0  0  0  0  0  0  0  0  0  0  0
  -34.2183   10.3980  -21.4009 C   0  0  0  0  0  0  0  0  0  0  0  0
  -33.9756   11.7033  -19.3565 O   0  0  0  0  0  0  0  0  0  0  0  0
  -32.7940   10.5796  -21.7324 N   0  0  0  0  0  0  0  0  0  0  0  0
  -32.8964    7.8455  -21.1749 H   0  0  0  0  0  0  0  0  0  0  0  0
  -33.2783    9.2791  -23.2681 H   0  0  0  0  0  0  0  0  0  0  0  0
  -31.2542   10.7400  -23.9772 H   0  0  0  0  0  0  0  0  0  0  0  0
  -29.0272    9.5759  -23.8852 H   0  0  0  0  0  0  0  0  0  0  0  0
  -28.8199    7.6769  -22.1748 H   0  0  0  0  0  0  0  0  0  0  0  0
  -29.7589    7.2952  -23.5998 H   0  0  0  0  0  0  0  0  0  0  0  0
  -28.6909    9.5583  -21.3724 H   0  0  0  0  0  0  0  0  0  0  0  0
  -30.1041   10.4551  -21.3762 H   0  0  0  0  0  0  0  0  0  0  0  0
  -28.7522   10.9307  -22.2508 H   0  0  0  0  0  0  0  0  0  0  0  0
  -31.2166    9.5027  -25.7912 H   0  0  0  0  0  0  0  0  0  0  0  0
  -32.4070    6.6815  -23.8252 H   0  0  0  0  0  0  0  0  0  0  0  0
  -30.6821    6.5916  -23.5681 H   0  0  0  0  0  0  0  0  0  0  0  0
  -31.4597    5.4796  -24.6711 H   0  0  0  0  0  0  0  0  0  0  0  0
  -35.7668   11.4450  -20.3283 H   0  0  0  0  0  0  0  0  0  0  0  0
  -34.6250   12.4954  -21.1353 H   0  0  0  0  0  0  0  0  0  0  0  0
  -32.0401   12.0311  -18.7747 H   0  0  0  0  0  0  0  0  0  0  0  0
  -32.5157   12.8216  -20.2601 H   0  0  0  0  0  0  0  0  0  0  0  0
  -31.0258   10.8866  -20.6886 H   0  0  0  0  0  0  0  0  0  0  0  0
  -32.1750    9.8350  -19.8942 H   0  0  0  0  0  0  0  0  0  0  0  0
  -34.7900   10.3264  -22.3089 H   0  0  0  0  0  0  0  0  0  0  0  0
  -34.3415    9.4931  -20.8385 H   0  0  0  0  0  0  0  0  0  0  0  0
  1  2  1  0  0  0  0
  1  6  2  0  0  0  0
  1 21  1  0  0  0  0
  2  3  1  0  0  0  0
  2 20  1  0  0  0  0
  2 22  1  0  0  0  0
  3  4  1  0  0  0  0
  3 11  1  0  0  0  0
  3 23  1  0  0  0  0
  4  5  1  0  0  0  0
  4 10  1  0  0  0  0
  4 24  1  0  0  0  0
  5  6  1  0  0  0  0
  5 25  1  0  0  0  0
  5 26  1  0  0  0  0
  6  7  1  0  0  0  0
  7  8  2  0  0  0  0
  7  9  1  0  0  0  0
 10 27  1  0  0  0  0
 10 28  1  0  0  0  0
 10 29  1  0  0  0  0
 11 12  1  0  0  0  0
 11 30  1  0  0  0  0
 12 13  1  0  0  0  0
 12 14  2  0  0  0  0
 13 31  1  0  0  0  0
 13 32  1  0  0  0  0
 13 33  1  0  0  0  0
 15 19  1  0  0  0  0
 15 18  1  0  0  0  0
 15 34  1  0  0  0  0
 15 35  1  0  0  0  0
 16 19  1  0  0  0  0
 16 17  1  0  0  0  0
 16 36  1  0  0  0  0
 16 37  1  0  0  0  0
 17 20  1  0  0  0  0
 17 38  1  0  0  0  0
 17 39  1  0  0  0  0
 18 20  1  0  0  0  0
 18 40  1  0  0  0  0
 18 41  1  0  0  0  0
M  END
> <Name>
BDB5257

> <Target>
Neuraminidase A

> <IC50_in_nM>
260

> <Kd_from_ITC>
false

> <source_organism>
Influenza A virus (A/Puerto Rico/8/34(H1N1))

> <SourceTag>
NA

> <atoms in reference ligand area>
12

> <score>
-8.19385

$$$$
BDB5199
      BALL 1.4.0 (Jan  4 2012, 23:22:29)

 46 47  0999  0  0  0  0  0  0999 V2000
  -32.5716    8.0106  -20.3749 C   0  0  0  0  0  0  0  0  0  0  0  0
  -31.6474    8.3383  -21.5186 C   0  0  0  0  0  0  0  0  0  0  0  0
  -31.0429    9.7737  -19.7255 N   0  3  0  0  0  0  0  0  0  0  0  0
  -31.6697    8.5046  -19.2288 C   0  0  0  0  0  0  0  0  0  0  0  0
  -32.4303    8.6912  -17.9474 C   0  0  0  0  0  0  0  0  0  0  0  0
  -33.6265    9.0011  -17.9797 O   0  0  0  0  0  0  0  0  0  0  0  0
  -31.8059    8.5139  -16.7543 O   0  5  0  0  0  0  0  0  0  0  0  0
  -31.3739    9.7962  -21.1757 C   0  0  0  0  0  0  0  0  0  0  0  0
  -29.9550   10.4979  -20.9907 C   0  0  0  0  0  0  0  0  0  0  0  0
  -30.2189   12.1168  -21.2437 C   0  0  0  0  0  0  0  0  0  0  0  0
  -29.1132   12.0705  -20.1461 C   0  0  0  0  0  0  0  0  0  0  0  0
  -29.7503   12.4186  -18.7903 C   0  0  0  0  0  0  0  0  0  0  0  0
  -27.9829   13.0848  -20.4261 C   0  0  0  0  0  0  0  0  0  0  0  0
  -29.1660   10.0547  -22.2148 N   0  0  0  0  0  0  0  0  0  0  0  0
  -28.6598   10.3927  -23.4859 C   0  0  0  0  0  0  0  0  0  0  0  0
  -29.5754   10.8836  -24.5781 C   0  0  0  0  0  0  0  0  0  0  0  0
  -27.4530   10.2753  -23.7107 O   0  0  0  0  0  0  0  0  0  0  0  0
  -32.3114    8.1946  -22.8598 C   0  0  0  0  0  0  0  0  0  0  0  0
  -32.9941    7.3340  -24.6709 C   0  0  0  0  0  0  0  0  0  0  0  0
  -33.3892    8.6665  -24.6211 C   0  0  0  0  0  0  0  0  0  0  0  0
  -32.3242    7.0753  -23.5551 N   0  0  0  0  0  0  0  0  0  0  0  0
  -32.9454    9.1709  -23.4769 N   0  0  0  0  0  0  0  0  0  0  0  0
  -32.7337    6.9250  -20.3021 H   0  0  0  0  0  0  0  0  0  0  0  0
  -33.4922    8.6097  -20.4326 H   0  0  0  0  0  0  0  0  0  0  0  0
  -30.7648    7.6883  -21.6116 H   0  0  0  0  0  0  0  0  0  0  0  0
  -31.4640   10.5862  -19.2528 H   0  0  0  0  0  0  0  0  0  0  0  0
  -30.0217    9.7410  -19.5953 H   0  0  0  0  0  0  0  0  0  0  0  0
  -30.8989    7.7621  -18.9748 H   0  0  0  0  0  0  0  0  0  0  0  0
  -32.2405   10.4391  -21.3891 H   0  0  0  0  0  0  0  0  0  0  0  0
  -29.4945   10.2676  -20.0185 H   0  0  0  0  0  0  0  0  0  0  0  0
  -29.8414   12.6988  -22.0973 H   0  0  0  0  0  0  0  0  0  0  0  0
  -31.0861   12.6632  -20.8445 H   0  0  0  0  0  0  0  0  0  0  0  0
  -28.6795   11.0596  -20.1417 H   0  0  0  0  0  0  0  0  0  0  0  0
  -30.5362   11.6883  -18.5475 H   0  0  0  0  0  0  0  0  0  0  0  0
  -30.1840   13.4287  -18.8289 H   0  0  0  0  0  0  0  0  0  0  0  0
  -28.9763   12.3883  -18.0094 H   0  0  0  0  0  0  0  0  0  0  0  0
  -28.4215   14.0928  -20.4654 H   0  0  0  0  0  0  0  0  0  0  0  0
  -27.5402   12.8510  -21.4055 H   0  0  0  0  0  0  0  0  0  0  0  0
  -27.2151   13.0347  -19.6401 H   0  0  0  0  0  0  0  0  0  0  0  0
  -28.5264    9.6636  -21.5085 H   0  0  0  0  0  0  0  0  0  0  0  0
  -30.2136   11.6341  -24.0888 H   0  0  0  0  0  0  0  0  0  0  0  0
  -30.2170   10.0210  -24.8111 H   0  0  0  0  0  0  0  0  0  0  0  0
  -29.0550   11.2787  -25.4630 H   0  0  0  0  0  0  0  0  0  0  0  0
  -33.1995    6.6244  -25.4860 H   0  0  0  0  0  0  0  0  0  0  0  0
  -33.9642    9.2038  -25.3896 H   0  0  0  0  0  0  0  0  0  0  0  0
  -33.0716   10.1353  -23.1379 H   0  0  0  0  0  0  0  0  0  0  0  0
  1  4  1  0  0  0  0
  1  2  1  0  0  0  0
  1 23  1  0  0  0  0
  1 24  1  0  0  0  0
  2  8  1  0  0  0  0
  2 18  1  0  0  0  0
  2 25  1  0  0  0  0
  3  4  1  0  0  0  0
  3  8  1  0  0  0  0
  3 26  1  0  0  0  0
  3 27  1  0  0  0  0
  4  5  1  0  0  0  0
  4 28  1  0  0  0  0
  5  6  2  0  0  0  0
  5  7  1  0  0  0  0
  8  9  1  0  0  0  0
  8 29  1  0  0  0  0
  9 10  1  0  0  0  0
  9 14  1  0  0  0  0
  9 30  1  0  0  0  0
 10 11  1  0  0  0  0
 10 31  1  0  0  0  0
 10 32  1  0  0  0  0
 11 12  1  0  0  0  0
 11 13  1  0  0  0  0
 11 33  1  0  0  0  0
 12 34  1  0  0  0  0
 12 35  1  0  0  0  0
 12 36  1  0  0  0  0
 13 37  1  0  0  0  0
 13 38  1  0  0  0  0
 13 39  1  0  0  0  0
 14 15  1  0  0  0  0
 14 40  1  0  0  0  0
 15 16  1  0  0  0  0
 15 17  2  0  0  0  0
 16 41  1  0  0  0  0
 16 42  1  0  0  0  0
 16 43  1  0  0  0  0
 18 22  1  0  0  0  0
 18 21  2  0  0  0  0
 19 20  2  0  0  0  0
 19 21  1  0  0  0  0
 19 44  1  0  0  0  0
 20 22  1  0  0  0  0
 20 45  1  0  0  0  0
 22 46  1  0  0  0  0
M  END
> <Name>
BDB5199

> <Target>
Neuraminidase A

> <Ki_in_nM>
350

> <Kd_from_ITC>
false

> <Uniprot_ID>
P06820

> <source_organism>
Influenza A virus (A/Tokyo/3/67(H2N2))

> <SourceTag>
NA

> <atoms in reference ligand area>
22

> <score>
-8.14368

$$$$
BDB5195
      BALL 1.4.0 (Jan  4 2012, 23:22:29)

 45 45  0999  0  0  0  0  0  0999 V2000
  -32.2143    7.4209  -17.0585 C   0  0  0  0  0  0  0  0  0  0  0  0
  -32.6392    8.1218  -18.3225 C   0  0  0  0  0  0  0  0  0  0  0  0
  -30.4340    8.8632  -17.8445 N   0  3  0  0  0  0  0  0  0  0  0  0
  -30.6922    7.4985  -17.2777 C   0  0  0  0  0  0  0  0  0  0  0  0
  -29.9222    7.2348  -16.0155 C   0  0  0  0  0  0  0  0  0  0  0  0
  -29.7850    8.1332  -15.1777 O   0  0  0  0  0  0  0  0  0  0  0  0
  -29.3821    6.0088  -15.7924 O   0  5  0  0  0  0  0  0  0  0  0  0
  -31.7892    9.3769  -18.1800 C   0  0  0  0  0  0  0  0  0  0  0  0
  -30.7652    9.9788  -19.2425 C   0  0  0  0  0  0  0  0  0  0  0  0
  -31.3635   11.4736  -19.6448 C   0  0  0  0  0  0  0  0  0  0  0  0
  -29.8372   11.7099  -19.4349 C   0  0  0  0  0  0  0  0  0  0  0  0
  -29.6062   12.1822  -17.9896 C   0  0  0  0  0  0  0  0  0  0  0  0
  -29.2858   12.7889  -20.3922 C   0  0  0  0  0  0  0  0  0  0  0  0
  -30.9971    9.1381  -20.4902 N   0  0  0  0  0  0  0  0  0  0  0  0
  -31.5748    9.0534  -21.7729 C   0  0  0  0  0  0  0  0  0  0  0  0
  -33.0504    9.2868  -21.9741 C   0  0  0  0  0  0  0  0  0  0  0  0
  -30.8653    8.7743  -22.7421 O   0  0  0  0  0  0  0  0  0  0  0  0
  -34.1057    8.4377  -18.3472 C   0  0  0  0  0  0  0  0  0  0  0  0
  -34.8040    8.2087  -17.3518 O   0  0  0  0  0  0  0  0  0  0  0  0
  -36.1011    8.9862  -19.3709 C   0  0  0  0  0  0  0  0  0  0  0  0
  -34.6765    8.9881  -19.4913 O   0  0  0  0  0  0  0  0  0  0  0  0
  -32.5545    6.3748  -17.0583 H   0  0  0  0  0  0  0  0  0  0  0  0
  -32.5106    8.0006  -16.1719 H   0  0  0  0  0  0  0  0  0  0  0  0
  -32.5006    7.5455  -19.2492 H   0  0  0  0  0  0  0  0  0  0  0  0
  -29.9923    9.4646  -17.1345 H   0  0  0  0  0  0  0  0  0  0  0  0
  -29.8607    8.7917  -18.6972 H   0  0  0  0  0  0  0  0  0  0  0  0
  -30.3449    6.7167  -17.9692 H   0  0  0  0  0  0  0  0  0  0  0  0
  -32.1771   10.0509  -17.4021 H   0  0  0  0  0  0  0  0  0  0  0  0
  -29.7314    9.9984  -18.8671 H   0  0  0  0  0  0  0  0  0  0  0  0
  -31.6325   11.8009  -20.6600 H   0  0  0  0  0  0  0  0  0  0  0  0
  -31.9170   12.1176  -18.9457 H   0  0  0  0  0  0  0  0  0  0  0  0
  -29.3145   10.7640  -19.6399 H   0  0  0  0  0  0  0  0  0  0  0  0
  -29.9569   11.4143  -17.2844 H   0  0  0  0  0  0  0  0  0  0  0  0
  -30.1488   13.1224  -17.8119 H   0  0  0  0  0  0  0  0  0  0  0  0
  -28.5307   12.3514  -17.8328 H   0  0  0  0  0  0  0  0  0  0  0  0
  -29.8323   13.7264  -20.2119 H   0  0  0  0  0  0  0  0  0  0  0  0
  -29.4696   12.4633  -21.4267 H   0  0  0  0  0  0  0  0  0  0  0  0
  -28.2088   12.9389  -20.2266 H   0  0  0  0  0  0  0  0  0  0  0  0
  -29.9988    8.9128  -20.3744 H   0  0  0  0  0  0  0  0  0  0  0  0
  -33.1702   10.3783  -21.9080 H   0  0  0  0  0  0  0  0  0  0  0  0
  -33.5239    8.8582  -21.0785 H   0  0  0  0  0  0  0  0  0  0  0  0
  -33.4523    8.8699  -22.9092 H   0  0  0  0  0  0  0  0  0  0  0  0
  -36.5030    9.9262  -19.7771 H   0  0  0  0  0  0  0  0  0  0  0  0
  -36.3777    8.8997  -18.3098 H   0  0  0  0  0  0  0  0  0  0  0  0
  -36.5186    8.1360  -19.9301 H   0  0  0  0  0  0  0  0  0  0  0  0
  1  4  1  0  0  0  0
  1  2  1  0  0  0  0
  1 22  1  0  0  0  0
  1 23  1  0  0  0  0
  2  8  1  0  0  0  0
  2 18  1  0  0  0  0
  2 24  1  0  0  0  0
  3  4  1  0  0  0  0
  3  8  1  0  0  0  0
  3 25  1  0  0  0  0
  3 26  1  0  0  0  0
  4  5  1  0  0  0  0
  4 27  1  0  0  0  0
  5  6  2  0  0  0  0
  5  7  1  0  0  0  0
  8  9  1  0  0  0  0
  8 28  1  0  0  0  0
  9 10  1  0  0  0  0
  9 14  1  0  0  0  0
  9 29  1  0  0  0  0
 10 11  1  0  0  0  0
 10 30  1  0  0  0  0
 10 31  1  0  0  0  0
 11 12  1  0  0  0  0
 11 13  1  0  0  0  0
 11 32  1  0  0  0  0
 12 33  1  0  0  0  0
 12 34  1  0  0  0  0
 12 35  1  0  0  0  0
 13 36  1  0  0  0  0
 13 37  1  0  0  0  0
 13 38  1  0  0  0  0
 14 15  1  0  0  0  0
 14 39  1  0  0  0  0
 15 16  1  0  0  0  0
 15 17  2  0  0  0  0
 16 40  1  0  0  0  0
 16 41  1  0  0  0  0
 16 42  1  0  0  0  0
 18 19  2  0  0  0  0
 18 21  1  0  0  0  0
 20 21  1  0  0  0  0
 20 43  1  0  0  0  0
 20 44  1  0  0  0  0
 20 45  1  0  0  0  0
M  END
> <Name>
BDB5195

> <Target>
Neuraminidase A

> <Ki_in_nM>
260

> <Kd_from_ITC>
false

> <Uniprot_ID>
P06820

> <source_organism>
Influenza A virus (A/Tokyo/3/67(H2N2))

> <SourceTag>
NA

> <atoms in reference ligand area>
13

> <score>
-8.14276

$$$$
BDB4937
      BALL 1.4.0 (Jan  4 2012, 23:22:29)

 42 42  0999  0  0  0  0  0  0999 V2000
  -31.6566   12.3588  -20.4397 C   0  0  0  0  0  0  0  0  0  0  0  0
  -31.0751   10.2960  -18.7128 C   0  0  0  0  0  0  0  0  0  0  0  0
  -30.1861   11.5251  -18.6479 C   0  0  0  0  0  0  0  0  0  0  0  0
  -30.4665   12.3800  -19.8303 C   0  0  0  0  0  0  0  0  0  0  0  0
  -32.7331   11.5396  -20.0040 O   0  0  0  0  0  0  0  0  0  0  0  0
  -31.8485   13.1897  -21.6294 C   0  0  0  0  0  0  0  0  0  0  0  0
  -32.7543   12.9261  -22.4285 O   0  0  0  0  0  0  0  0  0  0  0  0
  -31.0308   14.2509  -21.8555 O   0  5  0  0  0  0  0  0  0  0  0  0
  -33.4980    9.6626  -18.6801 C   0  0  0  0  0  0  0  0  0  0  0  0
  -34.0115    9.4288  -17.5790 O   0  0  0  0  0  0  0  0  0  0  0  0
  -32.4971   10.8192  -18.7738 C   0  0  0  0  0  0  0  0  0  0  0  0
  -30.8847    9.5145  -17.4832 N   0  0  0  0  0  0  0  0  0  0  0  0
  -31.2465    8.1371  -17.2828 C   0  0  0  0  0  0  0  0  0  0  0  0
  -31.8952    7.2791  -18.3513 C   0  0  0  0  0  0  0  0  0  0  0  0
  -31.0164    7.6260  -16.1814 O   0  0  0  0  0  0  0  0  0  0  0  0
  -28.7696   11.1339  -18.6187 N   0  3  0  0  0  0  0  0  0  0  0  0
  -33.8571    8.8207  -19.7768 N   0  0  0  0  0  0  0  0  0  0  0  0
  -34.8448    7.7953  -19.5546 C   0  0  0  0  0  0  0  0  0  0  0  0
  -35.6755    7.5593  -20.8341 C   0  0  0  0  0  0  0  0  0  0  0  0
  -33.2309    8.9237  -21.0760 C   0  0  0  0  0  0  0  0  0  0  0  0
  -32.0100    7.9799  -21.1473 C   0  0  0  0  0  0  0  0  0  0  0  0
  -30.8459    9.6550  -19.5769 H   0  0  0  0  0  0  0  0  0  0  0  0
  -30.3992   12.0878  -17.7271 H   0  0  0  0  0  0  0  0  0  0  0  0
  -29.6779   13.0448  -20.2127 H   0  0  0  0  0  0  0  0  0  0  0  0
  -32.6349   11.5020  -17.9225 H   0  0  0  0  0  0  0  0  0  0  0  0
  -30.4492   10.0009  -16.6866 H   0  0  0  0  0  0  0  0  0  0  0  0
  -31.3033    7.5009  -19.2516 H   0  0  0  0  0  0  0  0  0  0  0  0
  -32.8746    7.7566  -18.5027 H   0  0  0  0  0  0  0  0  0  0  0  0
  -31.9612    6.2050  -18.1231 H   0  0  0  0  0  0  0  0  0  0  0  0
  -28.6556   10.2441  -19.1247 H   0  0  0  0  0  0  0  0  0  0  0  0
  -28.4755   11.0072  -17.6397 H   0  0  0  0  0  0  0  0  0  0  0  0
  -28.1941   11.8632  -19.0632 H   0  0  0  0  0  0  0  0  0  0  0  0
  -35.5142    8.1042  -18.7383 H   0  0  0  0  0  0  0  0  0  0  0  0
  -34.3406    6.8598  -19.2705 H   0  0  0  0  0  0  0  0  0  0  0  0
  -35.0030    7.2503  -21.6478 H   0  0  0  0  0  0  0  0  0  0  0  0
  -36.1774    8.4969  -21.1152 H   0  0  0  0  0  0  0  0  0  0  0  0
  -36.4260    6.7754  -20.6543 H   0  0  0  0  0  0  0  0  0  0  0  0
  -33.9555    8.6428  -21.8546 H   0  0  0  0  0  0  0  0  0  0  0  0
  -32.9015    9.9598  -21.2432 H   0  0  0  0  0  0  0  0  0  0  0  0
  -32.3400    6.9438  -20.9810 H   0  0  0  0  0  0  0  0  0  0  0  0
  -31.2858    8.2612  -20.3684 H   0  0  0  0  0  0  0  0  0  0  0  0
  -31.5363    8.0609  -22.1368 H   0  0  0  0  0  0  0  0  0  0  0  0
  1  5  1  0  0  0  0
  1  4  2  0  0  0  0
  1  6  1  0  0  0  0
  2 11  1  0  0  0  0
  2  3  1  0  0  0  0
  2 12  1  0  0  0  0
  2 22  1  0  0  0  0
  3  4  1  0  0  0  0
  3 16  1  0  0  0  0
  3 23  1  0  0  0  0
  4 24  1  0  0  0  0
  5 11  1  0  0  0  0
  6  7  2  0  0  0  0
  6  8  1  0  0  0  0
  9 11  1  0  0  0  0
  9 17  1  0  0  0  0
  9 10  2  0  0  0  0
 11 25  1  0  0  0  0
 12 13  1  0  0  0  0
 12 26  1  0  0  0  0
 13 14  1  0  0  0  0
 13 15  2  0  0  0  0
 14 27  1  0  0  0  0
 14 28  1  0  0  0  0
 14 29  1  0  0  0  0
 16 30  1  0  0  0  0
 16 31  1  0  0  0  0
 16 32  1  0  0  0  0
 17 18  1  0  0  0  0
 17 20  1  0  0  0  0
 18 19  1  0  0  0  0
 18 33  1  0  0  0  0
 18 34  1  0  0  0  0
 19 35  1  0  0  0  0
 19 36  1  0  0  0  0
 19 37  1  0  0  0  0
 20 21  1  0  0  0  0
 20 38  1  0  0  0  0
 20 39  1  0  0  0  0
 21 40  1  0  0  0  0
 21 41  1  0  0  0  0
 21 42  1  0  0  0  0
M  END
> <Name>
BDB4937

> <Target>
Neuraminidase A

> <IC50_in_nM>
3

> <Kd_from_ITC>
false

> <source_organism>
Influenza A virus (A/Singapore/1/57(H2N2))

> <SourceTag>
NA

> <atoms in reference ligand area>
16

> <score>
-7.95667

$$$$
BDB5003
      BALL 1.4.0 (Jan  4 2012, 23:22:29)

 54 55  0999  0  0  0  0  0  0999 V2000
  -29.9081    4.5983  -18.4862 C   0  0  0  0  0  0  0  0  0  0  0  0
  -29.9011    5.6859  -19.5219 C   0  0  0  0  0  0  0  0  0  0  0  0
  -28.4137    5.9235  -20.0764 C   0  0  0  0  0  0  0  0  0  0  0  0
  -27.3132    5.9289  -18.9753 C   0  0  0  0  0  0  0  0  0  0  0  0
  -27.3521    4.6042  -18.2180 C   0  0  0  0  0  0  0  0  0  0  0  0
  -28.8008    4.1406  -17.8702 C   0  0  0  0  0  0  0  0  0  0  0  0
  -28.9731    3.0578  -16.9146 C   0  0  0  0  0  0  0  0  0  0  0  0
  -28.0478    2.2615  -16.7175 O   0  0  0  0  0  0  0  0  0  0  0  0
  -30.1214    2.9559  -16.2043 O   0  5  0  0  0  0  0  0  0  0  0  0
  -27.4427    6.9428  -18.0257 N   0  3  0  0  0  0  0  0  0  0  0  0
  -27.9409    4.9599  -21.1791 N   0  0  0  0  0  0  0  0  0  0  0  0
  -28.5867    3.8214  -21.8615 C   0  0  0  0  0  0  0  0  0  0  0  0
  -30.0576    3.5470  -21.9903 C   0  0  0  0  0  0  0  0  0  0  0  0
  -27.8349    3.0570  -22.4771 O   0  0  0  0  0  0  0  0  0  0  0  0
  -30.7240    6.8719  -18.9679 O   0  0  0  0  0  0  0  0  0  0  0  0
  -31.2433    7.9202  -19.8540 C   0  0  0  0  0  0  0  0  0  0  0  0
  -31.0831    9.3194  -19.2778 C   0  0  0  0  0  0  0  0  0  0  0  0
  -31.4786   10.2265  -20.4674 C   0  0  0  0  0  0  0  0  0  0  0  0
  -32.1193   11.4910  -20.0307 C   0  0  0  0  0  0  0  0  0  0  0  0
  -33.1903   13.5596  -20.6405 C   0  0  0  0  0  0  0  0  0  0  0  0
  -33.4097   13.8306  -19.2884 C   0  0  0  0  0  0  0  0  0  0  0  0
  -32.9851   12.9359  -18.3223 C   0  0  0  0  0  0  0  0  0  0  0  0
  -32.3407   11.7534  -18.7012 C   0  0  0  0  0  0  0  0  0  0  0  0
  -32.5469   12.3987  -21.0138 C   0  0  0  0  0  0  0  0  0  0  0  0
  -32.7823    7.7717  -20.0976 C   0  0  0  0  0  0  0  0  0  0  0  0
  -33.5651    7.8110  -18.7760 C   0  0  0  0  0  0  0  0  0  0  0  0
  -30.8483    4.1611  -18.2220 H   0  0  0  0  0  0  0  0  0  0  0  0
  -30.4911    5.3896  -20.4009 H   0  0  0  0  0  0  0  0  0  0  0  0
  -28.4208    6.8917  -20.5941 H   0  0  0  0  0  0  0  0  0  0  0  0
  -26.3385    6.0767  -19.4562 H   0  0  0  0  0  0  0  0  0  0  0  0
  -26.7811    4.7019  -17.3005 H   0  0  0  0  0  0  0  0  0  0  0  0
  -26.8674    3.8371  -18.8179 H   0  0  0  0  0  0  0  0  0  0  0  0
  -26.5587    7.2592  -17.8027 H   0  0  0  0  0  0  0  0  0  0  0  0
  -27.9413    6.5743  -17.2054 H   0  0  0  0  0  0  0  0  0  0  0  0
  -27.9656    7.7211  -18.4260 H   0  0  0  0  0  0  0  0  0  0  0  0
  -26.9861    5.0732  -21.4202 H   0  0  0  0  0  0  0  0  0  0  0  0
  -30.4045    4.5217  -22.4069 H   0  0  0  0  0  0  0  0  0  0  0  0
  -30.3642    3.6075  -20.9196 H   0  0  0  0  0  0  0  0  0  0  0  0
  -30.3147    2.7760  -22.4572 H   0  0  0  0  0  0  0  0  0  0  0  0
  -30.6887    7.9099  -20.7940 H   0  0  0  0  0  0  0  0  0  0  0  0
  -30.0871    9.4876  -19.0200 H   0  0  0  0  0  0  0  0  0  0  0  0
  -31.7524    9.4588  -18.4870 H   0  0  0  0  0  0  0  0  0  0  0  0
  -30.5920   10.4602  -21.0482 H   0  0  0  0  0  0  0  0  0  0  0  0
  -32.1604    9.6896  -21.1144 H   0  0  0  0  0  0  0  0  0  0  0  0
  -33.5213   14.2519  -21.3861 H   0  0  0  0  0  0  0  0  0  0  0  0
  -33.9074   14.7324  -18.9987 H   0  0  0  0  0  0  0  0  0  0  0  0
  -33.1494   13.1481  -17.2867 H   0  0  0  0  0  0  0  0  0  0  0  0
  -32.0211   11.0547  -17.9565 H   0  0  0  0  0  0  0  0  0  0  0  0
  -32.3738   12.1900  -22.0489 H   0  0  0  0  0  0  0  0  0  0  0  0
  -32.9763    6.8368  -20.5973 H   0  0  0  0  0  0  0  0  0  0  0  0
  -33.1219    8.5738  -20.7367 H   0  0  0  0  0  0  0  0  0  0  0  0
  -33.3629    8.7458  -18.2876 H   0  0  0  0  0  0  0  0  0  0  0  0
  -33.2174    7.0110  -18.1497 H   0  0  0  0  0  0  0  0  0  0  0  0
  -34.6010    7.7095  -18.9593 H   0  0  0  0  0  0  0  0  0  0  0  0
  1  2  1  0  0  0  0
  1  6  2  0  0  0  0
  1 27  1  0  0  0  0
  2  3  1  0  0  0  0
  2 15  1  0  0  0  0
  2 28  1  0  0  0  0
  3  4  1  0  0  0  0
  3 11  1  0  0  0  0
  3 29  1  0  0  0  0
  4  5  1  0  0  0  0
  4 10  1  0  0  0  0
  4 30  1  0  0  0  0
  5  6  1  0  0  0  0
  5 31  1  0  0  0  0
  5 32  1  0  0  0  0
  6  7  1  0  0  0  0
  7  8  2  0  0  0  0
  7  9  1  0  0  0  0
 10 33  1  0  0  0  0
 10 34  1  0  0  0  0
 10 35  1  0  0  0  0
 11 12  1  0  0  0  0
 11 36  1  0  0  0  0
 12 13  1  0  0  0  0
 12 14  2  0  0  0  0
 13 37  1  0  0  0  0
 13 38  1  0  0  0  0
 13 39  1  0  0  0  0
 15 16  1  0  0  0  0
 16 17  1  0  0  0  0
 16 25  1  0  0  0  0
 16 40  1  0  0  0  0
 17 18  1  0  0  0  0
 17 41  1  0  0  0  0
 17 42  1  0  0  0  0
 18 19  1  0  0  0  0
 18 43  1  0  0  0  0
 18 44  1  0  0  0  0
 19 23  2  0  0  0  0
 19 24  1  0  0  0  0
 20 21  1  0  0  0  0
 20 24  2  0  0  0  0
 20 45  1  0  0  0  0
 21 22  2  0  0  0  0
 21 46  1  0  0  0  0
 22 23  1  0  0  0  0
 22 47  1  0  0  0  0
 23 48  1  0  0  0  0
 24 49  1  0  0  0  0
 25 26  1  0  0  0  0
 25 50  1  0  0  0  0
 25 51  1  0  0  0  0
 26 52  1  0  0  0  0
 26 53  1  0  0  0  0
 26 54  1  0  0  0  0
M  END
> <Name>
BDB5003

> <Target>
Neuraminidase A

> <IC50_in_nM>
0.3

> <Kd_from_ITC>
false

> <source_organism>
Influenza A virus (A/Puerto Rico/8/34/Mount Sinai(H1N1))

> <SourceTag>
NA

> <atoms in reference ligand area>
11

> <score>
-7.48652

$$$$
BDB5198
      BALL 1.4.0 (Jan  4 2012, 23:22:29)

 45 46  0999  0  0  0  0  0  0999 V2000
  -32.5882    7.3665  -20.8482 C   0  0  0  0  0  0  0  0  0  0  0  0
  -31.6931    7.8007  -21.9795 C   0  0  0  0  0  0  0  0  0  0  0  0
  -31.1824    9.2049  -20.1332 N   0  3  0  0  0  0  0  0  0  0  0  0
  -31.7184    7.8774  -19.6850 C   0  0  0  0  0  0  0  0  0  0  0  0
  -32.4853    7.9619  -18.3965 C   0  0  0  0  0  0  0  0  0  0  0  0
  -32.0715    8.6784  -17.4783 O   0  0  0  0  0  0  0  0  0  0  0  0
  -33.6355    7.2561  -18.2426 O   0  5  0  0  0  0  0  0  0  0  0  0
  -31.5195    9.2599  -21.5811 C   0  0  0  0  0  0  0  0  0  0  0  0
  -30.1517   10.0503  -21.3708 C   0  0  0  0  0  0  0  0  0  0  0  0
  -30.4629   11.6148  -21.8290 C   0  0  0  0  0  0  0  0  0  0  0  0
  -30.6639   11.6156  -20.2833 C   0  0  0  0  0  0  0  0  0  0  0  0
  -32.1560   11.3987  -19.9805 C   0  0  0  0  0  0  0  0  0  0  0  0
  -30.2292   12.9544  -19.6482 C   0  0  0  0  0  0  0  0  0  0  0  0
  -29.2471    9.5142  -22.4714 N   0  0  0  0  0  0  0  0  0  0  0  0
  -28.6535    9.7333  -23.7308 C   0  0  0  0  0  0  0  0  0  0  0  0
  -29.4969   10.0507  -24.9392 C   0  0  0  0  0  0  0  0  0  0  0  0
  -27.4284    9.6540  -23.8476 O   0  0  0  0  0  0  0  0  0  0  0  0
  -32.3509    7.6631  -23.3247 C   0  0  0  0  0  0  0  0  0  0  0  0
  -33.8190    7.6754  -25.2151 C   0  0  0  0  0  0  0  0  0  0  0  0
  -32.5537    7.1442  -25.4612 C   0  0  0  0  0  0  0  0  0  0  0  0
  -31.7572    7.1501  -24.3902 N   0  0  0  0  0  0  0  0  0  0  0  0
  -33.9151    8.1558  -23.6112 S   0  0  0  0  0  0  0  0  0  0  0  0
  -32.6748    6.2703  -20.8170 H   0  0  0  0  0  0  0  0  0  0  0  0
  -33.5482    7.9024  -20.8819 H   0  0  0  0  0  0  0  0  0  0  0  0
  -30.7681    7.2174  -22.0984 H   0  0  0  0  0  0  0  0  0  0  0  0
  -31.6569    9.9677  -19.6292 H   0  0  0  0  0  0  0  0  0  0  0  0
  -30.1609    9.2378  -20.0054 H   0  0  0  0  0  0  0  0  0  0  0  0
  -30.8972    7.1808  -19.4604 H   0  0  0  0  0  0  0  0  0  0  0  0
  -32.4292    9.8491  -21.7688 H   0  0  0  0  0  0  0  0  0  0  0  0
  -29.7629    9.9545  -20.3462 H   0  0  0  0  0  0  0  0  0  0  0  0
  -29.7029   12.3679  -22.0841 H   0  0  0  0  0  0  0  0  0  0  0  0
  -31.4014   11.9361  -22.3044 H   0  0  0  0  0  0  0  0  0  0  0  0
  -30.0439   10.8123  -19.8587 H   0  0  0  0  0  0  0  0  0  0  0  0
  -32.4845   10.4323  -20.3907 H   0  0  0  0  0  0  0  0  0  0  0  0
  -32.7501   12.2101  -20.4261 H   0  0  0  0  0  0  0  0  0  0  0  0
  -32.3068   11.3978  -18.8910 H   0  0  0  0  0  0  0  0  0  0  0  0
  -29.1322   13.0214  -19.6937 H   0  0  0  0  0  0  0  0  0  0  0  0
  -30.5424   12.9574  -18.5938 H   0  0  0  0  0  0  0  0  0  0  0  0
  -30.6842   13.8015  -20.1824 H   0  0  0  0  0  0  0  0  0  0  0  0
  -28.6513    9.2383  -21.6778 H   0  0  0  0  0  0  0  0  0  0  0  0
  -29.7863   11.1036  -24.8068 H   0  0  0  0  0  0  0  0  0  0  0  0
  -30.4083    9.4492  -24.8073 H   0  0  0  0  0  0  0  0  0  0  0  0
  -28.9987    9.8636  -25.9019 H   0  0  0  0  0  0  0  0  0  0  0  0
  -34.6270    7.7653  -25.9562 H   0  0  0  0  0  0  0  0  0  0  0  0
  -32.2419    6.7577  -26.4427 H   0  0  0  0  0  0  0  0  0  0  0  0
  1  4  1  0  0  0  0
  1  2  1  0  0  0  0
  1 23  1  0  0  0  0
  1 24  1  0  0  0  0
  2  8  1  0  0  0  0
  2 18  1  0  0  0  0
  2 25  1  0  0  0  0
  3  4  1  0  0  0  0
  3  8  1  0  0  0  0
  3 26  1  0  0  0  0
  3 27  1  0  0  0  0
  4  5  1  0  0  0  0
  4 28  1  0  0  0  0
  5  6  2  0  0  0  0
  5  7  1  0  0  0  0
  8  9  1  0  0  0  0
  8 29  1  0  0  0  0
  9 10  1  0  0  0  0
  9 14  1  0  0  0  0
  9 30  1  0  0  0  0
 10 11  1  0  0  0  0
 10 31  1  0  0  0  0
 10 32  1  0  0  0  0
 11 12  1  0  0  0  0
 11 13  1  0  0  0  0
 11 33  1  0  0  0  0
 12 34  1  0  0  0  0
 12 35  1  0  0  0  0
 12 36  1  0  0  0  0
 13 37  1  0  0  0  0
 13 38  1  0  0  0  0
 13 39  1  0  0  0  0
 14 15  1  0  0  0  0
 14 40  1  0  0  0  0
 15 16  1  0  0  0  0
 15 17  2  0  0  0  0
 16 41  1  0  0  0  0
 16 42  1  0  0  0  0
 16 43  1  0  0  0  0
 18 21  2  0  0  0  0
 18 22  1  0  0  0  0
 19 20  2  0  0  0  0
 19 22  1  0  0  0  0
 19 44  1  0  0  0  0
 20 21  1  0  0  0  0
 20 45  1  0  0  0  0
M  END
> <Name>
BDB5198

> <Target>
Neuraminidase A

> <Ki_in_nM>
310

> <Kd_from_ITC>
false

> <Uniprot_ID>
P06820

> <source_organism>
Influenza A virus (A/Tokyo/3/67(H2N2))

> <SourceTag>
NA

> <atoms in reference ligand area>
14

> <score>
-7.46144

$$$$
BDB5219
      BALL 1.4.0 (Jan  4 2012, 23:22:29)

 37 37  0999  0  0  0  0  0  0999 V2000
  -30.1426   10.1111  -21.5638 C   0  0  0  0  0  0  0  0  0  0  0  0
  -30.5285   11.5100  -21.9739 C   0  0  0  0  0  0  0  0  0  0  0  0
  -31.7482   11.4987  -22.9680 C   0  0  0  0  0  0  0  0  0  0  0  0
  -31.6238   10.4255  -24.0828 C   0  0  0  0  0  0  0  0  0  0  0  0
  -31.5968    9.0593  -23.3775 C   0  0  0  0  0  0  0  0  0  0  0  0
  -30.6087    9.0072  -22.1962 C   0  0  0  0  0  0  0  0  0  0  0  0
  -30.2214    7.7133  -21.6543 C   0  0  0  0  0  0  0  0  0  0  0  0
  -31.0352    6.7935  -21.6015 O   0  0  0  0  0  0  0  0  0  0  0  0
  -33.0638   11.2270  -22.3213 N   0  5  0  0  0  0  0  0  0  0  0  0
  -33.3619   10.7691  -20.9988 C   0  0  0  0  0  0  0  0  0  0  0  0
  -32.4951   10.5466  -20.1532 O   0  0  0  0  0  0  0  0  0  0  0  0
  -29.3598   12.2325  -22.5022 O   0  0  0  0  0  0  0  0  0  0  0  0
  -30.4671   10.5250  -24.9625 N   0  3  0  0  0  0  0  0  0  0  0  0
  -28.9346    7.5113  -21.2628 O   0  5  0  0  0  0  0  0  0  0  0  0
  -28.7478   13.1707  -21.6156 C   0  0  0  0  0  0  0  0  0  0  0  0
  -27.2736   13.3352  -22.0547 C   0  0  0  0  0  0  0  0  0  0  0  0
  -26.4806   14.0757  -20.9648 C   0  0  0  0  0  0  0  0  0  0  0  0
  -34.7919   10.5120  -20.6408 C   0  0  0  0  0  0  0  0  0  0  0  0
  -35.3148   11.6347  -20.0374 F   0  0  0  0  0  0  0  0  0  0  0  0
  -35.5099   10.2276  -21.7846 F   0  0  0  0  0  0  0  0  0  0  0  0
  -34.8652    9.4456  -19.7676 F   0  0  0  0  0  0  0  0  0  0  0  0
  -29.4728    9.9850  -20.7390 H   0  0  0  0  0  0  0  0  0  0  0  0
  -30.8365   12.1002  -21.0979 H   0  0  0  0  0  0  0  0  0  0  0  0
  -31.8302   12.5028  -23.4068 H   0  0  0  0  0  0  0  0  0  0  0  0
  -32.5127   10.4979  -24.7207 H   0  0  0  0  0  0  0  0  0  0  0  0
  -31.3295    8.2921  -24.0971 H   0  0  0  0  0  0  0  0  0  0  0  0
  -32.5959    8.8255  -23.0156 H   0  0  0  0  0  0  0  0  0  0  0  0
  -29.7625    9.9238  -24.6573 H   0  0  0  0  0  0  0  0  0  0  0  0
  -30.1281   11.4955  -24.9944 H   0  0  0  0  0  0  0  0  0  0  0  0
  -30.7449   10.2272  -25.9057 H   0  0  0  0  0  0  0  0  0  0  0  0
  -29.2472   14.1084  -21.6850 H   0  0  0  0  0  0  0  0  0  0  0  0
  -28.7831   12.8003  -20.6212 H   0  0  0  0  0  0  0  0  0  0  0  0
  -27.2328   13.8958  -22.9669 H   0  0  0  0  0  0  0  0  0  0  0  0
  -26.8385   12.3664  -22.2163 H   0  0  0  0  0  0  0  0  0  0  0  0
  -26.6638   13.6117  -20.0175 H   0  0  0  0  0  0  0  0  0  0  0  0
  -26.8012   15.0964  -20.9264 H   0  0  0  0  0  0  0  0  0  0  0  0
  -25.4361   14.0355  -21.1884 H   0  0  0  0  0  0  0  0  0  0  0  0
  1  2  1  0  0  0  0
  1  6  2  0  0  0  0
  1 22  1  0  0  0  0
  2  3  1  0  0  0  0
  2 12  1  0  0  0  0
  2 23  1  0  0  0  0
  3  4  1  0  0  0  0
  3  9  1  0  0  0  0
  3 24  1  0  0  0  0
  4  5  1  0  0  0  0
  4 13  1  0  0  0  0
  4 25  1  0  0  0  0
  5  6  1  0  0  0  0
  5 26  1  0  0  0  0
  5 27  1  0  0  0  0
  6  7  1  0  0  0  0
  7  8  2  0  0  0  0
  7 14  1  0  0  0  0
  9 10  1  0  0  0  0
 10 18  1  0  0  0  0
 10 11  2  0  0  0  0
 12 15  1  0  0  0  0
 13 28  1  0  0  0  0
 13 29  1  0  0  0  0
 13 30  1  0  0  0  0
 15 16  1  0  0  0  0
 15 31  1  0  0  0  0
 15 32  1  0  0  0  0
 16 17  1  0  0  0  0
 16 33  1  0  0  0  0
 16 34  1  0  0  0  0
 17 35  1  0  0  0  0
 17 36  1  0  0  0  0
 17 37  1  0  0  0  0
 18 21  1  0  0  0  0
 18 19  1  0  0  0  0
 18 20  1  0  0  0  0
M  END
> <Name>
BDB5219

> <Target>
Neuraminidase A

> <IC50_in_nM>
100

> <Kd_from_ITC>
false

> <source_organism>
Influenza A virus (A/Puerto Rico/8/34(H1N1))

> <SourceTag>
NA

> <atoms in reference ligand area>
20

> <score>
-7.34044

$$$$
BDB5200
      BALL 1.4.0 (Jan  4 2012, 23:22:29)

 46 47  0999  0  0  0  0  0  0999 V2000
  -31.8980   10.5785  -18.8525 C   0  0  0  0  0  0  0  0  0  0  0  0
  -32.3689   10.3717  -20.2685 C   0  0  0  0  0  0  0  0  0  0  0  0
  -31.1317    8.4330  -19.6750 N   0  3  0  0  0  0  0  0  0  0  0  0
  -31.7287    9.0968  -18.4696 C   0  0  0  0  0  0  0  0  0  0  0  0
  -30.8949    8.9213  -17.2329 C   0  0  0  0  0  0  0  0  0  0  0  0
  -29.7294    9.3323  -17.2114 O   0  0  0  0  0  0  0  0  0  0  0  0
  -31.4229    8.3166  -16.1373 O   0  5  0  0  0  0  0  0  0  0  0  0
  -31.2484    9.4583  -20.7465 C   0  0  0  0  0  0  0  0  0  0  0  0
  -31.3917    8.0251  -21.4285 C   0  0  0  0  0  0  0  0  0  0  0  0
  -31.2726    8.2920  -23.0622 C   0  0  0  0  0  0  0  0  0  0  0  0
  -30.3722    7.0458  -22.8057 C   0  0  0  0  0  0  0  0  0  0  0  0
  -28.9620    7.3375  -23.3456 C   0  0  0  0  0  0  0  0  0  0  0  0
  -30.9148    5.7883  -23.5193 C   0  0  0  0  0  0  0  0  0  0  0  0
  -32.8555    7.6647  -21.2171 N   0  0  0  0  0  0  0  0  0  0  0  0
  -34.1673    7.6802  -21.7322 C   0  0  0  0  0  0  0  0  0  0  0  0
  -34.8177    8.9729  -22.1544 C   0  0  0  0  0  0  0  0  0  0  0  0
  -34.7950    6.6232  -21.8292 O   0  0  0  0  0  0  0  0  0  0  0  0
  -32.4201   11.6557  -21.0572 C   0  0  0  0  0  0  0  0  0  0  0  0
  -33.0204   13.5623  -21.8599 C   0  0  0  0  0  0  0  0  0  0  0  0
  -31.5190   12.0340  -21.9376 N   0  0  0  0  0  0  0  0  0  0  0  0
  -31.8750   13.1590  -22.4099 N   0  0  0  0  0  0  0  0  0  0  0  0
  -33.4182   12.5913  -20.9539 C   0  0  0  0  0  0  0  0  0  0  0  0
  -32.6839   11.0502  -18.2443 H   0  0  0  0  0  0  0  0  0  0  0  0
  -30.9291   11.0989  -18.8351 H   0  0  0  0  0  0  0  0  0  0  0  0
  -33.3914    9.9796  -20.3721 H   0  0  0  0  0  0  0  0  0  0  0  0
  -30.1408    8.2103  -19.5034 H   0  0  0  0  0  0  0  0  0  0  0  0
  -31.6754    7.5948  -19.9256 H   0  0  0  0  0  0  0  0  0  0  0  0
  -32.6928    8.6362  -18.2078 H   0  0  0  0  0  0  0  0  0  0  0  0
  -30.3060   10.0057  -20.8955 H   0  0  0  0  0  0  0  0  0  0  0  0
  -30.6619    7.2990  -21.0408 H   0  0  0  0  0  0  0  0  0  0  0  0
  -32.0349    8.0259  -23.8093 H   0  0  0  0  0  0  0  0  0  0  0  0
  -30.6542    9.0853  -23.5073 H   0  0  0  0  0  0  0  0  0  0  0  0
  -30.3589    6.8521  -21.7230 H   0  0  0  0  0  0  0  0  0  0  0  0
  -28.5356    8.2088  -22.8269 H   0  0  0  0  0  0  0  0  0  0  0  0
  -29.0090    7.5375  -24.4262 H   0  0  0  0  0  0  0  0  0  0  0  0
  -28.3196    6.4624  -23.1685 H   0  0  0  0  0  0  0  0  0  0  0  0
  -30.9613    5.9936  -24.5990 H   0  0  0  0  0  0  0  0  0  0  0  0
  -31.9320    5.5904  -23.1506 H   0  0  0  0  0  0  0  0  0  0  0  0
  -30.2647    4.9226  -23.3247 H   0  0  0  0  0  0  0  0  0  0  0  0
  -32.4603    6.7755  -20.8793 H   0  0  0  0  0  0  0  0  0  0  0  0
  -34.1275    9.4016  -22.8959 H   0  0  0  0  0  0  0  0  0  0  0  0
  -34.7668    9.6137  -21.2618 H   0  0  0  0  0  0  0  0  0  0  0  0
  -35.8416    8.8607  -22.5404 H   0  0  0  0  0  0  0  0  0  0  0  0
  -33.5541   14.4975  -22.0847 H   0  0  0  0  0  0  0  0  0  0  0  0
  -31.3498   13.6873  -23.1212 H   0  0  0  0  0  0  0  0  0  0  0  0
  -34.3114   12.5751  -20.3121 H   0  0  0  0  0  0  0  0  0  0  0  0
  1  4  1  0  0  0  0
  1  2  1  0  0  0  0
  1 23  1  0  0  0  0
  1 24  1  0  0  0  0
  2  8  1  0  0  0  0
  2 18  1  0  0  0  0
  2 25  1  0  0  0  0
  3  4  1  0  0  0  0
  3  8  1  0  0  0  0
  3 26  1  0  0  0  0
  3 27  1  0  0  0  0
  4  5  1  0  0  0  0
  4 28  1  0  0  0  0
  5  6  2  0  0  0  0
  5  7  1  0  0  0  0
  8  9  1  0  0  0  0
  8 29  1  0  0  0  0
  9 10  1  0  0  0  0
  9 14  1  0  0  0  0
  9 30  1  0  0  0  0
 10 11  1  0  0  0  0
 10 31  1  0  0  0  0
 10 32  1  0  0  0  0
 11 12  1  0  0  0  0
 11 13  1  0  0  0  0
 11 33  1  0  0  0  0
 12 34  1  0  0  0  0
 12 35  1  0  0  0  0
 12 36  1  0  0  0  0
 13 37  1  0  0  0  0
 13 38  1  0  0  0  0
 13 39  1  0  0  0  0
 14 15  1  0  0  0  0
 14 40  1  0  0  0  0
 15 16  1  0  0  0  0
 15 17  2  0  0  0  0
 16 41  1  0  0  0  0
 16 42  1  0  0  0  0
 16 43  1  0  0  0  0
 18 22  1  0  0  0  0
 18 20  2  0  0  0  0
 19 22  2  0  0  0  0
 19 21  1  0  0  0  0
 19 44  1  0  0  0  0
 20 21  1  0  0  0  0
 21 45  1  0  0  0  0
 22 46  1  0  0  0  0
M  END
> <Name>
BDB5200

> <Target>
Neuraminidase A

> <Ki_in_nM>
45

> <Kd_from_ITC>
false

> <Uniprot_ID>
P06820

> <source_organism>
Influenza A virus (A/Tokyo/3/67(H2N2))

> <SourceTag>
NA

> <atoms in reference ligand area>
12

> <score>
-6.80419

$$$$
BDB4948
      BALL 1.4.0 (Jan  4 2012, 23:22:29)

 66 66  0999  0  0  0  0  0  0999 V2000
  -29.9958   10.9498  -21.3976 C   0  0  0  0  0  0  0  0  0  0  0  0
  -32.2927    9.9661  -22.5520 C   0  0  0  0  0  0  0  0  0  0  0  0
  -31.1250   10.2622  -23.4761 C   0  0  0  0  0  0  0  0  0  0  0  0
  -30.1098   11.0464  -22.7265 C   0  0  0  0  0  0  0  0  0  0  0  0
  -30.8149   10.0942  -20.6122 O   0  0  0  0  0  0  0  0  0  0  0  0
  -29.0075   11.7882  -20.7173 C   0  0  0  0  0  0  0  0  0  0  0  0
  -28.8898   11.7320  -19.4879 O   0  0  0  0  0  0  0  0  0  0  0  0
  -28.2192   12.6286  -21.4373 O   0  5  0  0  0  0  0  0  0  0  0  0
  -32.8138    8.7387  -20.4306 C   0  0  0  0  0  0  0  0  0  0  0  0
  -33.8469    8.3013  -20.9450 O   0  0  0  0  0  0  0  0  0  0  0  0
  -31.7012    9.2344  -21.3626 C   0  0  0  0  0  0  0  0  0  0  0  0
  -33.2372    9.0887  -23.2566 N   0  0  0  0  0  0  0  0  0  0  0  0
  -33.1985    7.6516  -23.2985 C   0  0  0  0  0  0  0  0  0  0  0  0
  -32.1406    6.8229  -22.5965 C   0  0  0  0  0  0  0  0  0  0  0  0
  -34.0738    7.0611  -23.9407 O   0  0  0  0  0  0  0  0  0  0  0  0
  -31.5813   11.0063  -24.6586 N   0  3  0  0  0  0  0  0  0  0  0  0
  -32.7378    8.7715  -19.0031 N   0  0  0  0  0  0  0  0  0  0  0  0
  -33.8416    8.2171  -18.2528 C   0  0  0  0  0  0  0  0  0  0  0  0
  -31.6272    9.3668  -18.2902 C   0  0  0  0  0  0  0  0  0  0  0  0
  -31.8147   10.8991  -18.1884 C   0  0  0  0  0  0  0  0  0  0  0  0
  -30.6350   11.5066  -17.4103 C   0  0  0  0  0  0  0  0  0  0  0  0
  -34.4861    9.2975  -17.3616 C   0  0  0  0  0  0  0  0  0  0  0  0
  -34.8979    8.6904  -16.0129 C   0  0  0  0  0  0  0  0  0  0  0  0
  -35.4197    7.2646  -16.2535 C   0  0  0  0  0  0  0  0  0  0  0  0
  -35.8302    6.6269  -14.9171 C   0  0  0  0  0  0  0  0  0  0  0  0
  -36.3218    5.1931  -15.1771 C   0  0  0  0  0  0  0  0  0  0  0  0
  -36.7478    4.5444  -13.8501 C   0  0  0  0  0  0  0  0  0  0  0  0
  -37.2334    3.1091  -14.1192 C   0  0  0  0  0  0  0  0  0  0  0  0
  -37.6729    2.4590  -12.7953 C   0  0  0  0  0  0  0  0  0  0  0  0
  -32.8241   10.8770  -22.2389 H   0  0  0  0  0  0  0  0  0  0  0  0
  -30.6793    9.3184  -23.8234 H   0  0  0  0  0  0  0  0  0  0  0  0
  -29.4374   11.7211  -23.2766 H   0  0  0  0  0  0  0  0  0  0  0  0
  -31.1310    8.3780  -21.7517 H   0  0  0  0  0  0  0  0  0  0  0  0
  -34.0023    9.5478  -23.7711 H   0  0  0  0  0  0  0  0  0  0  0  0
  -32.2056    7.1581  -21.5508 H   0  0  0  0  0  0  0  0  0  0  0  0
  -31.1963    7.2273  -22.9902 H   0  0  0  0  0  0  0  0  0  0  0  0
  -32.2345    5.7333  -22.7147 H   0  0  0  0  0  0  0  0  0  0  0  0
  -30.8198   11.6175  -24.9863 H   0  0  0  0  0  0  0  0  0  0  0  0
  -32.3928   11.5853  -24.3995 H   0  0  0  0  0  0  0  0  0  0  0  0
  -31.8469   10.3498  -25.4065 H   0  0  0  0  0  0  0  0  0  0  0  0
  -33.4762    7.3947  -17.6203 H   0  0  0  0  0  0  0  0  0  0  0  0
  -34.5953    7.8244  -18.9511 H   0  0  0  0  0  0  0  0  0  0  0  0
  -30.6909    9.1493  -18.8251 H   0  0  0  0  0  0  0  0  0  0  0  0
  -31.5718    8.9385  -17.2785 H   0  0  0  0  0  0  0  0  0  0  0  0
  -32.7541   11.1207  -17.6609 H   0  0  0  0  0  0  0  0  0  0  0  0
  -31.8492   11.3326  -19.1987 H   0  0  0  0  0  0  0  0  0  0  0  0
  -29.6943   11.2873  -17.9366 H   0  0  0  0  0  0  0  0  0  0  0  0
  -30.5987   11.0745  -16.3994 H   0  0  0  0  0  0  0  0  0  0  0  0
  -30.7667   12.5962  -17.3369 H   0  0  0  0  0  0  0  0  0  0  0  0
  -33.7635   10.1091  -17.1909 H   0  0  0  0  0  0  0  0  0  0  0  0
  -35.3755    9.7046  -17.8649 H   0  0  0  0  0  0  0  0  0  0  0  0
  -35.6925    9.3013  -15.5597 H   0  0  0  0  0  0  0  0  0  0  0  0
  -34.0263    8.6551  -15.3428 H   0  0  0  0  0  0  0  0  0  0  0  0
  -36.2914    7.3022  -16.9232 H   0  0  0  0  0  0  0  0  0  0  0  0
  -34.6289    6.6584  -16.7195 H   0  0  0  0  0  0  0  0  0  0  0  0
  -34.9636    6.6011  -14.2402 H   0  0  0  0  0  0  0  0  0  0  0  0
  -36.6397    7.2155  -14.4607 H   0  0  0  0  0  0  0  0  0  0  0  0
  -37.1809    5.2191  -15.8638 H   0  0  0  0  0  0  0  0  0  0  0  0
  -35.5109    4.6029  -15.6287 H   0  0  0  0  0  0  0  0  0  0  0  0
  -35.8899    4.5183  -13.1620 H   0  0  0  0  0  0  0  0  0  0  0  0
  -37.5637    5.1288  -13.3997 H   0  0  0  0  0  0  0  0  0  0  0  0
  -38.0849    3.1344  -14.8151 H   0  0  0  0  0  0  0  0  0  0  0  0
  -36.4157    2.5212  -14.5617 H   0  0  0  0  0  0  0  0  0  0  0  0
  -38.4914    3.0451  -12.3520 H   0  0  0  0  0  0  0  0  0  0  0  0
  -36.8223    2.4329  -12.0984 H   0  0  0  0  0  0  0  0  0  0  0  0
  -38.0201    1.4330  -12.9872 H   0  0  0  0  0  0  0  0  0  0  0  0
  1  5  1  0  0  0  0
  1  4  2  0  0  0  0
  1  6  1  0  0  0  0
  2 11  1  0  0  0  0
  2  3  1  0  0  0  0
  2 12  1  0  0  0  0
  2 30  1  0  0  0  0
  3  4  1  0  0  0  0
  3 16  1  0  0  0  0
  3 31  1  0  0  0  0
  4 32  1  0  0  0  0
  5 11  1  0  0  0  0
  6  7  2  0  0  0  0
  6  8  1  0  0  0  0
  9 11  1  0  0  0  0
  9 17  1  0  0  0  0
  9 10  2  0  0  0  0
 11 33  1  0  0  0  0
 12 13  1  0  0  0  0
 12 34  1  0  0  0  0
 13 14  1  0  0  0  0
 13 15  2  0  0  0  0
 14 35  1  0  0  0  0
 14 36  1  0  0  0  0
 14 37  1  0  0  0  0
 16 38  1  0  0  0  0
 16 39  1  0  0  0  0
 16 40  1  0  0  0  0
 17 18  1  0  0  0  0
 17 19  1  0  0  0  0
 18 22  1  0  0  0  0
 18 41  1  0  0  0  0
 18 42  1  0  0  0  0
 19 20  1  0  0  0  0
 19 43  1  0  0  0  0
 19 44  1  0  0  0  0
 20 21  1  0  0  0  0
 20 45  1  0  0  0  0
 20 46  1  0  0  0  0
 21 47  1  0  0  0  0
 21 48  1  0  0  0  0
 21 49  1  0  0  0  0
 22 23  1  0  0  0  0
 22 50  1  0  0  0  0
 22 51  1  0  0  0  0
 23 24  1  0  0  0  0
 23 52  1  0  0  0  0
 23 53  1  0  0  0  0
 24 25  1  0  0  0  0
 24 54  1  0  0  0  0
 24 55  1  0  0  0  0
 25 26  1  0  0  0  0
 25 56  1  0  0  0  0
 25 57  1  0  0  0  0
 26 27  1  0  0  0  0
 26 58  1  0  0  0  0
 26 59  1  0  0  0  0
 27 28  1  0  0  0  0
 27 60  1  0  0  0  0
 27 61  1  0  0  0  0
 28 29  1  0  0  0  0
 28 62  1  0  0  0  0
 28 63  1  0  0  0  0
 29 64  1  0  0  0  0
 29 65  1  0  0  0  0
 29 66  1  0  0  0  0
M  END
> <Name>
BDB4948

> <Target>
Neuraminidase A

> <IC50_in_nM>
23

> <Kd_from_ITC>
false

> <source_organism>
Influenza A virus (A/Singapore/1/57(H2N2))

> <SourceTag>
NA

> <atoms in reference ligand area>
15

> <score>
-6.72977

$$$$
BDB4972
      BALL 1.4.0 (Jan  4 2012, 23:22:29)

 65 67  0999  0  0  0  0  0  0999 V2000
  -37.0794    8.1834  -12.1339 C   0  0  0  0  0  0  0  0  0  0  0  0
  -35.0595   10.0173  -11.7697 C   0  0  0  0  0  0  0  0  0  0  0  0
  -35.7179    9.4553  -10.5224 C   0  0  0  0  0  0  0  0  0  0  0  0
  -36.9519    8.7293  -10.9198 C   0  0  0  0  0  0  0  0  0  0  0  0
  -36.0568    8.2430  -13.1189 O   0  0  0  0  0  0  0  0  0  0  0  0
  -38.3414    7.5256  -12.4763 C   0  0  0  0  0  0  0  0  0  0  0  0
  -38.4943    7.0253  -13.5965 O   0  0  0  0  0  0  0  0  0  0  0  0
  -39.3451    7.4649  -11.5626 O   0  5  0  0  0  0  0  0  0  0  0  0
  -34.0011    9.2492  -13.9043 C   0  0  0  0  0  0  0  0  0  0  0  0
  -33.3097   10.2703  -13.8197 O   0  0  0  0  0  0  0  0  0  0  0  0
  -34.8115    8.8271  -12.6762 C   0  0  0  0  0  0  0  0  0  0  0  0
  -33.7787   10.6282  -11.3888 N   0  0  0  0  0  0  0  0  0  0  0  0
  -32.5540    9.9322  -11.0988 C   0  0  0  0  0  0  0  0  0  0  0  0
  -32.4177    8.4230  -11.1495 C   0  0  0  0  0  0  0  0  0  0  0  0
  -31.5602   10.5997  -10.7921 O   0  0  0  0  0  0  0  0  0  0  0  0
  -36.0368   10.5357   -9.5783 N   0  3  0  0  0  0  0  0  0  0  0  0
  -33.3238    9.1514  -16.2672 C   0  0  0  0  0  0  0  0  0  0  0  0
  -33.0131    8.1071  -17.3607 C   0  0  0  0  0  0  0  0  0  0  0  0
  -32.5408    8.7986  -18.6055 C   0  0  0  0  0  0  0  0  0  0  0  0
  -32.3467   10.1746  -18.6060 C   0  0  0  0  0  0  0  0  0  0  0  0
  -32.3036    8.0622  -19.7598 C   0  0  0  0  0  0  0  0  0  0  0  0
  -31.8721    8.7019  -20.9156 C   0  0  0  0  0  0  0  0  0  0  0  0
  -34.0078    8.5470  -15.1486 N   0  0  0  0  0  0  0  0  0  0  0  0
  -34.6801    7.2752  -15.3285 C   0  0  0  0  0  0  0  0  0  0  0  0
  -36.1760    7.4944  -15.6581 C   0  0  0  0  0  0  0  0  0  0  0  0
  -36.8536    6.1307  -15.8785 C   0  0  0  0  0  0  0  0  0  0  0  0
  -31.6778   10.0780  -20.9166 C   0  0  0  0  0  0  0  0  0  0  0  0
  -31.9151   10.8142  -19.7619 C   0  0  0  0  0  0  0  0  0  0  0  0
  -31.7101   12.2660  -19.7633 C   0  0  0  0  0  0  0  0  0  0  0  0
  -31.7522   14.3794  -18.6116 C   0  0  0  0  0  0  0  0  0  0  0  0
  -31.3206   15.0179  -19.7689 C   0  0  0  0  0  0  0  0  0  0  0  0
  -31.0838   14.2807  -20.9224 C   0  0  0  0  0  0  0  0  0  0  0  0
  -31.2787   12.9039  -20.9195 C   0  0  0  0  0  0  0  0  0  0  0  0
  -31.9470   13.0039  -18.6087 C   0  0  0  0  0  0  0  0  0  0  0  0
  -35.6789   10.7782  -12.2671 H   0  0  0  0  0  0  0  0  0  0  0  0
  -35.0276    8.7617  -10.0199 H   0  0  0  0  0  0  0  0  0  0  0  0
  -37.7784    8.6389  -10.1997 H   0  0  0  0  0  0  0  0  0  0  0  0
  -34.2482    8.0814  -12.0959 H   0  0  0  0  0  0  0  0  0  0  0  0
  -33.7557   11.6558  -11.3230 H   0  0  0  0  0  0  0  0  0  0  0  0
  -32.9206    8.1525  -12.0897 H   0  0  0  0  0  0  0  0  0  0  0  0
  -33.0773    8.0795  -10.3389 H   0  0  0  0  0  0  0  0  0  0  0  0
  -31.3909    8.0358  -11.0738 H   0  0  0  0  0  0  0  0  0  0  0  0
  -35.4197   10.4583   -8.7573 H   0  0  0  0  0  0  0  0  0  0  0  0
  -37.0167   10.4402   -9.2760 H   0  0  0  0  0  0  0  0  0  0  0  0
  -35.9000   11.4504  -10.0314 H   0  0  0  0  0  0  0  0  0  0  0  0
  -32.3825    9.6005  -15.9175 H   0  0  0  0  0  0  0  0  0  0  0  0
  -33.9565    9.9442  -16.6929 H   0  0  0  0  0  0  0  0  0  0  0  0
  -33.9222    7.5303  -17.5861 H   0  0  0  0  0  0  0  0  0  0  0  0
  -32.2286    7.4243  -17.0022 H   0  0  0  0  0  0  0  0  0  0  0  0
  -32.5345   10.7573  -17.6922 H   0  0  0  0  0  0  0  0  0  0  0  0
  -32.4575    6.9731  -19.7588 H   0  0  0  0  0  0  0  0  0  0  0  0
  -31.6843    8.1192  -21.8295 H   0  0  0  0  0  0  0  0  0  0  0  0
  -34.5942    6.6835  -14.4053 H   0  0  0  0  0  0  0  0  0  0  0  0
  -34.2028    6.7249  -16.1527 H   0  0  0  0  0  0  0  0  0  0  0  0
  -36.2667    8.1004  -16.5715 H   0  0  0  0  0  0  0  0  0  0  0  0
  -36.6639    8.0150  -14.8209 H   0  0  0  0  0  0  0  0  0  0  0  0
  -36.7653    5.5229  -14.9658 H   0  0  0  0  0  0  0  0  0  0  0  0
  -36.3674    5.6080  -16.7154 H   0  0  0  0  0  0  0  0  0  0  0  0
  -37.9172    6.2840  -16.1130 H   0  0  0  0  0  0  0  0  0  0  0  0
  -31.3362   10.5846  -21.8314 H   0  0  0  0  0  0  0  0  0  0  0  0
  -31.9397   14.9636  -17.6985 H   0  0  0  0  0  0  0  0  0  0  0  0
  -31.1663   16.1069  -19.7711 H   0  0  0  0  0  0  0  0  0  0  0  0
  -30.7422   14.7860  -21.8377 H   0  0  0  0  0  0  0  0  0  0  0  0
  -31.0913   12.3200  -21.8326 H   0  0  0  0  0  0  0  0  0  0  0  0
  -32.2887   12.4986  -17.6933 H   0  0  0  0  0  0  0  0  0  0  0  0
  1  5  1  0  0  0  0
  1  4  2  0  0  0  0
  1  6  1  0  0  0  0
  2 11  1  0  0  0  0
  2  3  1  0  0  0  0
  2 12  1  0  0  0  0
  2 35  1  0  0  0  0
  3  4  1  0  0  0  0
  3 16  1  0  0  0  0
  3 36  1  0  0  0  0
  4 37  1  0  0  0  0
  5 11  1  0  0  0  0
  6  7  2  0  0  0  0
  6  8  1  0  0  0  0
  9 11  1  0  0  0  0
  9 23  1  0  0  0  0
  9 10  2  0  0  0  0
 11 38  1  0  0  0  0
 12 13  1  0  0  0  0
 12 39  1  0  0  0  0
 13 14  1  0  0  0  0
 13 15  2  0  0  0  0
 14 40  1  0  0  0  0
 14 41  1  0  0  0  0
 14 42  1  0  0  0  0
 16 43  1  0  0  0  0
 16 44  1  0  0  0  0
 16 45  1  0  0  0  0
 17 23  1  0  0  0  0
 17 18  1  0  0  0  0
 17 46  1  0  0  0  0
 17 47  1  0  0  0  0
 18 19  1  0  0  0  0
 18 48  1  0  0  0  0
 18 49  1  0  0  0  0
 19 20  2  0  0  0  0
 19 21  1  0  0  0  0
 20 28  1  0  0  0  0
 20 50  1  0  0  0  0
 21 22  2  0  0  0  0
 21 51  1  0  0  0  0
 22 27  1  0  0  0  0
 22 52  1  0  0  0  0
 23 24  1  0  0  0  0
 24 25  1  0  0  0  0
 24 53  1  0  0  0  0
 24 54  1  0  0  0  0
 25 26  1  0  0  0  0
 25 55  1  0  0  0  0
 25 56  1  0  0  0  0
 26 57  1  0  0  0  0
 26 58  1  0  0  0  0
 26 59  1  0  0  0  0
 27 28  2  0  0  0  0
 27 60  1  0  0  0  0
 28 29  1  0  0  0  0
 29 33  2  0  0  0  0
 29 34  1  0  0  0  0
 30 31  1  0  0  0  0
 30 34  2  0  0  0  0
 30 61  1  0  0  0  0
 31 32  2  0  0  0  0
 31 62  1  0  0  0  0
 32 33  1  0  0  0  0
 32 63  1  0  0  0  0
 33 64  1  0  0  0  0
 34 65  1  0  0  0  0
M  END
> <Name>
BDB4972

> <Target>
Neuraminidase A

> <IC50_in_nM>
2

> <Kd_from_ITC>
false

> <source_organism>
Influenza A virus (A/Singapore/1/57(H2N2))

> <SourceTag>
NA

> <atoms in reference ligand area>
11

> <score>
-6.69445

$$$$
BDB4986
      BALL 1.4.0 (Jan  4 2012, 23:22:29)

 47 47  0999  0  0  0  0  0  0999 V2000
  -31.7167   11.4150  -17.7429 C   0  0  0  0  0  0  0  0  0  0  0  0
  -33.2120   11.3316  -17.6882 C   0  0  0  0  0  0  0  0  0  0  0  0
  -33.9197   12.6374  -18.1494 C   0  0  0  0  0  0  0  0  0  0  0  0
  -33.2488   13.8294  -17.3872 C   0  0  0  0  0  0  0  0  0  0  0  0
  -31.7867   13.9434  -17.8337 C   0  0  0  0  0  0  0  0  0  0  0  0
  -31.0566   12.6050  -17.7776 C   0  0  0  0  0  0  0  0  0  0  0  0
  -29.6021   12.5431  -17.8577 C   0  0  0  0  0  0  0  0  0  0  0  0
  -29.0484   12.0048  -18.8021 O   0  0  0  0  0  0  0  0  0  0  0  0
  -28.8643   13.1278  -16.8698 O   0  5  0  0  0  0  0  0  0  0  0  0
  -33.2574   13.6802  -15.9113 N   0  3  0  0  0  0  0  0  0  0  0  0
  -34.0380   12.9969  -19.6304 N   0  0  0  0  0  0  0  0  0  0  0  0
  -33.4034   12.4519  -20.8277 C   0  0  0  0  0  0  0  0  0  0  0  0
  -32.6023   11.1933  -20.9266 C   0  0  0  0  0  0  0  0  0  0  0  0
  -33.5893   13.0759  -21.8800 O   0  0  0  0  0  0  0  0  0  0  0  0
  -33.5843   11.1943  -16.2937 O   0  0  0  0  0  0  0  0  0  0  0  0
  -34.8326   10.5409  -16.0706 C   0  0  0  0  0  0  0  0  0  0  0  0
  -35.0358   10.3359  -14.5273 C   0  0  0  0  0  0  0  0  0  0  0  0
  -34.1084    9.2312  -13.9189 C   0  0  0  0  0  0  0  0  0  0  0  0
  -34.3700    9.1538  -12.3823 C   0  0  0  0  0  0  0  0  0  0  0  0
  -33.6516    7.9427  -11.7355 C   0  0  0  0  0  0  0  0  0  0  0  0
  -33.9344    7.9295  -10.2126 C   0  0  0  0  0  0  0  0  0  0  0  0
  -31.1486   10.5083  -17.7552 H   0  0  0  0  0  0  0  0  0  0  0  0
  -33.5863   10.4509  -18.2393 H   0  0  0  0  0  0  0  0  0  0  0  0
  -34.9624   12.5511  -17.8191 H   0  0  0  0  0  0  0  0  0  0  0  0
  -33.7945   14.7468  -17.6309 H   0  0  0  0  0  0  0  0  0  0  0  0
  -31.2742   14.6536  -17.1988 H   0  0  0  0  0  0  0  0  0  0  0  0
  -31.7524   14.3249  -18.8484 H   0  0  0  0  0  0  0  0  0  0  0  0
  -32.3336   13.4516  -15.5664 H   0  0  0  0  0  0  0  0  0  0  0  0
  -33.9295   12.9485  -15.6391 H   0  0  0  0  0  0  0  0  0  0  0  0
  -33.5356   14.5721  -15.4912 H   0  0  0  0  0  0  0  0  0  0  0  0
  -34.6302   13.7750  -19.8084 H   0  0  0  0  0  0  0  0  0  0  0  0
  -33.3129   10.4638  -20.4776 H   0  0  0  0  0  0  0  0  0  0  0  0
  -31.8591   11.3607  -20.1152 H   0  0  0  0  0  0  0  0  0  0  0  0
  -32.2537   10.9704  -21.7735 H   0  0  0  0  0  0  0  0  0  0  0  0
  -35.6270   11.1450  -16.4579 H   0  0  0  0  0  0  0  0  0  0  0  0
  -34.8315    9.5911  -16.5583 H   0  0  0  0  0  0  0  0  0  0  0  0
  -36.0728   10.0725  -14.3363 H   0  0  0  0  0  0  0  0  0  0  0  0
  -34.8485   11.2791  -14.0148 H   0  0  0  0  0  0  0  0  0  0  0  0
  -33.0883    9.4847  -14.0937 H   0  0  0  0  0  0  0  0  0  0  0  0
  -34.3339    8.2882  -14.3673 H   0  0  0  0  0  0  0  0  0  0  0  0
  -35.4318    9.0729  -12.2046 H   0  0  0  0  0  0  0  0  0  0  0  0
  -34.0219   10.0656  -11.9145 H   0  0  0  0  0  0  0  0  0  0  0  0
  -32.5983    8.0216  -11.9010 H   0  0  0  0  0  0  0  0  0  0  0  0
  -34.0161    7.0349  -12.1740 H   0  0  0  0  0  0  0  0  0  0  0  0
  -34.9875    7.8494  -10.0445 H   0  0  0  0  0  0  0  0  0  0  0  0
  -33.5714    8.8343   -9.7730 H   0  0  0  0  0  0  0  0  0  0  0  0
  -33.4372    7.0908   -9.7632 H   0  0  0  0  0  0  0  0  0  0  0  0
  1  2  1  0  0  0  0
  1  6  2  0  0  0  0
  1 22  1  0  0  0  0
  2  3  1  0  0  0  0
  2 15  1  0  0  0  0
  2 23  1  0  0  0  0
  3  4  1  0  0  0  0
  3 11  1  0  0  0  0
  3 24  1  0  0  0  0
  4  5  1  0  0  0  0
  4 10  1  0  0  0  0
  4 25  1  0  0  0  0
  5  6  1  0  0  0  0
  5 26  1  0  0  0  0
  5 27  1  0  0  0  0
  6  7  1  0  0  0  0
  7  8  2  0  0  0  0
  7  9  1  0  0  0  0
 10 28  1  0  0  0  0
 10 29  1  0  0  0  0
 10 30  1  0  0  0  0
 11 12  1  0  0  0  0
 11 31  1  0  0  0  0
 12 13  1  0  0  0  0
 12 14  2  0  0  0  0
 13 32  1  0  0  0  0
 13 33  1  0  0  0  0
 13 34  1  0  0  0  0
 15 16  1  0  0  0  0
 16 17  1  0  0  0  0
 16 35  1  0  0  0  0
 16 36  1  0  0  0  0
 17 18  1  0  0  0  0
 17 37  1  0  0  0  0
 17 38  1  0  0  0  0
 18 19  1  0  0  0  0
 18 39  1  0  0  0  0
 18 40  1  0  0  0  0
 19 20  1  0  0  0  0
 19 41  1  0  0  0  0
 19 42  1  0  0  0  0
 20 21  1  0  0  0  0
 20 43  1  0  0  0  0
 20 44  1  0  0  0  0
 21 45  1  0  0  0  0
 21 46  1  0  0  0  0
 21 47  1  0  0  0  0
M  END
> <Name>
BDB4986

> <Target>
Neuraminidase A

> <IC50_in_nM>
150

> <Kd_from_ITC>
false

> <source_organism>
Influenza A virus (A/Puerto Rico/8/34/Mount Sinai(H1N1))

> <SourceTag>
NA

> <atoms in reference ligand area>
17

> <score>
-6.61131

$$$$
BDB4977
      BALL 1.4.0 (Jan  4 2012, 23:22:29)

 46 47  0999  0  0  0  0  0  0999 V2000
  -30.8638    8.8564  -18.4829 C   0  0  0  0  0  0  0  0  0  0  0  0
  -29.9026    8.2183  -17.3988 C   0  0  0  0  0  0  0  0  0  0  0  0
  -30.7226    7.7921  -16.1756 C   0  0  0  0  0  0  0  0  0  0  0  0
  -31.9145    6.9925  -16.6411 C   0  0  0  0  0  0  0  0  0  0  0  0
  -32.4174    7.1065  -17.8899 C   0  0  0  0  0  0  0  0  0  0  0  0
  -31.8799    7.9594  -18.8920 O   0  0  0  0  0  0  0  0  0  0  0  0
  -33.5472    6.2752  -18.2949 C   0  0  0  0  0  0  0  0  0  0  0  0
  -34.1996    6.5941  -19.3009 O   0  0  0  0  0  0  0  0  0  0  0  0
  -33.8861    5.1767  -17.5900 O   0  5  0  0  0  0  0  0  0  0  0  0
  -31.1592    8.9531  -15.3658 N   0  3  0  0  0  0  0  0  0  0  0  0
  -28.9802    7.0793  -17.8266 N   0  0  0  0  0  0  0  0  0  0  0  0
  -29.4264    5.0711  -16.1725 C   0  0  0  0  0  0  0  0  0  0  0  0
  -28.6790    5.7749  -17.2485 C   0  0  0  0  0  0  0  0  0  0  0  0
  -27.7309    5.1606  -17.7510 O   0  0  0  0  0  0  0  0  0  0  0  0
  -31.0549   10.6268  -16.9144 O   0  0  0  0  0  0  0  0  0  0  0  0
  -31.4604   10.2216  -18.0091 C   0  0  0  0  0  0  0  0  0  0  0  0
  -33.0447   10.9744  -20.0543 C   0  0  0  0  0  0  0  0  0  0  0  0
  -33.2832   12.4424  -20.4484 C   0  0  0  0  0  0  0  0  0  0  0  0
  -33.7752   12.9579  -19.0960 C   0  0  0  0  0  0  0  0  0  0  0  0
  -32.6195   12.4510  -18.2174 C   0  0  0  0  0  0  0  0  0  0  0  0
  -32.3835   11.1341  -18.7380 N   0  0  0  0  0  0  0  0  0  0  0  0
  -31.3708   13.3088  -18.4998 C   0  0  0  0  0  0  0  0  0  0  0  0
  -34.4707   10.3716  -19.9237 C   0  0  0  0  0  0  0  0  0  0  0  0
  -30.2393    9.1104  -19.3525 H   0  0  0  0  0  0  0  0  0  0  0  0
  -29.1887    8.9844  -17.0676 H   0  0  0  0  0  0  0  0  0  0  0  0
  -30.0880    7.1952  -15.5091 H   0  0  0  0  0  0  0  0  0  0  0  0
  -32.3777    6.3113  -15.9583 H   0  0  0  0  0  0  0  0  0  0  0  0
  -31.7325    9.5651  -15.8811 H   0  0  0  0  0  0  0  0  0  0  0  0
  -30.3264    9.4676  -15.0483 H   0  0  0  0  0  0  0  0  0  0  0  0
  -31.6824    8.6184  -14.5487 H   0  0  0  0  0  0  0  0  0  0  0  0
  -28.4310    7.2946  -18.6262 H   0  0  0  0  0  0  0  0  0  0  0  0
  -30.4576    5.0994  -16.5933 H   0  0  0  0  0  0  0  0  0  0  0  0
  -29.4483    5.8652  -15.3914 H   0  0  0  0  0  0  0  0  0  0  0  0
  -29.1070    4.2285  -15.9039 H   0  0  0  0  0  0  0  0  0  0  0  0
  -32.4488   10.4416  -20.7940 H   0  0  0  0  0  0  0  0  0  0  0  0
  -34.0355   12.5038  -21.1436 H   0  0  0  0  0  0  0  0  0  0  0  0
  -32.3906   12.8917  -20.6943 H   0  0  0  0  0  0  0  0  0  0  0  0
  -33.7938   13.9883  -19.0949 H   0  0  0  0  0  0  0  0  0  0  0  0
  -34.6496   12.4860  -18.8338 H   0  0  0  0  0  0  0  0  0  0  0  0
  -32.8592   12.4621  -17.1456 H   0  0  0  0  0  0  0  0  0  0  0  0
  -31.1971   13.3725  -19.5508 H   0  0  0  0  0  0  0  0  0  0  0  0
  -30.5173   12.8880  -18.0170 H   0  0  0  0  0  0  0  0  0  0  0  0
  -31.5338   14.3077  -18.1120 H   0  0  0  0  0  0  0  0  0  0  0  0
  -35.0541   11.0235  -19.2990 H   0  0  0  0  0  0  0  0  0  0  0  0
  -34.3873    9.4158  -19.4389 H   0  0  0  0  0  0  0  0  0  0  0  0
  -34.9167   10.2690  -20.8705 H   0  0  0  0  0  0  0  0  0  0  0  0
  1  6  1  0  0  0  0
  1  2  1  0  0  0  0
  1 16  1  0  0  0  0
  1 24  1  0  0  0  0
  2  3  1  0  0  0  0
  2 11  1  0  0  0  0
  2 25  1  0  0  0  0
  3  4  1  0  0  0  0
  3 10  1  0  0  0  0
  3 26  1  0  0  0  0
  4  5  2  0  0  0  0
  4 27  1  0  0  0  0
  5  6  1  0  0  0  0
  5  7  1  0  0  0  0
  7  8  2  0  0  0  0
  7  9  1  0  0  0  0
 10 28  1  0  0  0  0
 10 29  1  0  0  0  0
 10 30  1  0  0  0  0
 11 13  1  0  0  0  0
 11 31  1  0  0  0  0
 12 13  1  0  0  0  0
 12 32  1  0  0  0  0
 12 33  1  0  0  0  0
 12 34  1  0  0  0  0
 13 14  2  0  0  0  0
 15 16  2  0  0  0  0
 16 21  1  0  0  0  0
 17 21  1  0  0  0  0
 17 18  1  0  0  0  0
 17 23  1  0  0  0  0
 17 35  1  0  0  0  0
 18 19  1  0  0  0  0
 18 36  1  0  0  0  0
 18 37  1  0  0  0  0
 19 20  1  0  0  0  0
 19 38  1  0  0  0  0
 19 39  1  0  0  0  0
 20 21  1  0  0  0  0
 20 22  1  0  0  0  0
 20 40  1  0  0  0  0
 22 41  1  0  0  0  0
 22 42  1  0  0  0  0
 22 43  1  0  0  0  0
 23 44  1  0  0  0  0
 23 45  1  0  0  0  0
 23 46  1  0  0  0  0
M  END
> <Name>
BDB4977

> <Target>
Neuraminidase A

> <IC50_in_nM>
110

> <Kd_from_ITC>
false

> <source_organism>
Influenza A virus (A/Singapore/1/57(H2N2))

> <SourceTag>
NA

> <atoms in reference ligand area>
14

> <score>
-6.39748

$$$$
BDB5204
      BALL 1.4.0 (Jan  4 2012, 23:22:29)

 46 46  0999  0  0  0  0  0  0999 V2000
  -28.5995   13.5779  -19.6586 C   0  0  0  0  0  0  0  0  0  0  0  0
  -29.6386   12.7891  -18.9052 C   0  0  0  0  0  0  0  0  0  0  0  0
  -28.8241   11.3684  -20.6255 N   0  3  0  0  0  0  0  0  0  0  0  0
  -27.8007   12.3880  -20.2214 C   0  0  0  0  0  0  0  0  0  0  0  0
  -26.9004   12.7926  -21.3533 C   0  0  0  0  0  0  0  0  0  0  0  0
  -27.2962   13.6058  -22.1957 O   0  0  0  0  0  0  0  0  0  0  0  0
  -25.6505   12.2696  -21.4480 O   0  5  0  0  0  0  0  0  0  0  0  0
  -30.0921   11.8769  -20.0366 C   0  0  0  0  0  0  0  0  0  0  0  0
  -30.1579   10.2846  -20.0297 C   0  0  0  0  0  0  0  0  0  0  0  0
  -31.5926    9.8919  -20.7659 C   0  0  0  0  0  0  0  0  0  0  0  0
  -30.5146    9.1061  -21.5721 C   0  0  0  0  0  0  0  0  0  0  0  0
  -30.9352    9.0696  -23.0510 C   0  0  0  0  0  0  0  0  0  0  0  0
  -30.3701    7.6521  -21.0724 C   0  0  0  0  0  0  0  0  0  0  0  0
  -30.3841    9.9347  -18.5656 N   0  0  0  0  0  0  0  0  0  0  0  0
  -31.3122    9.6529  -17.5431 C   0  0  0  0  0  0  0  0  0  0  0  0
  -32.4159   10.6241  -17.2104 C   0  0  0  0  0  0  0  0  0  0  0  0
  -31.2135    8.6021  -16.9051 O   0  0  0  0  0  0  0  0  0  0  0  0
  -30.7606   13.6466  -18.3924 C   0  0  0  0  0  0  0  0  0  0  0  0
  -31.1990   13.4894  -17.1455 C   0  0  0  0  0  0  0  0  0  0  0  0
  -30.5732   12.4574  -16.2541 C   0  0  0  0  0  0  0  0  0  0  0  0
  -27.9811   14.1697  -18.9677 H   0  0  0  0  0  0  0  0  0  0  0  0
  -29.0620   14.1566  -20.4717 H   0  0  0  0  0  0  0  0  0  0  0  0
  -29.2798   12.2887  -17.9937 H   0  0  0  0  0  0  0  0  0  0  0  0
  -28.9002   11.3294  -21.6520 H   0  0  0  0  0  0  0  0  0  0  0  0
  -28.5895   10.4498  -20.2230 H   0  0  0  0  0  0  0  0  0  0  0  0
  -27.1128   11.9736  -19.4696 H   0  0  0  0  0  0  0  0  0  0  0  0
  -30.7032   12.4127  -20.7779 H   0  0  0  0  0  0  0  0  0  0  0  0
  -29.2755    9.8243  -20.4983 H   0  0  0  0  0  0  0  0  0  0  0  0
  -32.3326    9.1756  -20.3796 H   0  0  0  0  0  0  0  0  0  0  0  0
  -32.1274   10.5611  -21.4559 H   0  0  0  0  0  0  0  0  0  0  0  0
  -29.5496    9.6169  -21.4384 H   0  0  0  0  0  0  0  0  0  0  0  0
  -31.0101   10.0942  -23.4442 H   0  0  0  0  0  0  0  0  0  0  0  0
  -31.9067    8.5636  -23.1514 H   0  0  0  0  0  0  0  0  0  0  0  0
  -30.1793    8.5165  -23.6276 H   0  0  0  0  0  0  0  0  0  0  0  0
  -31.3441    7.1509  -21.1733 H   0  0  0  0  0  0  0  0  0  0  0  0
  -30.0905    7.6757  -20.0089 H   0  0  0  0  0  0  0  0  0  0  0  0
  -29.6053    7.1174  -21.6548 H   0  0  0  0  0  0  0  0  0  0  0  0
  -29.6044    9.2817  -18.7286 H   0  0  0  0  0  0  0  0  0  0  0  0
  -33.3432   10.0832  -17.4504 H   0  0  0  0  0  0  0  0  0  0  0  0
  -32.3124   11.4275  -17.9545 H   0  0  0  0  0  0  0  0  0  0  0  0
  -32.3957   10.9968  -16.1756 H   0  0  0  0  0  0  0  0  0  0  0  0
  -31.2190   14.4030  -19.0464 H   0  0  0  0  0  0  0  0  0  0  0  0
  -32.0205   14.1162  -16.7683 H   0  0  0  0  0  0  0  0  0  0  0  0
  -29.4882   12.5912  -16.3767 H   0  0  0  0  0  0  0  0  0  0  0  0
  -30.8368   11.4895  -16.7054 H   0  0  0  0  0  0  0  0  0  0  0  0
  -30.8892   12.5305  -15.2030 H   0  0  0  0  0  0  0  0  0  0  0  0
  1  4  1  0  0  0  0
  1  2  1  0  0  0  0
  1 21  1  0  0  0  0
  1 22  1  0  0  0  0
  2  8  1  0  0  0  0
  2 18  1  0  0  0  0
  2 23  1  0  0  0  0
  3  4  1  0  0  0  0
  3  8  1  0  0  0  0
  3 24  1  0  0  0  0
  3 25  1  0  0  0  0
  4  5  1  0  0  0  0
  4 26  1  0  0  0  0
  5  6  2  0  0  0  0
  5  7  1  0  0  0  0
  8  9  1  0  0  0  0
  8 27  1  0  0  0  0
  9 10  1  0  0  0  0
  9 14  1  0  0  0  0
  9 28  1  0  0  0  0
 10 11  1  0  0  0  0
 10 29  1  0  0  0  0
 10 30  1  0  0  0  0
 11 12  1  0  0  0  0
 11 13  1  0  0  0  0
 11 31  1  0  0  0  0
 12 32  1  0  0  0  0
 12 33  1  0  0  0  0
 12 34  1  0  0  0  0
 13 35  1  0  0  0  0
 13 36  1  0  0  0  0
 13 37  1  0  0  0  0
 14 15  1  0  0  0  0
 14 38  1  0  0  0  0
 15 16  1  0  0  0  0
 15 17  2  0  0  0  0
 16 39  1  0  0  0  0
 16 40  1  0  0  0  0
 16 41  1  0  0  0  0
 18 19  2  0  0  0  0
 18 42  1  0  0  0  0
 19 20  1  0  0  0  0
 19 43  1  0  0  0  0
 20 44  1  0  0  0  0
 20 45  1  0  0  0  0
 20 46  1  0  0  0  0
M  END
> <Name>
BDB5204

> <Target>
Neuraminidase A

> <Ki_in_nM>
20

> <Kd_from_ITC>
false

> <Uniprot_ID>
P06820

> <source_organism>
Influenza A virus (A/Tokyo/3/67(H2N2))

> <SourceTag>
NA

> <atoms in reference ligand area>
21

> <score>
-6.16299

$$$$
BDB5021
      BALL 1.4.0 (Jan  4 2012, 23:22:29)

 47 47  0999  0  0  0  0  0  0999 V2000
  -34.9037   10.8901  -19.2697 C   0  0  0  0  0  0  0  0  0  0  0  0
  -33.2774    9.2563  -18.4297 C   0  0  0  0  0  0  0  0  0  0  0  0
  -34.4331   10.1792  -17.9513 C   0  0  0  0  0  0  0  0  0  0  0  0
  -33.8109   11.2432  -17.0892 C   0  0  0  0  0  0  0  0  0  0  0  0
  -33.1117   10.9232  -16.1215 O   0  0  0  0  0  0  0  0  0  0  0  0
  -34.0179   12.5546  -17.3745 O   0  5  0  0  0  0  0  0  0  0  0  0
  -33.9226   10.3639  -20.3332 C   0  0  0  0  0  0  0  0  0  0  0  0
  -32.6679   10.1053  -19.5370 C   0  0  0  0  0  0  0  0  0  0  0  0
  -32.4449    9.5673  -21.0450 C   0  0  0  0  0  0  0  0  0  0  0  0
  -30.8293    9.6516  -21.2187 N   0  0  0  0  0  0  0  0  0  0  0  0
  -30.9705   10.2429  -22.5352 C   0  0  0  0  0  0  0  0  0  0  0  0
  -32.2537   10.2531  -23.3401 C   0  0  0  0  0  0  0  0  0  0  0  0
  -29.9793   10.7985  -23.0251 O   0  0  0  0  0  0  0  0  0  0  0  0
  -32.7006    7.9201  -20.9143 C   0  0  0  0  0  0  0  0  0  0  0  0
  -31.6501    6.7987  -21.0343 C   0  0  0  0  0  0  0  0  0  0  0  0
  -32.2444    5.6187  -21.8219 C   0  0  0  0  0  0  0  0  0  0  0  0
  -31.1978    4.4942  -21.9250 C   0  0  0  0  0  0  0  0  0  0  0  0
  -33.7374   11.2885  -21.4332 N   0  0  0  0  0  0  0  0  0  0  0  0
  -33.2719   12.6108  -21.2505 C   0  0  0  0  0  0  0  0  0  0  0  0
  -33.3140   13.4243  -22.2255 N   0  3  0  0  0  0  0  0  0  0  0  0
  -32.7652   13.0440  -20.0182 N   0  0  0  0  0  0  0  0  0  0  0  0
  -34.8049   11.9809  -19.1677 H   0  0  0  0  0  0  0  0  0  0  0  0
  -35.9319   10.5872  -19.5165 H   0  0  0  0  0  0  0  0  0  0  0  0
  -32.5513    9.0998  -17.6184 H   0  0  0  0  0  0  0  0  0  0  0  0
  -33.6806    8.3188  -18.8403 H   0  0  0  0  0  0  0  0  0  0  0  0
  -35.2342    9.6499  -17.4145 H   0  0  0  0  0  0  0  0  0  0  0  0
  -34.2828    9.4603  -20.8465 H   0  0  0  0  0  0  0  0  0  0  0  0
  -32.1143   10.9955  -19.2035 H   0  0  0  0  0  0  0  0  0  0  0  0
  -33.0639   10.0916  -21.7880 H   0  0  0  0  0  0  0  0  0  0  0  0
  -29.9025    9.7603  -20.7826 H   0  0  0  0  0  0  0  0  0  0  0  0
  -32.9731   10.7174  -22.6496 H   0  0  0  0  0  0  0  0  0  0  0  0
  -32.5242    9.1878  -23.3847 H   0  0  0  0  0  0  0  0  0  0  0  0
  -32.2048   10.7407  -24.3249 H   0  0  0  0  0  0  0  0  0  0  0  0
  -32.9832    8.2660  -21.9195 H   0  0  0  0  0  0  0  0  0  0  0  0
  -33.5905    7.5344  -20.3953 H   0  0  0  0  0  0  0  0  0  0  0  0
  -30.7639    7.1814  -21.5617 H   0  0  0  0  0  0  0  0  0  0  0  0
  -31.3594    6.4583  -20.0295 H   0  0  0  0  0  0  0  0  0  0  0  0
  -32.5227    5.9535  -22.8321 H   0  0  0  0  0  0  0  0  0  0  0  0
  -33.1368    5.2419  -21.3008 H   0  0  0  0  0  0  0  0  0  0  0  0
  -30.9188    4.1570  -20.9158 H   0  0  0  0  0  0  0  0  0  0  0  0
  -30.3046    4.8690  -22.4462 H   0  0  0  0  0  0  0  0  0  0  0  0
  -31.6214    3.6495  -22.4881 H   0  0  0  0  0  0  0  0  0  0  0  0
  -33.9541   10.9691  -22.3882 H   0  0  0  0  0  0  0  0  0  0  0  0
  -33.6826   13.1271  -23.1402 H   0  0  0  0  0  0  0  0  0  0  0  0
  -32.9762   14.3889  -22.0980 H   0  0  0  0  0  0  0  0  0  0  0  0
  -33.0031   13.9897  -19.6866 H   0  0  0  0  0  0  0  0  0  0  0  0
  -32.1643   12.4295  -19.4507 H   0  0  0  0  0  0  0  0  0  0  0  0
  1  7  1  0  0  0  0
  1  3  1  0  0  0  0
  1 22  1  0  0  0  0
  1 23  1  0  0  0  0
  2  8  1  0  0  0  0
  2  3  1  0  0  0  0
  2 24  1  0  0  0  0
  2 25  1  0  0  0  0
  3  4  1  0  0  0  0
  3 26  1  0  0  0  0
  4  6  1  0  0  0  0
  4  5  2  0  0  0  0
  7  8  1  0  0  0  0
  7 18  1  0  0  0  0
  7 27  1  0  0  0  0
  8  9  1  0  0  0  0
  8 28  1  0  0  0  0
  9 10  1  0  0  0  0
  9 14  1  0  0  0  0
  9 29  1  0  0  0  0
 10 11  1  0  0  0  0
 10 30  1  0  0  0  0
 11 12  1  0  0  0  0
 11 13  2  0  0  0  0
 12 31  1  0  0  0  0
 12 32  1  0  0  0  0
 12 33  1  0  0  0  0
 14 15  1  0  0  0  0
 14 34  1  0  0  0  0
 14 35  1  0  0  0  0
 15 16  1  0  0  0  0
 15 36  1  0  0  0  0
 15 37  1  0  0  0  0
 16 17  1  0  0  0  0
 16 38  1  0  0  0  0
 16 39  1  0  0  0  0
 17 40  1  0  0  0  0
 17 41  1  0  0  0  0
 17 42  1  0  0  0  0
 18 19  1  0  0  0  0
 18 43  1  0  0  0  0
 19 20  2  0  0  0  0
 19 21  1  0  0  0  0
 20 44  1  0  0  0  0
 20 45  1  0  0  0  0
 21 46  1  0  0  0  0
 21 47  1  0  0  0  0
M  END
> <Name>
BDB5021

> <Target>
Neuraminidase A

> <IC50_in_nM>
13

> <Kd_from_ITC>
false

> <source_organism>
Influenza A virus (A/Singapore/1/57(H2N2))

> <SourceTag>
NA

> <atoms in reference ligand area>
18

> <score>
2e+10

$$$$
