3B7E_ZMR_A_1001
 OpenBabel01041713383D

 31 31  0  0  1  0  0  0  0  0999 V2000
  -31.5990   11.9030  -20.6650 C   0  0  0  0  0  0  0  0  0  0  0  0
  -32.1170   12.2940  -19.3920 O   0  0  0  0  0  0  0  0  0  0  0  0
  -31.3130   13.1130  -18.5530 C   0  0  2  0  0  0  0  0  0  0  0  0
  -29.8200   12.8190  -18.7060 C   0  0  1  0  0  0  0  0  0  0  0  0
  -29.3960   12.9420  -20.1820 C   0  0  2  0  0  0  0  0  0  0  0  0
  -30.3290   12.1300  -21.0550 C   0  0  0  0  0  0  0  0  0  0  0  0
  -29.0750   13.7480  -17.8520 N   0  0  0  0  0  0  0  0  0  0  0  0
  -28.6720   13.3960  -17.0260 H   0  0  0  0  0  0  0  0  0  0  0  0
  -28.9090   15.0540  -18.1320 C   0  0  0  0  0  0  0  0  0  0  0  0
  -28.2570   15.8260  -17.0260 C   0  0  0  0  0  0  0  0  0  0  0  0
  -29.3080   15.5680  -19.1830 O   0  0  0  0  0  0  0  0  0  0  0  0
  -32.6300   11.3050  -21.5230 C   0  0  0  0  0  0  0  0  0  0  0  0
  -33.8200   11.3010  -21.1590 O   0  0  0  0  0  0  0  0  0  0  0  0
  -32.2340   10.8040  -22.6120 O   0  0  0  0  0  0  0  0  0  0  0  0
  -27.9860   12.5150  -20.2410 N   0  0  0  0  0  0  0  0  0  0  0  0
  -27.0170   13.2380  -20.7060 C   0  0  0  0  0  0  0  0  0  0  0  0
  -25.7730   12.7600  -20.5950 N   0  0  0  0  0  0  0  0  0  0  0  0
  -25.3240   12.7540  -19.7190 H   0  0  0  0  0  0  0  0  0  0  0  0
  -25.3060   12.4130  -21.3890 H   0  0  0  0  0  0  0  0  0  0  0  0
  -27.1570   14.4350  -21.2690 N   0  0  0  0  0  0  0  0  0  0  0  0
  -26.6110   14.6780  -22.0510 H   0  0  0  0  0  0  0  0  0  0  0  0
  -27.8080   15.0780  -20.9030 H   0  0  0  0  0  0  0  0  0  0  0  0
  -31.8560   12.9290  -17.1300 C   0  0  2  0  0  0  0  0  0  0  0  0
  -31.1260   11.8930  -16.4930 O   0  0  0  0  0  0  0  0  0  0  0  0
  -31.4680   11.7640  -15.5940 H   0  0  0  0  0  0  0  0  0  0  0  0
  -33.3500   12.5590  -17.1240 C   0  0  2  0  0  0  0  0  0  0  0  0
  -34.0600   13.5900  -17.8310 O   0  0  0  0  0  0  0  0  0  0  0  0
  -34.6780   14.0290  -17.2270 H   0  0  0  0  0  0  0  0  0  0  0  0
  -33.8610   12.3850  -15.6730 C   0  0  0  0  0  0  0  0  0  0  0  0
  -34.9120   13.3170  -15.4310 O   0  0  0  0  0  0  0  0  0  0  0  0
  -35.7480   12.8380  -15.3170 H   0  0  0  0  0  0  0  0  0  0  0  0
  1  2  1  0  0  0  0
  3  2  1  6  0  0  0
  3 23  1  0  0  0  0
  4  3  1  0  0  0  0
  4  7  1  1  0  0  0
  5 15  1  1  0  0  0
  5  4  1  0  0  0  0
  6  1  2  0  0  0  0
  6  5  1  0  0  0  0
  7  8  1  0  0  0  0
  9  7  1  0  0  0  0
  9 10  1  0  0  0  0
 11  9  2  0  0  0  0
 12 13  1  0  0  0  0
 12  1  1  0  0  0  0
 14 12  2  0  0  0  0
 16 17  1  0  0  0  0
 16 15  2  0  0  0  0
 17 18  1  0  0  0  0
 19 17  1  0  0  0  0
 20 22  1  0  0  0  0
 20 16  1  0  0  0  0
 21 20  1  0  0  0  0
 23 26  1  0  0  0  0
 23 24  1  6  0  0  0
 24 25  1  0  0  0  0
 26 27  1  1  0  0  0
 26 29  1  0  0  0  0
 27 28  1  0  0  0  0
 29 30  1  0  0  0  0
 30 31  1  0  0  0  0
M  END
>  <MODEL>
1

>  <REMARK>
 VINA RESULT:      -6.3      0.000      0.000
  Name = 3B7E_ZMR_A_1001
                            x       y       z     vdW  Elec       q    Type
                         _______ _______ _______ _____ _____    ______ ____

>  <TORSDO>
F 11

>  <vina_score>
-6.3

$$$$
3B7E_ZMR_B_1002
 OpenBabel01041713383D

 31 31  0  0  1  0  0  0  0  0999 V2000
  -31.5760   11.8530  -20.6390 C   0  0  0  0  0  0  0  0  0  0  0  0
  -32.0850   12.1270  -19.3430 O   0  0  0  0  0  0  0  0  0  0  0  0
  -31.3520   12.9920  -18.4700 C   0  0  2  0  0  0  0  0  0  0  0  0
  -29.8380   12.7660  -18.6150 C   0  0  1  0  0  0  0  0  0  0  0  0
  -29.4190   12.9860  -20.0840 C   0  0  2  0  0  0  0  0  0  0  0  0
  -30.3240   12.1870  -21.0080 C   0  0  0  0  0  0  0  0  0  0  0  0
  -29.1100   13.7070  -17.7560 N   0  0  0  0  0  0  0  0  0  0  0  0
  -28.6930   13.3670  -16.9320 H   0  0  0  0  0  0  0  0  0  0  0  0
  -28.9900   15.0080  -18.0460 C   0  0  0  0  0  0  0  0  0  0  0  0
  -28.2820   15.7930  -16.9750 C   0  0  0  0  0  0  0  0  0  0  0  0
  -29.4450   15.5130  -19.0900 O   0  0  0  0  0  0  0  0  0  0  0  0
  -32.5820   11.2520  -21.5130 C   0  0  0  0  0  0  0  0  0  0  0  0
  -32.2440   10.8030  -22.6130 O   0  0  0  0  0  0  0  0  0  0  0  0
  -33.7890   11.2790  -21.1190 O   0  0  0  0  0  0  0  0  0  0  0  0
  -27.9970   12.6180  -20.1960 N   0  0  0  0  0  0  0  0  0  0  0  0
  -27.0750   13.3680  -20.6940 C   0  0  0  0  0  0  0  0  0  0  0  0
  -25.8020   12.9360  -20.6490 N   0  0  0  0  0  0  0  0  0  0  0  0
  -25.1970   13.1050  -21.4080 H   0  0  0  0  0  0  0  0  0  0  0  0
  -25.4740   12.4510  -19.8580 H   0  0  0  0  0  0  0  0  0  0  0  0
  -27.3080   14.5560  -21.2440 N   0  0  0  0  0  0  0  0  0  0  0  0
  -28.1960   14.7590  -21.6180 H   0  0  0  0  0  0  0  0  0  0  0  0
  -26.5930   15.2310  -21.2790 H   0  0  0  0  0  0  0  0  0  0  0  0
  -31.8490   12.6810  -17.0540 C   0  0  2  0  0  0  0  0  0  0  0  0
  -31.2090   11.5020  -16.5890 O   0  0  0  0  0  0  0  0  0  0  0  0
  -30.3180   11.4470  -16.9700 H   0  0  0  0  0  0  0  0  0  0  0  0
  -33.3690   12.4520  -17.0140 C   0  0  2  0  0  0  0  0  0  0  0  0
  -33.9860   13.4640  -17.8260 O   0  0  0  0  0  0  0  0  0  0  0  0
  -33.4940   13.5570  -18.6570 H   0  0  0  0  0  0  0  0  0  0  0  0
  -33.9460   12.4810  -15.5880 C   0  0  0  0  0  0  0  0  0  0  0  0
  -35.0150   13.4260  -15.5160 O   0  0  0  0  0  0  0  0  0  0  0  0
  -34.9140   14.0840  -16.2220 H   0  0  0  0  0  0  0  0  0  0  0  0
  1  2  1  0  0  0  0
  3  2  1  6  0  0  0
  3 23  1  0  0  0  0
  4  3  1  0  0  0  0
  4  7  1  1  0  0  0
  5 15  1  1  0  0  0
  5  4  1  0  0  0  0
  6  1  2  0  0  0  0
  6  5  1  0  0  0  0
  7  8  1  0  0  0  0
  9  7  1  0  0  0  0
  9 10  1  0  0  0  0
 11  9  2  0  0  0  0
 12 14  1  0  0  0  0
 12  1  1  0  0  0  0
 13 12  2  0  0  0  0
 16 17  1  0  0  0  0
 16 15  2  0  0  0  0
 17 19  1  0  0  0  0
 18 17  1  0  0  0  0
 20 16  1  0  0  0  0
 21 20  1  0  0  0  0
 22 20  1  0  0  0  0
 23 26  1  0  0  0  0
 23 24  1  6  0  0  0
 25 24  1  0  0  0  0
 26 27  1  6  0  0  0
 26 29  1  0  0  0  0
 28 27  1  0  0  0  0
 29 30  1  0  0  0  0
 31 30  1  0  0  0  0
M  END
>  <MODEL>
1

>  <REMARK>
 VINA RESULT:      -6.2      0.000      0.000
  Name = 3B7E_ZMR_B_1002
                            x       y       z     vdW  Elec       q    Type
                         _______ _______ _______ _____ _____    ______ ____

>  <TORSDO>
F 11

>  <vina_score>
-6.2

$$$$
