3B7E_ZMR_B_1002
      BALL 1.4.0 (Jan  4 2012, 23:22:29)

 23 23  0999  0  0  0  0  0  0999 V2000
  -30.2541   10.4207  -23.8757 C   0  0  0  0  0  0  0  0  0  0  0  0
  -31.4765   10.5041  -24.2077 O   0  0  0  0  0  0  0  0  0  0  0  0
  -29.4456    9.6954  -24.4633 O   0  0  0  0  0  0  0  0  0  0  0  0
  -29.7906   11.2882  -22.7936 C   0  0  0  0  0  0  0  0  0  0  0  0
  -28.5106   11.6503  -22.5807 C   0  0  0  0  0  0  0  0  0  0  0  0
  -28.1551   12.7115  -21.5514 C   0  0  0  0  0  0  0  0  0  0  0  0
  -29.2447   12.7742  -20.4610 C   0  0  0  0  0  0  0  0  0  0  0  0
  -29.0081   13.9425  -19.6050 N   0  0  0  0  0  0  0  0  0  0  0  0
  -28.4823   13.8472  -18.3782 C   0  0  0  0  0  0  0  0  0  0  0  0
  -28.1963   12.7556  -17.8478 O   0  0  0  0  0  0  0  0  0  0  0  0
  -28.2459   15.1826  -17.7257 C   0  0  0  0  0  0  0  0  0  0  0  0
  -30.6295   12.8830  -21.1198 C   0  0  0  0  0  0  0  0  0  0  0  0
  -30.8620   11.7854  -22.0074 O   0  0  0  0  0  0  0  0  0  0  0  0
  -31.7643   12.8402  -20.0899 C   0  0  0  0  0  0  0  0  0  0  0  0
  -32.9821   12.5459  -20.7593 O   0  0  0  0  0  0  0  0  0  0  0  0
  -31.9287   14.1819  -19.3573 C   0  0  0  0  0  0  0  0  0  0  0  0
  -33.3039   14.2982  -18.9588 O   0  0  0  0  0  0  0  0  0  0  0  0
  -31.5121   15.3908  -20.2130 C   0  0  0  0  0  0  0  0  0  0  0  0
  -32.6657   16.1614  -20.5569 O   0  0  0  0  0  0  0  0  0  0  0  0
  -26.8696   12.4632  -20.8762 N   0  0  0  0  0  0  0  0  0  0  0  0
  -25.9343   13.3356  -20.7193 C   0  0  0  0  0  0  0  0  0  0  0  0
  -25.9831   14.5663  -21.2196 N   0  0  0  0  0  0  0  0  0  0  0  0
  -24.8493   12.9926  -20.0011 N   0  0  0  0  0  0  0  0  0  0  0  0
  1  2  1  0  0  0  0
  1  3  2  0  0  0  0
  1  4  1  0  0  0  0
  4  5  2  0  0  0  0
  4 13  1  0  0  0  0
  5  6  1  0  0  0  0
  6  7  1  0  0  0  0
  6 20  1  0  0  0  0
  7  8  1  0  0  0  0
  7 12  1  0  0  0  0
  8  9  1  0  0  0  0
  9 10  2  0  0  0  0
  9 11  1  0  0  0  0
 12 13  1  0  0  0  0
 12 14  1  0  0  0  0
 14 15  1  0  0  0  0
 14 16  1  0  0  0  0
 16 17  1  0  0  0  0
 16 18  1  0  0  0  0
 18 19  1  0  0  0  0
 20 21  2  0  0  0  0
 21 22  1  0  0  0  0
 21 23  1  0  0  0  0
M  END
> <InstanceId>
3B7E_ZMR_B_1002

> <ChemCompId>
ZMR

> <PdbId>
3B7E

> <ChainId>
B

> <ResidueNumber>
1002

> <InsertionCode>


> <Model>
1

> <AltIds>


> <MissingHeavyAtoms>
0

> <ObservedFormula>
C12 N4 O7

> <Name>
ZANAMIVIR

> <SystematicName>
(4S,5R,6R)-5-acetamido-4-(diaminomethylideneamino)-6-[(1R,2R)-1,2,3-trihydroxypropyl]-5,6-dihydro-4H-pyran-2-carboxylic acid

> <Synonyms>
MODIFIED SIALIC ACID

> <Type>
NON-POLYMER

> <Formula>
C12 H20 N4 O7

> <MolecularWeight>
332.31

> <ModifiedDate>
2011-06-04

> <Parent>


> <OneLetterCode>


> <SubcomponentList>


> <AmbiguousFlag>
N

> <InChI>
InChI=1S/C12H20N4O7/c1-4(18)15-8-5(16-12(13)14)2-7(11(21)22)23-10(8)9(20)6(19)3-17/h2,5-6,8-10,17,19-20H,3H2,1H3,(H,15,18)(H,21,22)(H4,13,14,16)/t5-,6+,8+,9+,10+/m0/s1

> <InChIKey>
ARAIBEBZBOPLMB-UFGQHTETSA-N

> <SMILES>
CC(=O)N[C@@H]1[C@H](C=C(O[C@H]1[C@@H]([C@@H](CO)O)O)C(=O)O)N=C(N)N

> <atoms in reference ligand area>
18

> <score>
-43.5493

$$$$
3B7E_ZMR_A_1001
      BALL 1.4.0 (Jan  4 2012, 23:22:29)

 23 23  0999  0  0  0  0  0  0999 V2000
  -30.4510   10.4545  -24.0770 C   0  0  0  0  0  0  0  0  0  0  0  0
  -29.6772    9.5270  -24.4421 O   0  0  0  0  0  0  0  0  0  0  0  0
  -31.5691   10.6552  -24.5859 O   0  0  0  0  0  0  0  0  0  0  0  0
  -29.9747   11.3123  -22.9847 C   0  0  0  0  0  0  0  0  0  0  0  0
  -28.7080   11.7595  -22.8712 C   0  0  0  0  0  0  0  0  0  0  0  0
  -28.3575   12.8078  -21.8371 C   0  0  0  0  0  0  0  0  0  0  0  0
  -29.3330   12.7172  -20.6478 C   0  0  0  0  0  0  0  0  0  0  0  0
  -29.1615   13.8400  -19.7227 N   0  0  0  0  0  0  0  0  0  0  0  0
  -28.8832   13.6965  -18.4137 C   0  0  0  0  0  0  0  0  0  0  0  0
  -28.8259   12.5926  -17.8601 O   0  0  0  0  0  0  0  0  0  0  0  0
  -28.5894   14.9901  -17.7177 C   0  0  0  0  0  0  0  0  0  0  0  0
  -30.7805   12.7153  -21.1428 C   0  0  0  0  0  0  0  0  0  0  0  0
  -31.0279   11.6889  -22.0949 O   0  0  0  0  0  0  0  0  0  0  0  0
  -31.8309   12.5366  -20.0400 C   0  0  0  0  0  0  0  0  0  0  0  0
  -32.8895   11.7371  -20.5416 O   0  0  0  0  0  0  0  0  0  0  0  0
  -32.4079   13.8826  -19.5657 C   0  0  0  0  0  0  0  0  0  0  0  0
  -33.7517   13.6489  -19.1127 O   0  0  0  0  0  0  0  0  0  0  0  0
  -32.3464   14.9311  -20.7022 C   0  0  0  0  0  0  0  0  0  0  0  0
  -33.0014   16.1228  -20.2768 O   0  0  0  0  0  0  0  0  0  0  0  0
  -27.0046   12.6704  -21.2687 N   0  0  0  0  0  0  0  0  0  0  0  0
  -26.3091   13.6471  -20.7793 C   0  0  0  0  0  0  0  0  0  0  0  0
  -26.6753   14.9259  -20.7865 N   0  0  0  0  0  0  0  0  0  0  0  0
  -25.1401   13.3521  -20.2000 N   0  0  0  0  0  0  0  0  0  0  0  0
  1  2  1  0  0  0  0
  1  3  2  0  0  0  0
  1  4  1  0  0  0  0
  4  5  2  0  0  0  0
  4 13  1  0  0  0  0
  5  6  1  0  0  0  0
  6  7  1  0  0  0  0
  6 20  1  0  0  0  0
  7  8  1  0  0  0  0
  7 12  1  0  0  0  0
  8  9  1  0  0  0  0
  9 10  2  0  0  0  0
  9 11  1  0  0  0  0
 12 13  1  0  0  0  0
 12 14  1  0  0  0  0
 14 15  1  0  0  0  0
 14 16  1  0  0  0  0
 16 17  1  0  0  0  0
 16 18  1  0  0  0  0
 18 19  1  0  0  0  0
 20 21  2  0  0  0  0
 21 22  1  0  0  0  0
 21 23  1  0  0  0  0
M  END
> <InstanceId>
3B7E_ZMR_A_1001

> <ChemCompId>
ZMR

> <PdbId>
3B7E

> <ChainId>
A

> <ResidueNumber>
1001

> <InsertionCode>


> <Model>
1

> <AltIds>


> <MissingHeavyAtoms>
0

> <ObservedFormula>
C12 N4 O7

> <Name>
ZANAMIVIR

> <SystematicName>
(4S,5R,6R)-5-acetamido-4-(diaminomethylideneamino)-6-[(1R,2R)-1,2,3-trihydroxypropyl]-5,6-dihydro-4H-pyran-2-carboxylic acid

> <Synonyms>
MODIFIED SIALIC ACID

> <Type>
NON-POLYMER

> <Formula>
C12 H20 N4 O7

> <MolecularWeight>
332.31

> <ModifiedDate>
2011-06-04

> <Parent>


> <OneLetterCode>


> <SubcomponentList>


> <AmbiguousFlag>
N

> <InChI>
InChI=1S/C12H20N4O7/c1-4(18)15-8-5(16-12(13)14)2-7(11(21)22)23-10(8)9(20)6(19)3-17/h2,5-6,8-10,17,19-20H,3H2,1H3,(H,15,18)(H,21,22)(H4,13,14,16)/t5-,6+,8+,9+,10+/m0/s1

> <InChIKey>
ARAIBEBZBOPLMB-UFGQHTETSA-N

> <SMILES>
CC(=O)N[C@@H]1[C@H](C=C(O[C@H]1[C@@H]([C@@H](CO)O)O)C(=O)O)N=C(N)N

> <atoms in reference ligand area>
18

> <score>
-42.1079

$$$$
