3B7E_ZMR_A_1001
 OpenBabel01041713433D

 31 31  0  0  1  0  0  0  0  0999 V2000
    8.9760   11.8080    2.4870 C   0  0  0  0  0  0  0  0  0  0  0  0
   10.2730   12.2740    2.8650 O   0  0  0  0  0  0  0  0  0  0  0  0
   10.9020   13.2640    2.0620 C   0  0  2  0  0  0  0  0  0  0  0  0
   10.5480   13.1260    0.5800 C   0  0  1  0  0  0  0  0  0  0  0  0
    9.0190   13.1350    0.3880 C   0  0  2  0  0  0  0  0  0  0  0  0
    8.3770   12.1330    1.3240 C   0  0  0  0  0  0  0  0  0  0  0  0
   11.1900   14.2200   -0.1540 N   0  0  0  0  0  0  0  0  0  0  0  0
   11.1400   15.1260    0.2280 H   0  0  0  0  0  0  0  0  0  0  0  0
   11.8450   14.0580   -1.3180 C   0  0  0  0  0  0  0  0  0  0  0  0
   12.2670   15.3480   -1.9530 C   0  0  0  0  0  0  0  0  0  0  0  0
   12.0300   12.9490   -1.8330 O   0  0  0  0  0  0  0  0  0  0  0  0
    8.3440   11.0080    3.5440 C   0  0  0  0  0  0  0  0  0  0  0  0
    8.6610   11.1850    4.7340 O   0  0  0  0  0  0  0  0  0  0  0  0
    7.4940   10.1530    3.1700 O   0  0  0  0  0  0  0  0  0  0  0  0
    8.7840   12.8660   -1.0420 N   0  0  0  0  0  0  0  0  0  0  0  0
    8.4260   13.7590   -1.9100 C   0  0  0  0  0  0  0  0  0  0  0  0
    8.3550   13.3880   -3.1930 N   0  0  0  0  0  0  0  0  0  0  0  0
    8.4200   12.4370   -3.4350 H   0  0  0  0  0  0  0  0  0  0  0  0
    8.2380   14.0680   -3.8960 H   0  0  0  0  0  0  0  0  0  0  0  0
    8.1420   15.0270   -1.6290 N   0  0  0  0  0  0  0  0  0  0  0  0
    7.8180   15.6270   -2.3390 H   0  0  0  0  0  0  0  0  0  0  0  0
    8.2560   15.3670   -0.7120 H   0  0  0  0  0  0  0  0  0  0  0  0
   12.4010   13.1750    2.3700 C   0  0  2  0  0  0  0  0  0  0  0  0
   12.9960   12.2400    1.4850 O   0  0  0  0  0  0  0  0  0  0  0  0
   12.3970   11.4860    1.3620 H   0  0  0  0  0  0  0  0  0  0  0  0
   12.6690   12.7280    3.8180 C   0  0  2  0  0  0  0  0  0  0  0  0
   11.9730   13.6310    4.6930 O   0  0  0  0  0  0  0  0  0  0  0  0
   11.6820   13.1530    5.4850 H   0  0  0  0  0  0  0  0  0  0  0  0
   14.1900   12.6910    4.1030 C   0  0  0  0  0  0  0  0  0  0  0  0
   14.4800   13.5400    5.2110 O   0  0  0  0  0  0  0  0  0  0  0  0
   13.8870   14.3070    5.1940 H   0  0  0  0  0  0  0  0  0  0  0  0
  1  2  1  0  0  0  0
  1 12  1  0  0  0  0
  3 23  1  0  0  0  0
  3  2  1  1  0  0  0
  4  7  1  6  0  0  0
  4  3  1  0  0  0  0
  5 15  1  6  0  0  0
  5  4  1  0  0  0  0
  5  6  1  0  0  0  0
  6  1  2  0  0  0  0
  7  8  1  0  0  0  0
  9  7  1  0  0  0  0
 10  9  1  0  0  0  0
 11  9  2  0  0  0  0
 12 13  1  0  0  0  0
 14 12  2  0  0  0  0
 16 20  1  0  0  0  0
 16 15  2  0  0  0  0
 17 16  1  0  0  0  0
 18 17  1  0  0  0  0
 19 17  1  0  0  0  0
 20 22  1  0  0  0  0
 21 20  1  0  0  0  0
 23 24  1  6  0  0  0
 23 26  1  0  0  0  0
 25 24  1  0  0  0  0
 26 29  1  1  0  0  0
 26 27  1  0  0  0  0
 27 28  1  0  0  0  0
 29 30  1  0  0  0  0
 31 30  1  0  0  0  0
M  END
>  <MODEL>
1

>  <REMARK>
 VINA RESULT:      -6.7      0.000      0.000
  Name = 3B7E_ZMR_A_1001
                            x       y       z     vdW  Elec       q    Type
                         _______ _______ _______ _____ _____    ______ ____

>  <TORSDO>
F 11

>  <vina_score>
-6.7

$$$$
3B7E_ZMR_B_1002
 OpenBabel01041713433D

 31 31  0  0  1  0  0  0  0  0999 V2000
    7.2360   11.6380    0.5150 C   0  0  0  0  0  0  0  0  0  0  0  0
    7.9660   12.2650    1.5580 O   0  0  0  0  0  0  0  0  0  0  0  0
    8.7970   13.3880    1.2550 C   0  0  2  0  0  0  0  0  0  0  0  0
    9.4960   13.2060   -0.1030 C   0  0  1  0  0  0  0  0  0  0  0  0
    8.4380   12.9930   -1.2060 C   0  0  2  0  0  0  0  0  0  0  0  0
    7.4610   11.9070   -0.7850 C   0  0  0  0  0  0  0  0  0  0  0  0
   10.2920   14.3980   -0.4170 N   0  0  0  0  0  0  0  0  0  0  0  0
    9.8710   15.2830   -0.3270 H   0  0  0  0  0  0  0  0  0  0  0  0
   11.5660   14.3330   -0.8200 C   0  0  0  0  0  0  0  0  0  0  0  0
   12.1490   15.6740   -1.1730 C   0  0  0  0  0  0  0  0  0  0  0  0
   12.1910   13.2580   -0.9150 O   0  0  0  0  0  0  0  0  0  0  0  0
    6.1920   10.7510    1.0260 C   0  0  0  0  0  0  0  0  0  0  0  0
    5.2340   10.4590    0.3040 O   0  0  0  0  0  0  0  0  0  0  0  0
    6.2900   10.3680    2.2330 O   0  0  0  0  0  0  0  0  0  0  0  0
    9.1590   12.6800   -2.4520 N   0  0  0  0  0  0  0  0  0  0  0  0
    9.3000   13.4860   -3.4480 C   0  0  0  0  0  0  0  0  0  0  0  0
   10.0620   13.0960   -4.4860 N   0  0  0  0  0  0  0  0  0  0  0  0
   10.7950   13.6720   -4.8030 H   0  0  0  0  0  0  0  0  0  0  0  0
    9.8870   12.2350   -4.9300 H   0  0  0  0  0  0  0  0  0  0  0  0
    8.7430   14.6910   -3.5060 N   0  0  0  0  0  0  0  0  0  0  0  0
    7.8050   14.7870   -3.7870 H   0  0  0  0  0  0  0  0  0  0  0  0
    9.2690   15.4880   -3.2680 H   0  0  0  0  0  0  0  0  0  0  0  0
    9.7990   13.4960    2.4100 C   0  0  2  0  0  0  0  0  0  0  0  0
   10.3560   14.8030    2.4150 O   0  0  0  0  0  0  0  0  0  0  0  0
   11.2570   14.7720    2.0570 H   0  0  0  0  0  0  0  0  0  0  0  0
   10.9470   12.4830    2.2740 C   0  0  2  0  0  0  0  0  0  0  0  0
   10.4760   11.2180    2.7640 O   0  0  0  0  0  0  0  0  0  0  0  0
    9.5110   11.2490    2.8650 H   0  0  0  0  0  0  0  0  0  0  0  0
   12.2200   12.9100    3.0250 C   0  0  0  0  0  0  0  0  0  0  0  0
   11.8670   13.5290    4.2640 O   0  0  0  0  0  0  0  0  0  0  0  0
   11.3370   14.3220    4.0910 H   0  0  0  0  0  0  0  0  0  0  0  0
  1 12  1  0  0  0  0
  1  2  1  0  0  0  0
  3  2  1  1  0  0  0
  3 23  1  0  0  0  0
  4  7  1  6  0  0  0
  4  3  1  0  0  0  0
  5 15  1  6  0  0  0
  5  6  1  0  0  0  0
  5  4  1  0  0  0  0
  6  1  2  0  0  0  0
  7  8  1  0  0  0  0
  9  7  1  0  0  0  0
 10  9  1  0  0  0  0
 11  9  2  0  0  0  0
 12 14  1  0  0  0  0
 13 12  2  0  0  0  0
 16 15  2  0  0  0  0
 17 16  1  0  0  0  0
 18 17  1  0  0  0  0
 19 17  1  0  0  0  0
 20 16  1  0  0  0  0
 20 22  1  0  0  0  0
 21 20  1  0  0  0  0
 23 24  1  6  0  0  0
 25 24  1  0  0  0  0
 26 23  1  0  0  0  0
 26 27  1  1  0  0  0
 26 29  1  0  0  0  0
 27 28  1  0  0  0  0
 29 30  1  0  0  0  0
 31 30  1  0  0  0  0
M  END
>  <MODEL>
1

>  <REMARK>
 VINA RESULT:      -6.7      0.000      0.000
  Name = 3B7E_ZMR_B_1002
                            x       y       z     vdW  Elec       q    Type
                         _______ _______ _______ _____ _____    ______ ____

>  <TORSDO>
F 11

>  <vina_score>
-6.7

$$$$
