3B7E_ZMR_A_1001
      BALL 1.4.0 (Jan  4 2012, 23:22:29)

 23 23  0999  0  0  0  0  0  0999 V2000
    5.8163   10.5904    0.4579 C   0  0  0  0  0  0  0  0  0  0  0  0
    5.4851   10.6980    1.6708 O   0  0  0  0  0  0  0  0  0  0  0  0
    5.2596    9.8128   -0.3388 O   0  0  0  0  0  0  0  0  0  0  0  0
    6.9127   11.4530    0.0000 C   0  0  0  0  0  0  0  0  0  0  0  0
    7.1304   11.7796   -1.2897 C   0  0  0  0  0  0  0  0  0  0  0  0
    8.1486   12.8408   -1.6477 C   0  0  0  0  0  0  0  0  0  0  0  0
    9.2396   12.9079   -0.5618 C   0  0  0  0  0  0  0  0  0  0  0  0
   10.1287   14.0550   -0.7604 N   0  0  0  0  0  0  0  0  0  0  0  0
   11.3684   13.9616   -1.2760 C   0  0  0  0  0  0  0  0  0  0  0  0
   11.8960   12.8790   -1.5552 O   0  0  0  0  0  0  0  0  0  0  0  0
   12.0119   15.2894   -1.5348 C   0  0  0  0  0  0  0  0  0  0  0  0
    8.6060   13.0217    0.8260 C   0  0  0  0  0  0  0  0  0  0  0  0
    7.6785   11.9764    1.0874 O   0  0  0  0  0  0  0  0  0  0  0  0
    9.6073   13.0040    1.9872 C   0  0  0  0  0  0  0  0  0  0  0  0
    8.9098   12.7190    3.1887 O   0  0  0  0  0  0  0  0  0  0  0  0
   10.3361   14.3507    2.1444 C   0  0  0  0  0  0  0  0  0  0  0  0
   10.6809   14.5039    3.5313 O   0  0  0  0  0  0  0  0  0  0  0  0
    9.4515   15.5111    1.6286 C   0  0  0  0  0  0  0  0  0  0  0  0
    9.6647   16.6609    2.4427 O   0  0  0  0  0  0  0  0  0  0  0  0
    8.8519   12.6015   -2.9208 N   0  0  0  0  0  0  0  0  0  0  0  0
    9.0400   13.4967   -3.8374 C   0  0  0  0  0  0  0  0  0  0  0  0
    8.5624   14.7379   -3.8041 N   0  0  0  0  0  0  0  0  0  0  0  0
    9.7902   13.1616   -4.8928 N   0  0  0  0  0  0  0  0  0  0  0  0
  1  2  1  0  0  0  0
  1  3  2  0  0  0  0
  1  4  1  0  0  0  0
  4  5  2  0  0  0  0
  4 13  1  0  0  0  0
  5  6  1  0  0  0  0
  6  7  1  0  0  0  0
  6 20  1  0  0  0  0
  7  8  1  0  0  0  0
  7 12  1  0  0  0  0
  8  9  1  0  0  0  0
  9 10  2  0  0  0  0
  9 11  1  0  0  0  0
 12 13  1  0  0  0  0
 12 14  1  0  0  0  0
 14 15  1  0  0  0  0
 14 16  1  0  0  0  0
 16 17  1  0  0  0  0
 16 18  1  0  0  0  0
 18 19  1  0  0  0  0
 20 21  2  0  0  0  0
 21 22  1  0  0  0  0
 21 23  1  0  0  0  0
M  END
> <InstanceId>
3B7E_ZMR_A_1001

> <ChemCompId>
ZMR

> <PdbId>
3B7E

> <ChainId>
A

> <ResidueNumber>
1001

> <InsertionCode>


> <Model>
1

> <AltIds>


> <MissingHeavyAtoms>
0

> <ObservedFormula>
C12 N4 O7

> <Name>
ZANAMIVIR

> <SystematicName>
(4S,5R,6R)-5-acetamido-4-(diaminomethylideneamino)-6-[(1R,2R)-1,2,3-trihydroxypropyl]-5,6-dihydro-4H-pyran-2-carboxylic acid

> <Synonyms>
MODIFIED SIALIC ACID

> <Type>
NON-POLYMER

> <Formula>
C12 H20 N4 O7

> <MolecularWeight>
332.31

> <ModifiedDate>
2011-06-04

> <Parent>


> <OneLetterCode>


> <SubcomponentList>


> <AmbiguousFlag>
N

> <InChI>
InChI=1S/C12H20N4O7/c1-4(18)15-8-5(16-12(13)14)2-7(11(21)22)23-10(8)9(20)6(19)3-17/h2,5-6,8-10,17,19-20H,3H2,1H3,(H,15,18)(H,21,22)(H4,13,14,16)/t5-,6+,8+,9+,10+/m0/s1

> <InChIKey>
ARAIBEBZBOPLMB-UFGQHTETSA-N

> <SMILES>
CC(=O)N[C@@H]1[C@H](C=C(O[C@H]1[C@@H]([C@@H](CO)O)O)C(=O)O)N=C(N)N

> <atoms in reference ligand area>
18

> <score>
-44.4474

$$$$
3B7E_ZMR_B_1002
      BALL 1.4.0 (Jan  4 2012, 23:22:29)

 23 23  0999  0  0  0  0  0  0999 V2000
    5.5827   10.7020    0.6581 C   0  0  0  0  0  0  0  0  0  0  0  0
    5.3536   10.6979    1.9067 O   0  0  0  0  0  0  0  0  0  0  0  0
    4.8739   10.1045   -0.1577 O   0  0  0  0  0  0  0  0  0  0  0  0
    6.6980   11.5192    0.1819 C   0  0  0  0  0  0  0  0  0  0  0  0
    6.8434   11.9804   -1.0755 C   0  0  0  0  0  0  0  0  0  0  0  0
    7.9314   12.9840   -1.4234 C   0  0  0  0  0  0  0  0  0  0  0  0
    9.1031   12.8575   -0.4277 C   0  0  0  0  0  0  0  0  0  0  0  0
   10.0374   13.9701   -0.6337 N   0  0  0  0  0  0  0  0  0  0  0  0
   11.3358   13.7862   -0.9000 C   0  0  0  0  0  0  0  0  0  0  0  0
   11.8633   12.6573   -0.9471 O   0  0  0  0  0  0  0  0  0  0  0  0
   12.0776   15.0686   -1.1647 C   0  0  0  0  0  0  0  0  0  0  0  0
    8.5641   12.8896    1.0117 C   0  0  0  0  0  0  0  0  0  0  0  0
    7.6041   11.8499    1.2224 O   0  0  0  0  0  0  0  0  0  0  0  0
    9.6699   12.6590    2.0482 C   0  0  0  0  0  0  0  0  0  0  0  0
    9.5812   11.3243    2.5261 O   0  0  0  0  0  0  0  0  0  0  0  0
    9.5419   13.6108    3.2489 C   0  0  0  0  0  0  0  0  0  0  0  0
    9.1843   12.8236    4.3961 O   0  0  0  0  0  0  0  0  0  0  0  0
    8.5121   14.7313    3.0228 C   0  0  0  0  0  0  0  0  0  0  0  0
    9.1812   15.9329    2.6341 O   0  0  0  0  0  0  0  0  0  0  0  0
    8.4822   12.8028   -2.7776 N   0  0  0  0  0  0  0  0  0  0  0  0
    8.9819   13.7411   -3.5058 C   0  0  0  0  0  0  0  0  0  0  0  0
    8.9958   15.0219   -3.1501 N   0  0  0  0  0  0  0  0  0  0  0  0
    9.5320   13.4123   -4.6891 N   0  0  0  0  0  0  0  0  0  0  0  0
  1  2  1  0  0  0  0
  1  3  2  0  0  0  0
  1  4  1  0  0  0  0
  4  5  2  0  0  0  0
  4 13  1  0  0  0  0
  5  6  1  0  0  0  0
  6  7  1  0  0  0  0
  6 20  1  0  0  0  0
  7  8  1  0  0  0  0
  7 12  1  0  0  0  0
  8  9  1  0  0  0  0
  9 10  2  0  0  0  0
  9 11  1  0  0  0  0
 12 13  1  0  0  0  0
 12 14  1  0  0  0  0
 14 15  1  0  0  0  0
 14 16  1  0  0  0  0
 16 17  1  0  0  0  0
 16 18  1  0  0  0  0
 18 19  1  0  0  0  0
 20 21  2  0  0  0  0
 21 22  1  0  0  0  0
 21 23  1  0  0  0  0
M  END
> <InstanceId>
3B7E_ZMR_B_1002

> <ChemCompId>
ZMR

> <PdbId>
3B7E

> <ChainId>
B

> <ResidueNumber>
1002

> <InsertionCode>


> <Model>
1

> <AltIds>


> <MissingHeavyAtoms>
0

> <ObservedFormula>
C12 N4 O7

> <Name>
ZANAMIVIR

> <SystematicName>
(4S,5R,6R)-5-acetamido-4-(diaminomethylideneamino)-6-[(1R,2R)-1,2,3-trihydroxypropyl]-5,6-dihydro-4H-pyran-2-carboxylic acid

> <Synonyms>
MODIFIED SIALIC ACID

> <Type>
NON-POLYMER

> <Formula>
C12 H20 N4 O7

> <MolecularWeight>
332.31

> <ModifiedDate>
2011-06-04

> <Parent>


> <OneLetterCode>


> <SubcomponentList>


> <AmbiguousFlag>
N

> <InChI>
InChI=1S/C12H20N4O7/c1-4(18)15-8-5(16-12(13)14)2-7(11(21)22)23-10(8)9(20)6(19)3-17/h2,5-6,8-10,17,19-20H,3H2,1H3,(H,15,18)(H,21,22)(H4,13,14,16)/t5-,6+,8+,9+,10+/m0/s1

> <InChIKey>
ARAIBEBZBOPLMB-UFGQHTETSA-N

> <SMILES>
CC(=O)N[C@@H]1[C@H](C=C(O[C@H]1[C@@H]([C@@H](CO)O)O)C(=O)O)N=C(N)N

> <atoms in reference ligand area>
19

> <score>
-42.8513

$$$$
