BDB5015
 OpenBabel01041719353D

 25 25  0  0  1  0  0  0  0  0999 V2000
  -30.6890   13.2800  -19.4840 C   0  0  1  0  0  0  0  0  0  0  0  0
  -31.7740   13.5210  -20.6030 C   0  0  1  0  0  0  0  0  0  0  0  0
  -32.9680   12.5180  -20.5540 C   0  0  2  0  0  0  0  0  0  0  0  0
  -33.6330   12.6330  -19.1870 C   0  0  0  0  0  0  0  0  0  0  0  0
  -32.6210   12.6260  -18.0050 C   0  0  0  0  0  0  0  0  0  0  0  0
  -31.3060   12.9420  -18.1460 C   0  0  0  0  0  0  0  0  0  0  0  0
  -30.5070   12.9550  -17.0730 F   0  0  0  0  0  0  0  0  0  0  0  0
  -32.3610   14.9320  -20.6620 N   0  0  0  0  0  0  0  0  0  0  0  0
  -33.2650   14.9690  -21.0490 H   0  0  0  0  0  0  0  0  0  0  0  0
  -31.8390   16.2430  -20.2550 C   0  0  0  0  0  0  0  0  0  0  0  0
  -32.6490   17.1770  -20.2560 O   0  0  0  0  0  0  0  0  0  0  0  0
  -30.4200   16.5920  -19.9180 C   0  0  0  0  0  0  0  0  0  0  0  0
  -32.6480   11.1350  -20.7550 N   0  0  0  0  0  0  0  0  0  0  0  0
  -31.6620   11.0470  -21.0030 H   0  0  0  0  0  0  0  0  0  0  0  0
  -32.8300   10.6150  -19.8960 H   0  0  0  0  0  0  0  0  0  0  0  0
  -33.2220   10.7590  -21.5080 H   0  0  0  0  0  0  0  0  0  0  0  0
  -33.1500   12.3370  -16.6600 C   0  0  0  0  0  0  0  0  0  0  0  0
  -33.4160   13.3310  -15.7720 O   0  0  0  0  0  0  0  0  0  0  0  0
  -33.4080   11.1660  -16.3510 O   0  0  0  0  0  0  0  0  0  0  0  0
  -29.6080   12.2820  -19.7960 O   0  0  0  0  0  0  0  0  0  0  0  0
  -28.2700   12.7290  -20.0780 C   0  0  0  0  0  0  0  0  0  0  0  0
  -28.0970   12.9610  -21.6050 C   0  0  0  0  0  0  0  0  0  0  0  0
  -27.5600   14.3730  -21.8850 C   0  0  0  0  0  0  0  0  0  0  0  0
  -27.9860   14.0480  -19.3260 C   0  0  0  0  0  0  0  0  0  0  0  0
  -27.3880   13.7370  -17.9350 C   0  0  0  0  0  0  0  0  0  0  0  0
  1 20  1  6  0  0  0
  1  6  1  0  0  0  0
  2  8  1  1  0  0  0
  2  3  1  0  0  0  0
  2  1  1  0  0  0  0
  3 13  1  1  0  0  0
  3  4  1  0  0  0  0
  4  5  1  0  0  0  0
  5 17  1  0  0  0  0
  6  5  2  0  0  0  0
  6  7  1  0  0  0  0
  8 10  1  0  0  0  0
  9  8  1  0  0  0  0
 10 12  1  0  0  0  0
 11 10  2  0  0  0  0
 13 15  1  0  0  0  0
 14 13  1  0  0  0  0
 16 13  1  0  0  0  0
 17 19  2  0  0  0  0
 17 18  1  0  0  0  0
 21 20  1  0  0  0  0
 21 24  1  0  0  0  0
 22 21  1  0  0  0  0
 23 22  1  0  0  0  0
 24 25  1  0  0  0  0
M  END
>  <MODEL>
1

>  <REMARK>
 VINA RESULT:      -6.6      0.000      0.000
  Name = BDB5015
                            x       y       z     vdW  Elec       q    Type
                         _______ _______ _______ _____ _____    ______ ____

>  <TORSDO>
F 7

>  <vina_score>
-6.6

$$$$
BDB4934
 OpenBabel01041719343D

 32 32  0  0  1  0  0  0  0  0999 V2000
  -30.1500   12.7070  -18.7040 C   0  0  2  0  0  0  0  0  0  0  0  0
  -29.8710   13.0370  -20.1580 C   0  0  2  0  0  0  0  0  0  0  0  0
  -30.8450   12.3040  -21.0050 C   0  0  0  0  0  0  0  0  0  0  0  0
  -32.0550   11.9660  -20.5440 C   0  0  0  0  0  0  0  0  0  0  0  0
  -32.5000   12.2850  -19.2320 O   0  0  0  0  0  0  0  0  0  0  0  0
  -31.5950   13.1010  -18.4550 C   0  0  1  0  0  0  0  0  0  0  0  0
  -29.2620   13.5170  -17.8590 N   0  0  0  0  0  0  0  0  0  0  0  0
  -28.8580   13.0680  -17.0820 H   0  0  0  0  0  0  0  0  0  0  0  0
  -28.9230   14.9010  -18.0570 C   0  0  0  0  0  0  0  0  0  0  0  0
  -28.1560   15.4370  -17.2500 O   0  0  0  0  0  0  0  0  0  0  0  0
  -29.4570   15.7370  -19.2030 C   0  0  0  0  0  0  0  0  0  0  0  0
  -32.9500   11.2070  -21.4190 C   0  0  0  0  0  0  0  0  0  0  0  0
  -34.2240   10.9470  -21.0240 O   0  0  0  0  0  0  0  0  0  0  0  0
  -32.5480   10.8030  -22.5160 O   0  0  0  0  0  0  0  0  0  0  0  0
  -28.5140   12.6640  -20.5090 N   0  0  0  0  0  0  0  0  0  0  0  0
  -27.9610   12.2070  -19.8340 H   0  0  0  0  0  0  0  0  0  0  0  0
  -27.9530   12.9290  -21.7790 C   0  0  0  0  0  0  0  0  0  0  0  0
  -27.4450   11.9730  -22.4460 N   0  0  0  0  0  0  0  0  0  0  0  0
  -27.0520   12.1450  -23.3320 H   0  0  0  0  0  0  0  0  0  0  0  0
  -27.4470   11.0610  -22.0770 H   0  0  0  0  0  0  0  0  0  0  0  0
  -27.9420   14.2220  -22.3190 N   0  0  0  0  0  0  0  0  0  0  0  0
  -27.4880   14.9520  -21.8390 H   0  0  0  0  0  0  0  0  0  0  0  0
  -28.3880   14.4000  -23.1780 H   0  0  0  0  0  0  0  0  0  0  0  0
  -31.9400   12.9430  -16.9580 C   0  0  2  0  0  0  0  0  0  0  0  0
  -31.1250   11.9130  -16.3950 O   0  0  0  0  0  0  0  0  0  0  0  0
  -30.1960   12.1920  -16.4070 H   0  0  0  0  0  0  0  0  0  0  0  0
  -33.4280   12.5620  -16.7850 C   0  0  2  0  0  0  0  0  0  0  0  0
  -34.2540   13.4580  -17.5340 O   0  0  0  0  0  0  0  0  0  0  0  0
  -34.0650   13.3580  -18.4800 H   0  0  0  0  0  0  0  0  0  0  0  0
  -33.8040   12.6530  -15.2970 C   0  0  0  0  0  0  0  0  0  0  0  0
  -35.0050   13.4160  -15.1560 O   0  0  0  0  0  0  0  0  0  0  0  0
  -34.9520   13.9560  -14.3510 H   0  0  0  0  0  0  0  0  0  0  0  0
  1  6  1  0  0  0  0
  1  7  1  1  0  0  0
  2 15  1  6  0  0  0
  2  1  1  0  0  0  0
  3  4  2  0  0  0  0
  3  2  1  0  0  0  0
  4  5  1  0  0  0  0
  6  5  1  6  0  0  0
  6 24  1  0  0  0  0
  7  8  1  0  0  0  0
  9  7  1  0  0  0  0
  9 10  2  0  0  0  0
 11  9  1  0  0  0  0
 12 13  1  0  0  0  0
 12  4  1  0  0  0  0
 14 12  2  0  0  0  0
 15 16  1  0  0  0  0
 17 15  1  0  0  0  0
 18 20  1  0  0  0  0
 18 17  2  0  0  0  0
 19 18  1  0  0  0  0
 21 22  1  0  0  0  0
 21 17  1  0  0  0  0
 23 21  1  0  0  0  0
 24 27  1  0  0  0  0
 24 25  1  6  0  0  0
 26 25  1  0  0  0  0
 27 28  1  6  0  0  0
 27 30  1  0  0  0  0
 29 28  1  0  0  0  0
 30 31  1  0  0  0  0
 31 32  1  0  0  0  0
M  END
>  <MODEL>
1

>  <REMARK>
 VINA RESULT:      -6.5      0.000      0.000
  Name = BDB4934
                            x       y       z     vdW  Elec       q    Type
                         _______ _______ _______ _____ _____    ______ ____

>  <TORSDO>
F 11

>  <vina_score>
-6.5

$$$$
BDB5232
 OpenBabel01041719373D

 26 26  0  0  1  0  0  0  0  0999 V2000
  -31.3100   13.0220  -17.7900 C   0  0  0  0  0  0  0  0  0  0  0  0
  -32.6110   12.6480  -17.8360 C   0  0  0  0  0  0  0  0  0  0  0  0
  -33.4550   12.6280  -19.1360 C   0  0  0  0  0  0  0  0  0  0  0  0
  -32.5830   12.4760  -20.3770 C   0  0  1  0  0  0  0  0  0  0  0  0
  -31.4290   13.5470  -20.2750 C   0  0  2  0  0  0  0  0  0  0  0  0
  -30.4910   13.4140  -19.0050 C   0  0  2  0  0  0  0  0  0  0  0  0
  -32.1120   14.9040  -20.4640 N   0  0  0  0  0  0  0  0  0  0  0  0
  -33.0350   14.8400  -20.7990 H   0  0  0  0  0  0  0  0  0  0  0  0
  -31.6540   16.2830  -20.2400 C   0  0  0  0  0  0  0  0  0  0  0  0
  -32.5130   17.1660  -20.3430 O   0  0  0  0  0  0  0  0  0  0  0  0
  -30.2550   16.7450  -19.9570 C   0  0  0  0  0  0  0  0  0  0  0  0
  -32.2280   11.0660  -20.4680 N   0  0  0  0  0  0  0  0  0  0  0  0
  -31.6490   10.9140  -21.2930 H   0  0  0  0  0  0  0  0  0  0  0  0
  -31.7110   10.7910  -19.6330 H   0  0  0  0  0  0  0  0  0  0  0  0
  -33.0780   10.5060  -20.5420 H   0  0  0  0  0  0  0  0  0  0  0  0
  -33.2570   12.3540  -16.5640 C   0  0  0  0  0  0  0  0  0  0  0  0
  -33.5500   13.3640  -15.7070 O   0  0  0  0  0  0  0  0  0  0  0  0
  -33.4980   11.1870  -16.2520 O   0  0  0  0  0  0  0  0  0  0  0  0
  -29.2570   12.4760  -19.2100 N   0  0  0  0  0  0  0  0  0  0  0  0
  -29.6120   11.5750  -18.8880 H   0  0  0  0  0  0  0  0  0  0  0  0
  -28.8220   12.4080  -20.6460 C   0  0  0  0  0  0  0  0  0  0  0  0
  -27.4190   13.0010  -20.9250 C   0  0  0  0  0  0  0  0  0  0  0  0
  -27.5730   14.3460  -21.6580 C   0  0  0  0  0  0  0  0  0  0  0  0
  -28.0900   12.8020  -18.4180 C   0  0  0  0  0  0  0  0  0  0  0  0
  -28.3400   13.9260  -17.4080 C   0  0  0  0  0  0  0  0  0  0  0  0
  -27.7080   15.2180  -17.9680 C   0  0  0  0  0  0  0  0  0  0  0  0
  2  1  2  0  0  0  0
  2 16  1  0  0  0  0
  3  2  1  0  0  0  0
  4 12  1  1  0  0  0
  4  5  1  0  0  0  0
  4  3  1  0  0  0  0
  5  7  1  1  0  0  0
  5  6  1  0  0  0  0
  6 19  1  6  0  0  0
  6  1  1  0  0  0  0
  7  9  1  0  0  0  0
  8  7  1  0  0  0  0
  9 11  1  0  0  0  0
 10  9  2  0  0  0  0
 12 14  1  0  0  0  0
 13 12  1  0  0  0  0
 15 12  1  0  0  0  0
 16 18  2  0  0  0  0
 16 17  1  0  0  0  0
 19 20  1  0  0  0  0
 19 24  1  0  0  0  0
 21 19  1  0  0  0  0
 22 21  1  0  0  0  0
 23 22  1  0  0  0  0
 24 25  1  0  0  0  0
 26 25  1  0  0  0  0
M  END
>  <MODEL>
1

>  <REMARK>
 VINA RESULT:      -6.5      0.000      0.000
  Name = BDB5232
                            x       y       z     vdW  Elec       q    Type
                         _______ _______ _______ _____ _____    ______ ____

>  <TORSDO>
F 8

>  <vina_score>
-6.5

$$$$
BDB5021
 OpenBabel01041719363D

 27 28  0  0  1  0  0  0  0  0999 V2000
  -28.1740   14.9250  -19.2590 C   0  0  0  0  0  0  0  0  0  0  0  0
  -27.2140   13.7290  -18.9210 C   0  0  1  0  0  0  0  0  0  0  0  0
  -28.1650   12.5000  -18.8860 C   0  0  0  0  0  0  0  0  0  0  0  0
  -29.1650   12.8760  -19.9710 C   0  0  2  0  0  0  0  0  0  0  0  0
  -29.5400   14.2440  -19.4590 C   0  0  2  0  0  0  0  0  0  0  0  0
  -26.3160   13.5500  -20.1140 C   0  0  0  0  0  0  0  0  0  0  0  0
  -25.5980   12.5480  -20.2020 O   0  0  0  0  0  0  0  0  0  0  0  0
  -26.2960   14.4890  -21.0960 O   0  0  0  0  0  0  0  0  0  0  0  0
  -30.4110   14.9840  -20.3520 N   0  0  0  0  0  0  0  0  0  0  0  0
  -30.8250   14.5090  -21.1070 H   0  0  0  0  0  0  0  0  0  0  0  0
  -30.6880   16.3600  -20.1820 C   0  0  0  0  0  0  0  0  0  0  0  0
  -29.7230   17.1770  -20.0570 N   0  0  0  0  0  0  0  0  0  0  0  0
  -29.9040   18.1380  -19.9380 H   0  0  0  0  0  0  0  0  0  0  0  0
  -28.7950   16.8490  -20.0800 H   0  0  0  0  0  0  0  0  0  0  0  0
  -32.0030   16.8420  -20.1460 N   0  0  0  0  0  0  0  0  0  0  0  0
  -32.2680   17.5940  -20.7250 H   0  0  0  0  0  0  0  0  0  0  0  0
  -32.6640   16.4280  -19.5440 H   0  0  0  0  0  0  0  0  0  0  0  0
  -30.7630   12.9170  -19.7270 C   0  0  1  0  0  0  0  0  0  0  0  0
  -31.2110   11.3850  -20.0360 N   0  0  0  0  0  0  0  0  0  0  0  0
  -30.9100   10.5020  -19.7210 H   0  0  0  0  0  0  0  0  0  0  0  0
  -32.2340   11.8380  -20.9590 C   0  0  0  0  0  0  0  0  0  0  0  0
  -32.7150   11.0050  -21.7380 O   0  0  0  0  0  0  0  0  0  0  0  0
  -32.7340   13.2640  -21.0570 C   0  0  0  0  0  0  0  0  0  0  0  0
  -30.9030   12.9990  -18.0630 C   0  0  0  0  0  0  0  0  0  0  0  0
  -31.8300   12.1610  -17.1610 C   0  0  0  0  0  0  0  0  0  0  0  0
  -33.2470   12.7590  -17.1840 C   0  0  0  0  0  0  0  0  0  0  0  0
  -33.8030   12.8110  -15.7500 C   0  0  0  0  0  0  0  0  0  0  0  0
  1  2  1  0  0  0  0
  2  6  1  6  0  0  0
  2  3  1  0  0  0  0
  4 18  1  0  0  0  0
  4  5  1  0  0  0  0
  4  3  1  1  0  0  0
  5  9  1  6  0  0  0
  5  1  1  0  0  0  0
  7  6  1  0  0  0  0
  8  6  2  0  0  0  0
  9 11  1  0  0  0  0
 10  9  1  0  0  0  0
 11 15  2  0  0  0  0
 11 12  1  0  0  0  0
 12 13  1  0  0  0  0
 14 12  1  0  0  0  0
 15 17  1  0  0  0  0
 16 15  1  0  0  0  0
 18 19  1  6  0  0  0
 18  5  1  0  0  0  0
 18 24  1  0  0  0  0
 19 20  1  0  0  0  0
 21 19  1  0  0  0  0
 22 21  2  0  0  0  0
 23 21  1  0  0  0  0
 24 25  1  0  0  0  0
 26 25  1  0  0  0  0
 26 27  1  0  0  0  0
M  END
>  <MODEL>
1

>  <REMARK>
 VINA RESULT:      -6.4      0.000      0.000
  Name = BDB5021
                            x       y       z     vdW  Elec       q    Type
                         _______ _______ _______ _____ _____    ______ ____

>  <TORSDO>
F 9

>  <vina_score>
-6.4

$$$$
BDB5023
 OpenBabel01041719353D

 28 28  0  0  1  0  0  0  0  0999 V2000
  -31.7310   10.8030  -18.3320 C   0  0  0  0  0  0  0  0  0  0  0  0
  -32.1770   11.9160  -17.3180 C   0  0  1  0  0  0  0  0  0  0  0  0
  -31.0960   13.0200  -17.4930 C   0  0  0  0  0  0  0  0  0  0  0  0
  -30.7960   12.9000  -18.9810 C   0  0  2  0  0  0  0  0  0  0  0  0
  -30.5040   11.4210  -19.0270 C   0  0  2  0  0  0  0  0  0  0  0  0
  -33.4670   12.4840  -17.8450 C   0  0  0  0  0  0  0  0  0  0  0  0
  -34.0170   13.4180  -17.2540 O   0  0  0  0  0  0  0  0  0  0  0  0
  -34.0250   11.9680  -18.9710 O   0  0  0  0  0  0  0  0  0  0  0  0
  -30.2990   10.9070  -20.3670 N   0  0  0  0  0  0  0  0  0  0  0  0
  -29.4580   10.4380  -20.5690 H   0  0  0  0  0  0  0  0  0  0  0  0
  -31.2590   11.0500  -21.3950 C   0  0  0  0  0  0  0  0  0  0  0  0
  -30.8780   11.4050  -22.5540 N   0  0  0  0  0  0  0  0  0  0  0  0
  -31.5380   11.5090  -23.2780 H   0  0  0  0  0  0  0  0  0  0  0  0
  -29.9250   11.5770  -22.7270 H   0  0  0  0  0  0  0  0  0  0  0  0
  -32.6200   10.8100  -21.1640 N   0  0  0  0  0  0  0  0  0  0  0  0
  -33.2930   11.1430  -21.8020 H   0  0  0  0  0  0  0  0  0  0  0  0
  -32.9030   10.3090  -20.3650 H   0  0  0  0  0  0  0  0  0  0  0  0
  -29.5470   13.7500  -19.4030 C   0  0  1  0  0  0  0  0  0  0  0  0
  -29.3580   13.6740  -20.8280 N   0  0  0  0  0  0  0  0  0  0  0  0
  -30.1300   13.8020  -21.4240 H   0  0  0  0  0  0  0  0  0  0  0  0
  -28.0920   13.4210  -21.3860 C   0  0  0  0  0  0  0  0  0  0  0  0
  -27.9610   13.3960  -22.6130 O   0  0  0  0  0  0  0  0  0  0  0  0
  -26.8990   13.1670  -20.5030 C   0  0  0  0  0  0  0  0  0  0  0  0
  -29.5220   15.2450  -18.8560 C   0  0  0  0  0  0  0  0  0  0  0  0
  -28.1630   15.7330  -18.2620 C   0  0  0  0  0  0  0  0  0  0  0  0
  -27.4980   14.6500  -17.3860 C   0  0  0  0  0  0  0  0  0  0  0  0
  -29.9530   16.1990  -19.9890 C   0  0  0  0  0  0  0  0  0  0  0  0
  -31.4920   16.2300  -20.0890 C   0  0  0  0  0  0  0  0  0  0  0  0
  1  2  1  0  0  0  0
  2  6  1  6  0  0  0
  3  2  1  0  0  0  0
  4  3  1  1  0  0  0
  5  9  1  6  0  0  0
  5  4  1  0  0  0  0
  5  1  1  0  0  0  0
  6  7  1  0  0  0  0
  8  6  2  0  0  0  0
 10  9  1  0  0  0  0
 11 15  1  0  0  0  0
 11  9  1  0  0  0  0
 12 11  2  0  0  0  0
 13 12  1  0  0  0  0
 14 12  1  0  0  0  0
 15 17  1  0  0  0  0
 16 15  1  0  0  0  0
 18 19  1  6  0  0  0
 18  4  1  0  0  0  0
 18 24  1  0  0  0  0
 20 19  1  0  0  0  0
 21 19  1  0  0  0  0
 21 23  1  0  0  0  0
 22 21  2  0  0  0  0
 24 25  1  0  0  0  0
 25 26  1  0  0  0  0
 27 24  1  0  0  0  0
 28 27  1  0  0  0  0
M  END
>  <MODEL>
1

>  <REMARK>
 VINA RESULT:      -6.3      0.000      0.000
  Name = BDB5023
                            x       y       z     vdW  Elec       q    Type
                         _______ _______ _______ _____ _____    ______ ____

>  <TORSDO>
F 9

>  <vina_score>
-6.3

$$$$
BDB5024
 OpenBabel01041719353D

 30 30  0  0  1  0  0  0  0  0999 V2000
  -33.6330   12.9850  -19.1530 C   0  0  0  0  0  0  0  0  0  0  0  0
  -33.4210   13.0120  -20.7050 C   0  0  1  0  0  0  0  0  0  0  0  0
  -32.0580   13.7160  -20.8660 C   0  0  2  0  0  0  0  0  0  0  0  0
  -31.2310   13.0670  -19.7210 C   0  0  2  0  0  0  0  0  0  0  0  0
  -32.2320   13.3980  -18.5730 C   0  0  2  0  0  0  0  0  0  0  0  0
  -33.3670   11.5690  -21.2010 C   0  0  0  0  0  0  0  0  0  0  0  0
  -32.3740   11.1060  -21.7720 O   0  0  0  0  0  0  0  0  0  0  0  0
  -34.4830   10.8030  -21.1050 O   0  0  0  0  0  0  0  0  0  0  0  0
  -32.2370   15.1170  -20.6200 O   0  0  0  0  0  0  0  0  0  0  0  0
  -33.0640   15.4140  -21.0300 H   0  0  0  0  0  0  0  0  0  0  0  0
  -31.9640   12.8150  -17.2440 N   0  0  0  0  0  0  0  0  0  0  0  0
  -31.0440   12.8520  -16.8950 H   0  0  0  0  0  0  0  0  0  0  0  0
  -32.9880   12.1890  -16.4240 C   0  0  0  0  0  0  0  0  0  0  0  0
  -33.0250   10.9200  -16.3670 N   0  0  0  0  0  0  0  0  0  0  0  0
  -33.7130   10.4710  -15.8240 H   0  0  0  0  0  0  0  0  0  0  0  0
  -32.3660   10.3860  -16.8650 H   0  0  0  0  0  0  0  0  0  0  0  0
  -33.9680   12.9350  -15.6840 N   0  0  0  0  0  0  0  0  0  0  0  0
  -34.7530   12.4770  -15.3060 H   0  0  0  0  0  0  0  0  0  0  0  0
  -33.8530   13.9040  -15.5530 H   0  0  0  0  0  0  0  0  0  0  0  0
  -29.7400   13.6330  -19.6400 C   0  0  1  0  0  0  0  0  0  0  0  0
  -29.2810   14.0360  -20.9570 N   0  0  0  0  0  0  0  0  0  0  0  0
  -29.8650   14.6070  -21.5070 H   0  0  0  0  0  0  0  0  0  0  0  0
  -28.0250   13.6380  -21.4770 C   0  0  0  0  0  0  0  0  0  0  0  0
  -27.0660   12.7840  -20.6870 C   0  0  0  0  0  0  0  0  0  0  0  0
  -27.7050   14.0080  -22.6130 O   0  0  0  0  0  0  0  0  0  0  0  0
  -29.5030   14.8190  -18.5810 C   0  0  0  0  0  0  0  0  0  0  0  0
  -28.6230   14.4860  -17.3470 C   0  0  0  0  0  0  0  0  0  0  0  0
  -27.1520   14.2120  -17.7200 C   0  0  0  0  0  0  0  0  0  0  0  0
  -28.8990   16.0670  -19.2820 C   0  0  0  0  0  0  0  0  0  0  0  0
  -29.9810   16.8860  -20.0190 C   0  0  0  0  0  0  0  0  0  0  0  0
  1  5  1  0  0  0  0
  2  6  1  1  0  0  0
  2  1  1  0  0  0  0
  3  2  1  0  0  0  0
  3  9  1  1  0  0  0
  3  4  1  0  0  0  0
  4 20  1  1  0  0  0
  4  5  1  0  0  0  0
  5 11  1  1  0  0  0
  6  8  1  0  0  0  0
  7  6  2  0  0  0  0
 10  9  1  0  0  0  0
 11 12  1  0  0  0  0
 11 13  1  0  0  0  0
 13 14  2  0  0  0  0
 13 17  1  0  0  0  0
 14 15  1  0  0  0  0
 16 14  1  0  0  0  0
 17 19  1  0  0  0  0
 17 18  1  0  0  0  0
 20 21  1  6  0  0  0
 20 26  1  0  0  0  0
 22 21  1  0  0  0  0
 23 21  1  0  0  0  0
 23 24  1  0  0  0  0
 25 23  2  0  0  0  0
 26 27  1  0  0  0  0
 28 27  1  0  0  0  0
 29 26  1  0  0  0  0
 30 29  1  0  0  0  0
M  END
>  <MODEL>
1

>  <REMARK>
 VINA RESULT:      -6.3      0.000      0.000
  Name = BDB5024
                            x       y       z     vdW  Elec       q    Type
                         _______ _______ _______ _____ _____    ______ ____

>  <TORSDO>
F 10

>  <vina_score>
-6.3

$$$$
BDB5234
 OpenBabel01041719363D

 26 26  0  0  1  0  0  0  0  0999 V2000
  -31.3130   12.9920  -18.1030 C   0  0  0  0  0  0  0  0  0  0  0  0
  -32.6200   12.6740  -17.9760 C   0  0  0  0  0  0  0  0  0  0  0  0
  -33.6110   12.6890  -19.1510 C   0  0  0  0  0  0  0  0  0  0  0  0
  -32.9180   12.5420  -20.5040 C   0  0  1  0  0  0  0  0  0  0  0  0
  -31.7170   13.5360  -20.5690 C   0  0  2  0  0  0  0  0  0  0  0  0
  -30.6410   13.3340  -19.4070 C   0  0  2  0  0  0  0  0  0  0  0  0
  -32.3520   14.9350  -20.6550 N   0  0  0  0  0  0  0  0  0  0  0  0
  -33.2520   14.9380  -21.0540 H   0  0  0  0  0  0  0  0  0  0  0  0
  -31.8720   16.2730  -20.2570 C   0  0  0  0  0  0  0  0  0  0  0  0
  -32.7150   17.1770  -20.2530 O   0  0  0  0  0  0  0  0  0  0  0  0
  -30.4630   16.6770  -19.9310 C   0  0  0  0  0  0  0  0  0  0  0  0
  -32.5710   11.1890  -20.6490 N   0  0  0  0  0  0  0  0  0  0  0  0
  -31.5710   11.0750  -20.4800 H   0  0  0  0  0  0  0  0  0  0  0  0
  -33.0960   10.6300  -19.9760 H   0  0  0  0  0  0  0  0  0  0  0  0
  -32.7940   10.8810  -21.5950 H   0  0  0  0  0  0  0  0  0  0  0  0
  -33.1020   12.4070  -16.6280 C   0  0  0  0  0  0  0  0  0  0  0  0
  -33.4600   11.1450  -16.2780 O   0  0  0  0  0  0  0  0  0  0  0  0
  -33.2140   13.3280  -15.8200 O   0  0  0  0  0  0  0  0  0  0  0  0
  -29.4190   12.3450  -19.5110 N   0  0  0  0  0  0  0  0  0  0  0  0
  -29.4420   11.8970  -18.5950 H   0  0  0  0  0  0  0  0  0  0  0  0
  -29.5770   11.7930  -20.3540 H   0  0  0  0  0  0  0  0  0  0  0  0
  -27.9770   12.8120  -19.5830 C   0  0  0  0  0  0  0  0  0  0  0  0
  -27.7480   14.1030  -20.4360 C   0  0  0  0  0  0  0  0  0  0  0  0
  -27.8330   13.8280  -21.9520 C   0  0  0  0  0  0  0  0  0  0  0  0
  -27.5000   13.1550  -18.1550 C   0  0  0  0  0  0  0  0  0  0  0  0
  -27.8110   14.6400  -17.8430 C   0  0  0  0  0  0  0  0  0  0  0  0
  1  2  2  0  0  0  0
  2 16  1  0  0  0  0
  3  2  1  0  0  0  0
  4 12  1  1  0  0  0
  4  3  1  0  0  0  0
  5  7  1  1  0  0  0
  5  4  1  0  0  0  0
  5  6  1  0  0  0  0
  6 19  1  6  0  0  0
  6  1  1  0  0  0  0
  7  9  1  0  0  0  0
  8  7  1  0  0  0  0
  9 10  2  0  0  0  0
  9 11  1  0  0  0  0
 12 13  1  0  0  0  0
 12 14  1  0  0  0  0
 15 12  1  0  0  0  0
 16 17  2  0  0  0  0
 16 18  1  0  0  0  0
 19 20  1  0  0  0  0
 21 19  1  0  0  0  0
 22 19  1  0  0  0  0
 22 25  1  0  0  0  0
 23 22  1  0  0  0  0
 24 23  1  0  0  0  0
 25 26  1  0  0  0  0
M  END
>  <MODEL>
1

>  <REMARK>
 VINA RESULT:      -6.3      0.000      0.000
  Name = BDB5234
                            x       y       z     vdW  Elec       q    Type
                         _______ _______ _______ _____ _____    ______ ____

>  <TORSDO>
F 7

>  <vina_score>
-6.3

$$$$
BDB5008
 OpenBabel01041719363D

 25 25  0  0  1  0  0  0  0  0999 V2000
  -31.2490   13.7190  -20.7370 C   0  0  0  0  0  0  0  0  0  0  0  0
  -30.6350   14.6160  -19.9370 C   0  0  0  0  0  0  0  0  0  0  0  0
  -29.6210   14.2300  -18.8790 C   0  0  0  0  0  0  0  0  0  0  0  0
  -29.0330   12.8480  -19.0880 C   0  0  1  0  0  0  0  0  0  0  0  0
  -30.2170   11.8300  -19.4230 C   0  0  2  0  0  0  0  0  0  0  0  0
  -30.9470   12.2310  -20.7120 C   0  0  2  0  0  0  0  0  0  0  0  0
  -31.1690   11.5880  -18.2390 N   0  0  0  0  0  0  0  0  0  0  0  0
  -30.7690   11.7990  -17.3650 H   0  0  0  0  0  0  0  0  0  0  0  0
  -32.5630   11.1020  -18.1480 C   0  0  0  0  0  0  0  0  0  0  0  0
  -32.9610   10.8030  -17.0170 O   0  0  0  0  0  0  0  0  0  0  0  0
  -33.5690   10.9590  -19.2460 C   0  0  0  0  0  0  0  0  0  0  0  0
  -30.9960   16.0220  -20.0400 C   0  0  0  0  0  0  0  0  0  0  0  0
  -32.3060   16.3750  -20.1250 O   0  0  0  0  0  0  0  0  0  0  0  0
  -30.1170   16.8900  -20.0570 O   0  0  0  0  0  0  0  0  0  0  0  0
  -27.7730   12.8930  -20.0150 N   0  0  0  0  0  0  0  0  0  0  0  0
  -27.1350   12.1600  -19.8560 H   0  0  0  0  0  0  0  0  0  0  0  0
  -27.3490   13.8470  -21.1090 C   0  0  0  0  0  0  0  0  0  0  0  0
  -26.4290   14.6810  -20.8310 N   0  0  0  0  0  0  0  0  0  0  0  0
  -26.1190   15.3180  -21.5150 H   0  0  0  0  0  0  0  0  0  0  0  0
  -26.0270   14.6890  -19.9320 H   0  0  0  0  0  0  0  0  0  0  0  0
  -27.8650   13.9210  -22.4470 N   0  0  0  0  0  0  0  0  0  0  0  0
  -28.4330   14.6790  -22.7140 H   0  0  0  0  0  0  0  0  0  0  0  0
  -27.6510   13.2120  -23.0960 H   0  0  0  0  0  0  0  0  0  0  0  0
  -30.1470   11.9060  -21.8440 O   0  0  0  0  0  0  0  0  0  0  0  0
  -30.1960   10.9520  -22.0120 H   0  0  0  0  0  0  0  0  0  0  0  0
  1  6  1  0  0  0  0
  1  2  2  0  0  0  0
  2  3  1  0  0  0  0
  4 15  1  6  0  0  0
  4  3  1  0  0  0  0
  5  4  1  0  0  0  0
  5  7  1  1  0  0  0
  6 24  1  6  0  0  0
  6  5  1  0  0  0  0
  7  9  1  0  0  0  0
  7  8  1  0  0  0  0
  9 10  2  0  0  0  0
 11  9  1  0  0  0  0
 12  2  1  0  0  0  0
 13 12  2  0  0  0  0
 14 12  1  0  0  0  0
 15 16  1  0  0  0  0
 17 18  1  0  0  0  0
 17 15  1  0  0  0  0
 18 20  1  0  0  0  0
 19 18  1  0  0  0  0
 21 17  2  0  0  0  0
 22 21  1  0  0  0  0
 23 21  1  0  0  0  0
 25 24  1  0  0  0  0
M  END
>  <MODEL>
1

>  <REMARK>
 VINA RESULT:      -6.3      0.000      0.000
  Name = BDB5008
                            x       y       z     vdW  Elec       q    Type
                         _______ _______ _______ _____ _____    ______ ____

>  <TORSDO>
F 6

>  <vina_score>
-6.3

$$$$
BDB5219
 OpenBabel01041719373D

 24 24  0  0  1  0  0  0  0  0999 V2000
  -29.9780   14.1130  -20.9600 C   0  0  0  0  0  0  0  0  0  0  0  0
  -30.4340   14.7230  -19.8400 C   0  0  0  0  0  0  0  0  0  0  0  0
  -30.5650   14.0110  -18.4790 C   0  0  0  0  0  0  0  0  0  0  0  0
  -29.6990   12.7450  -18.3740 C   0  0  1  0  0  0  0  0  0  0  0  0
  -29.9550   11.9220  -19.6660 C   0  0  2  0  0  0  0  0  0  0  0  0
  -29.5270   12.6740  -20.9800 C   0  0  2  0  0  0  0  0  0  0  0  0
  -28.3200   13.1370  -18.1100 N   0  0  0  0  0  0  0  0  0  0  0  0
  -27.6990   12.6480  -18.7550 H   0  0  0  0  0  0  0  0  0  0  0  0
  -28.2230   14.1440  -18.2400 H   0  0  0  0  0  0  0  0  0  0  0  0
  -28.0760   12.8910  -17.1500 H   0  0  0  0  0  0  0  0  0  0  0  0
  -30.9120   16.0910  -19.9720 C   0  0  0  0  0  0  0  0  0  0  0  0
  -32.2430   16.3200  -20.1340 O   0  0  0  0  0  0  0  0  0  0  0  0
  -30.1170   17.0280  -19.9930 O   0  0  0  0  0  0  0  0  0  0  0  0
  -31.4010   11.5630  -19.6080 N   0  0  0  0  0  0  0  0  0  0  0  0
  -32.4000   11.6020  -20.6320 C   0  0  0  0  0  0  0  0  0  0  0  0
  -32.4350   10.8030  -21.5680 O   0  0  0  0  0  0  0  0  0  0  0  0
  -33.4260   12.6900  -20.5830 C   0  0  0  0  0  0  0  0  0  0  0  0
  -34.6650   12.1710  -20.9050 F   0  0  0  0  0  0  0  0  0  0  0  0
  -33.0890   13.6690  -21.4910 F   0  0  0  0  0  0  0  0  0  0  0  0
  -33.4650   13.2330  -19.3140 F   0  0  0  0  0  0  0  0  0  0  0  0
  -28.0810   12.5920  -21.2470 O   0  0  0  0  0  0  0  0  0  0  0  0
  -27.4680   13.7760  -21.7590 C   0  0  0  0  0  0  0  0  0  0  0  0
  -26.3390   14.1760  -20.7810 C   0  0  0  0  0  0  0  0  0  0  0  0
  -25.5420   12.9290  -20.3610 C   0  0  0  0  0  0  0  0  0  0  0  0
  1  2  2  0  0  0  0
  2  3  1  0  0  0  0
  3  4  1  0  0  0  0
  4  7  1  6  0  0  0
  5 14  1  6  0  0  0
  5  4  1  0  0  0  0
  6 21  1  1  0  0  0
  6  1  1  0  0  0  0
  6  5  1  0  0  0  0
  7 10  1  0  0  0  0
  8  7  1  0  0  0  0
  9  7  1  0  0  0  0
 11  2  1  0  0  0  0
 12 11  2  0  0  0  0
 13 11  1  0  0  0  0
 15 17  1  0  0  0  0
 15 14  1  0  0  0  0
 16 15  2  0  0  0  0
 17 20  1  0  0  0  0
 18 17  1  0  0  0  0
 19 17  1  0  0  0  0
 22 21  1  0  0  0  0
 22 23  1  0  0  0  0
 23 24  1  0  0  0  0
M  END
>  <MODEL>
1

>  <REMARK>
 VINA RESULT:      -6.1      0.000      0.000
  Name = BDB5219
                            x       y       z     vdW  Elec       q    Type
                         _______ _______ _______ _____ _____    ______ ____

>  <TORSDO>
F 8

>  <vina_score>
-6.1

$$$$
BDB4986
 OpenBabel01041719383D

 25 25  0  0  1  0  0  0  0  0999 V2000
  -30.9890   12.6780  -19.0420 C   0  0  0  0  0  0  0  0  0  0  0  0
  -32.1980   12.4710  -18.4510 C   0  0  0  0  0  0  0  0  0  0  0  0
  -33.5150   12.6460  -19.1990 C   0  0  0  0  0  0  0  0  0  0  0  0
  -33.3310   12.6130  -20.7200 C   0  0  1  0  0  0  0  0  0  0  0  0
  -32.1720   13.5900  -21.1120 C   0  0  2  0  0  0  0  0  0  0  0  0
  -30.8600   13.0290  -20.4930 C   0  0  2  0  0  0  0  0  0  0  0  0
  -32.6240   15.0270  -20.8500 N   0  0  0  0  0  0  0  0  0  0  0  0
  -33.5520   15.2080  -21.1220 H   0  0  0  0  0  0  0  0  0  0  0  0
  -31.9390   16.1830  -20.2770 C   0  0  0  0  0  0  0  0  0  0  0  0
  -32.6390   17.1780  -20.0500 O   0  0  0  0  0  0  0  0  0  0  0  0
  -30.4790   16.3110  -19.9880 C   0  0  0  0  0  0  0  0  0  0  0  0
  -33.0870   11.2030  -21.1130 N   0  0  0  0  0  0  0  0  0  0  0  0
  -32.0890   11.0000  -21.0470 H   0  0  0  0  0  0  0  0  0  0  0  0
  -33.6030   10.5820  -20.4910 H   0  0  0  0  0  0  0  0  0  0  0  0
  -33.4000   11.0580  -22.0730 H   0  0  0  0  0  0  0  0  0  0  0  0
  -32.1830   12.1630  -17.0260 C   0  0  0  0  0  0  0  0  0  0  0  0
  -31.5960   11.0030  -16.6110 O   0  0  0  0  0  0  0  0  0  0  0  0
  -32.7080   12.9100  -16.2160 O   0  0  0  0  0  0  0  0  0  0  0  0
  -30.6230   11.7940  -21.2150 O   0  0  0  0  0  0  0  0  0  0  0  0
  -29.3090   11.6620  -21.7570 C   0  0  0  0  0  0  0  0  0  0  0  0
  -28.5890   13.0550  -21.6990 C   0  0  0  0  0  0  0  0  0  0  0  0
  -27.3000   13.0530  -20.8090 C   0  0  0  0  0  0  0  0  0  0  0  0
  -27.4350   14.1770  -19.7360 C   0  0  0  0  0  0  0  0  0  0  0  0
  -27.4690   13.6010  -18.2980 C   0  0  0  0  0  0  0  0  0  0  0  0
  -28.2130   14.5890  -17.3640 C   0  0  0  0  0  0  0  0  0  0  0  0
  1  2  2  0  0  0  0
  2 16  1  0  0  0  0
  3  2  1  0  0  0  0
  4 12  1  1  0  0  0
  4  3  1  0  0  0  0
  5  7  1  1  0  0  0
  5  4  1  0  0  0  0
  5  6  1  0  0  0  0
  6 19  1  6  0  0  0
  6  1  1  0  0  0  0
  7  9  1  0  0  0  0
  8  7  1  0  0  0  0
  9 10  2  0  0  0  0
  9 11  1  0  0  0  0
 12 13  1  0  0  0  0
 12 14  1  0  0  0  0
 15 12  1  0  0  0  0
 16 17  2  0  0  0  0
 16 18  1  0  0  0  0
 20 21  1  0  0  0  0
 20 19  1  0  0  0  0
 21 22  1  0  0  0  0
 22 23  1  0  0  0  0
 23 24  1  0  0  0  0
 24 25  1  0  0  0  0
M  END
>  <MODEL>
1

>  <REMARK>
 VINA RESULT:      -6.1      0.000      0.000
  Name = BDB4986
                            x       y       z     vdW  Elec       q    Type
                         _______ _______ _______ _____ _____    ______ ____

>  <TORSDO>
F 9

>  <vina_score>
-6.1

$$$$
BDB5025
 OpenBabel01041719343D

 26 26  0  0  1  0  0  0  0  0999 V2000
  -31.2190   12.6640  -17.5410 C   0  0  0  0  0  0  0  0  0  0  0  0
  -30.2190   13.1180  -18.5670 C   0  0  2  0  0  0  0  0  0  0  0  0
  -30.7900   13.0340  -19.9840 C   0  0  1  0  0  0  0  0  0  0  0  0
  -32.0870   13.8260  -19.9860 C   0  0  2  0  0  0  0  0  0  0  0  0
  -33.1120   13.0830  -19.1110 C   0  0  0  0  0  0  0  0  0  0  0  0
  -32.5330   12.6600  -17.7770 C   0  0  0  0  0  0  0  0  0  0  0  0
  -29.8280   13.6500  -20.9080 N   0  0  0  0  0  0  0  0  0  0  0  0
  -29.7010   14.6230  -20.8320 H   0  0  0  0  0  0  0  0  0  0  0  0
  -29.0560   12.9720  -21.9140 C   0  0  0  0  0  0  0  0  0  0  0  0
  -28.2870   13.6410  -22.6130 O   0  0  0  0  0  0  0  0  0  0  0  0
  -29.1330   11.4780  -22.1610 C   0  0  0  0  0  0  0  0  0  0  0  0
  -32.6200   13.9290  -21.3510 N   0  0  0  0  0  0  0  0  0  0  0  0
  -33.0580   13.0460  -21.6130 H   0  0  0  0  0  0  0  0  0  0  0  0
  -33.3140   14.6770  -21.3900 H   0  0  0  0  0  0  0  0  0  0  0  0
  -31.8600   14.1380  -21.9990 H   0  0  0  0  0  0  0  0  0  0  0  0
  -33.4410   12.1940  -16.7310 C   0  0  0  0  0  0  0  0  0  0  0  0
  -33.4390   11.0040  -16.3940 O   0  0  0  0  0  0  0  0  0  0  0  0
  -34.3070   13.0940  -16.1180 O   0  0  0  0  0  0  0  0  0  0  0  0
  -34.1570   13.0250  -14.6980 C   0  0  0  0  0  0  0  0  0  0  0  0
  -35.3290   12.2230  -14.1010 C   0  0  0  0  0  0  0  0  0  0  0  0
  -28.9870   12.3420  -18.4650 O   0  0  0  0  0  0  0  0  0  0  0  0
  -27.8200   13.1300  -18.1000 C   0  0  0  0  0  0  0  0  0  0  0  0
  -27.1020   13.7170  -19.3510 C   0  0  0  0  0  0  0  0  0  0  0  0
  -25.9960   12.7490  -19.8290 C   0  0  0  0  0  0  0  0  0  0  0  0
  -28.2720   14.2990  -17.1970 C   0  0  0  0  0  0  0  0  0  0  0  0
  -28.1270   15.6380  -17.9510 C   0  0  0  0  0  0  0  0  0  0  0  0
  2 21  1  6  0  0  0
  2  1  1  0  0  0  0
  3  7  1  6  0  0  0
  3  2  1  0  0  0  0
  4 12  1  6  0  0  0
  4  3  1  0  0  0  0
  4  5  1  0  0  0  0
  5  6  1  0  0  0  0
  6  1  2  0  0  0  0
  6 16  1  0  0  0  0
  7  8  1  0  0  0  0
  9  7  1  0  0  0  0
 10  9  2  0  0  0  0
 11  9  1  0  0  0  0
 13 12  1  0  0  0  0
 14 12  1  0  0  0  0
 15 12  1  0  0  0  0
 16 17  2  0  0  0  0
 16 18  1  0  0  0  0
 18 19  1  0  0  0  0
 19 20  1  0  0  0  0
 21 22  1  0  0  0  0
 22 25  1  0  0  0  0
 23 22  1  0  0  0  0
 24 23  1  0  0  0  0
 26 25  1  0  0  0  0
M  END
>  <MODEL>
1

>  <REMARK>
 VINA RESULT:      -5.9      0.000      0.000
  Name = BDB5025
                            x       y       z     vdW  Elec       q    Type
                         _______ _______ _______ _____ _____    ______ ____

>  <TORSDO>
F 9

>  <vina_score>
-5.9

$$$$
BDB5009
 OpenBabel01041719353D

 27 27  0  0  1  0  0  0  0  0999 V2000
  -30.3040   14.0800  -18.7030 C   0  0  0  0  0  0  0  0  0  0  0  0
  -30.9120   14.3960  -19.8630 C   0  0  0  0  0  0  0  0  0  0  0  0
  -31.0240   13.4400  -21.0270 C   0  0  0  0  0  0  0  0  0  0  0  0
  -30.7140   12.0170  -20.6620 C   0  0  1  0  0  0  0  0  0  0  0  0
  -29.4530   11.9440  -19.7050 C   0  0  2  0  0  0  0  0  0  0  0  0
  -29.7960   12.6930  -18.4080 C   0  0  2  0  0  0  0  0  0  0  0  0
  -28.0950   12.3640  -20.3400 N   0  0  0  0  0  0  0  0  0  0  0  0
  -28.0570   12.1970  -21.3100 H   0  0  0  0  0  0  0  0  0  0  0  0
  -26.8410   12.9620  -19.8040 C   0  0  0  0  0  0  0  0  0  0  0  0
  -25.9320   13.1380  -20.6230 O   0  0  0  0  0  0  0  0  0  0  0  0
  -26.5240   13.3700  -18.4010 C   0  0  0  0  0  0  0  0  0  0  0  0
  -31.4660   15.7220  -20.0430 C   0  0  0  0  0  0  0  0  0  0  0  0
  -30.6300   16.7910  -20.0850 O   0  0  0  0  0  0  0  0  0  0  0  0
  -32.6790   15.8710  -20.2160 O   0  0  0  0  0  0  0  0  0  0  0  0
  -32.0080   11.3030  -20.2010 N   0  0  0  0  0  0  0  0  0  0  0  0
  -31.8510   10.4370  -19.7600 H   0  0  0  0  0  0  0  0  0  0  0  0
  -33.4730   11.6870  -20.3010 C   0  0  0  0  0  0  0  0  0  0  0  0
  -34.2640   10.8040  -20.7330 N   0  0  0  0  0  0  0  0  0  0  0  0
  -35.2240   11.0020  -20.8210 H   0  0  0  0  0  0  0  0  0  0  0  0
  -33.9210    9.9150  -20.9820 H   0  0  0  0  0  0  0  0  0  0  0  0
  -34.0920   12.9480  -19.9690 N   0  0  0  0  0  0  0  0  0  0  0  0
  -34.9560   13.1940  -20.3740 H   0  0  0  0  0  0  0  0  0  0  0  0
  -33.6510   13.5620  -19.3400 H   0  0  0  0  0  0  0  0  0  0  0  0
  -30.8860   12.0210  -17.7110 O   0  0  0  0  0  0  0  0  0  0  0  0
  -31.6150   12.9110  -16.8350 C   0  0  0  0  0  0  0  0  0  0  0  0
  -33.0770   12.4160  -16.6180 C   0  0  0  0  0  0  0  0  0  0  0  0
  -33.1710   10.8760  -16.6540 C   0  0  0  0  0  0  0  0  0  0  0  0
  1  6  1  0  0  0  0
  2  1  2  0  0  0  0
  3  4  1  0  0  0  0
  3  2  1  0  0  0  0
  4 15  1  1  0  0  0
  4  5  1  0  0  0  0
  5  7  1  6  0  0  0
  5  6  1  0  0  0  0
  6 24  1  6  0  0  0
  7  9  1  0  0  0  0
  8  7  1  0  0  0  0
  9 11  1  0  0  0  0
 10  9  2  0  0  0  0
 12  2  1  0  0  0  0
 13 12  1  0  0  0  0
 14 12  2  0  0  0  0
 15 16  1  0  0  0  0
 17 15  1  0  0  0  0
 17 21  1  0  0  0  0
 18 17  2  0  0  0  0
 19 18  1  0  0  0  0
 20 18  1  0  0  0  0
 21 23  1  0  0  0  0
 22 21  1  0  0  0  0
 24 25  1  0  0  0  0
 25 26  1  0  0  0  0
 27 26  1  0  0  0  0
M  END
>  <MODEL>
1

>  <REMARK>
 VINA RESULT:      -5.9      0.000      0.000
  Name = BDB5009
                            x       y       z     vdW  Elec       q    Type
                         _______ _______ _______ _____ _____    ______ ____

>  <TORSDO>
F 8

>  <vina_score>
-5.9

$$$$
BDB5222
 OpenBabel01041719373D

 24 24  0  0  1  0  0  0  0  0999 V2000
  -30.5230   14.1130  -18.6450 C   0  0  0  0  0  0  0  0  0  0  0  0
  -30.9980   14.4760  -19.8490 C   0  0  0  0  0  0  0  0  0  0  0  0
  -31.0200   13.5250  -21.0590 C   0  0  0  0  0  0  0  0  0  0  0  0
  -30.8850   12.0510  -20.6540 C   0  0  1  0  0  0  0  0  0  0  0  0
  -29.7000   11.9120  -19.6430 C   0  0  2  0  0  0  0  0  0  0  0  0
  -30.0360   12.7180  -18.3370 C   0  0  2  0  0  0  0  0  0  0  0  0
  -28.3700   12.1980  -20.3530 N   0  0  0  0  0  0  0  0  0  0  0  0
  -28.3280   11.8420  -21.2700 H   0  0  0  0  0  0  0  0  0  0  0  0
  -27.1430   12.9000  -19.9370 C   0  0  0  0  0  0  0  0  0  0  0  0
  -26.2940   13.0810  -20.8170 O   0  0  0  0  0  0  0  0  0  0  0  0
  -26.7760   13.3620  -18.5620 C   0  0  0  0  0  0  0  0  0  0  0  0
  -31.4450   15.8500  -20.0270 C   0  0  0  0  0  0  0  0  0  0  0  0
  -30.5400   16.8600  -20.0390 O   0  0  0  0  0  0  0  0  0  0  0  0
  -32.6490   16.0940  -20.1650 O   0  0  0  0  0  0  0  0  0  0  0  0
  -32.2080   11.5670  -20.1430 N   0  0  0  0  0  0  0  0  0  0  0  0
  -32.2410   10.8870  -19.4320 H   0  0  0  0  0  0  0  0  0  0  0  0
  -33.4290   12.0950  -20.6910 C   0  0  0  0  0  0  0  0  0  0  0  0
  -34.2760   12.6720  -19.9500 N   0  0  0  0  0  0  0  0  0  0  0  0
  -35.1080   13.0290  -20.3380 H   0  0  0  0  0  0  0  0  0  0  0  0
  -34.1050   12.7630  -18.9850 H   0  0  0  0  0  0  0  0  0  0  0  0
  -31.1270   12.0890  -17.5920 O   0  0  0  0  0  0  0  0  0  0  0  0
  -31.9220   13.0650  -16.8840 C   0  0  0  0  0  0  0  0  0  0  0  0
  -33.2960   12.4770  -16.4600 C   0  0  0  0  0  0  0  0  0  0  0  0
  -33.3300   10.9490  -16.6220 C   0  0  0  0  0  0  0  0  0  0  0  0
  1  6  1  0  0  0  0
  2  1  2  0  0  0  0
  3  4  1  0  0  0  0
  3  2  1  0  0  0  0
  4 15  1  1  0  0  0
  4  5  1  0  0  0  0
  5  7  1  6  0  0  0
  5  6  1  0  0  0  0
  6 21  1  6  0  0  0
  7  9  1  0  0  0  0
  8  7  1  0  0  0  0
  9 11  1  0  0  0  0
 10  9  2  0  0  0  0
 12  2  1  0  0  0  0
 13 12  1  0  0  0  0
 14 12  2  0  0  0  0
 15 16  1  0  0  0  0
 17 15  1  0  0  0  0
 17 18  1  0  0  0  0
 18 20  1  0  0  0  0
 19 18  1  0  0  0  0
 21 22  1  0  0  0  0
 22 23  1  0  0  0  0
 24 23  1  0  0  0  0
M  END
>  <MODEL>
1

>  <REMARK>
 VINA RESULT:      -5.9      0.000      0.000
  Name = BDB5222
                            x       y       z     vdW  Elec       q    Type
                         _______ _______ _______ _____ _____    ______ ____

>  <TORSDO>
F 7

>  <vina_score>
-5.9

$$$$
BDB5195
 OpenBabel01041719343D

 24 24  0  0  1  0  0  0  0  0999 V2000
  -33.7950   11.8020  -18.8610 C   0  0  0  0  0  0  0  0  0  0  0  0
  -33.0710   12.7000  -17.8920 C   0  0  2  0  0  0  0  0  0  0  0  0
  -31.6430   12.3700  -18.3040 C   0  0  1  0  0  0  0  0  0  0  0  0
  -31.6580   12.4690  -19.7880 N   0  0  0  0  0  0  0  0  0  0  0  0
  -31.0500   11.7820  -20.2330 H   0  0  0  0  0  0  0  0  0  0  0  0
  -31.3230   13.3830  -20.0930 H   0  0  0  0  0  0  0  0  0  0  0  0
  -33.1020   12.2830  -20.1500 C   0  0  1  0  0  0  0  0  0  0  0  0
  -33.2990   11.3270  -21.2920 C   0  0  0  0  0  0  0  0  0  0  0  0
  -32.2650   11.0420  -22.1240 O   0  0  0  0  0  0  0  0  0  0  0  0
  -34.4040   10.8050  -21.4750 O   0  0  0  0  0  0  0  0  0  0  0  0
  -33.3380   12.3450  -16.4590 C   0  0  0  0  0  0  0  0  0  0  0  0
  -33.2730   11.1650  -16.0940 O   0  0  0  0  0  0  0  0  0  0  0  0
  -33.6560   13.3450  -15.5450 O   0  0  0  0  0  0  0  0  0  0  0  0
  -34.6570   12.8720  -14.6400 C   0  0  0  0  0  0  0  0  0  0  0  0
  -30.4980   13.3920  -18.7330 C   0  0  1  0  0  0  0  0  0  0  0  0
  -31.2540   14.6670  -19.0730 N   0  0  0  0  0  0  0  0  0  0  0  0
  -31.9810   14.7430  -18.4130 H   0  0  0  0  0  0  0  0  0  0  0  0
  -31.3690   15.7890  -19.9190 C   0  0  0  0  0  0  0  0  0  0  0  0
  -32.4330   16.0040  -20.5020 O   0  0  0  0  0  0  0  0  0  0  0  0
  -30.2100   16.7340  -20.1110 C   0  0  0  0  0  0  0  0  0  0  0  0
  -29.6820   13.7630  -17.3360 C   0  0  0  0  0  0  0  0  0  0  0  0
  -28.6800   14.1190  -18.4760 C   0  0  0  0  0  0  0  0  0  0  0  0
  -27.6060   15.1220  -18.0050 C   0  0  0  0  0  0  0  0  0  0  0  0
  -27.9730   12.8300  -18.9290 C   0  0  0  0  0  0  0  0  0  0  0  0
  1  2  1  0  0  0  0
  2 11  1  1  0  0  0
  3  4  1  6  0  0  0
  3  2  1  0  0  0  0
  5  4  1  0  0  0  0
  6  4  1  0  0  0  0
  7  8  1  6  0  0  0
  7  4  1  0  0  0  0
  7  1  1  0  0  0  0
  9  8  2  0  0  0  0
 10  8  1  0  0  0  0
 11 12  2  0  0  0  0
 11 13  1  0  0  0  0
 13 14  1  0  0  0  0
 15 16  1  1  0  0  0
 15  3  1  0  0  0  0
 15 21  1  0  0  0  0
 16 17  1  0  0  0  0
 18 16  1  0  0  0  0
 19 18  2  0  0  0  0
 20 18  1  0  0  0  0
 22 23  1  0  0  0  0
 22 21  1  0  0  0  0
 24 22  1  0  0  0  0
M  END
>  <MODEL>
1

>  <REMARK>
 VINA RESULT:      -5.8      0.000      0.000
  Name = BDB5195
                            x       y       z     vdW  Elec       q    Type
                         _______ _______ _______ _____ _____    ______ ____

>  <TORSDO>
F 7

>  <vina_score>
-5.8

$$$$
BDB5233
 OpenBabel01041719373D

 24 24  0  0  1  0  0  0  0  0999 V2000
  -31.3410   12.8110  -18.2840 C   0  0  0  0  0  0  0  0  0  0  0  0
  -32.6650   12.6520  -18.0490 C   0  0  0  0  0  0  0  0  0  0  0  0
  -33.7630   12.8270  -19.1380 C   0  0  0  0  0  0  0  0  0  0  0  0
  -33.2190   12.5920  -20.5450 C   0  0  1  0  0  0  0  0  0  0  0  0
  -31.9040   13.4530  -20.6820 C   0  0  2  0  0  0  0  0  0  0  0  0
  -30.7590   13.1190  -19.6430 C   0  0  2  0  0  0  0  0  0  0  0  0
  -32.3800   14.9090  -20.6950 N   0  0  0  0  0  0  0  0  0  0  0  0
  -33.2990   15.0230  -21.0330 H   0  0  0  0  0  0  0  0  0  0  0  0
  -31.7320   16.1710  -20.3000 C   0  0  0  0  0  0  0  0  0  0  0  0
  -32.4490   17.1780  -20.3050 O   0  0  0  0  0  0  0  0  0  0  0  0
  -30.2900   16.3850  -19.9410 C   0  0  0  0  0  0  0  0  0  0  0  0
  -33.1500   11.1460  -20.7410 N   0  0  0  0  0  0  0  0  0  0  0  0
  -32.8440   10.9460  -21.6930 H   0  0  0  0  0  0  0  0  0  0  0  0
  -32.4860   10.7440  -20.0790 H   0  0  0  0  0  0  0  0  0  0  0  0
  -34.0730   10.7380  -20.5870 H   0  0  0  0  0  0  0  0  0  0  0  0
  -33.0670   12.4140  -16.6700 C   0  0  0  0  0  0  0  0  0  0  0  0
  -33.4390   11.1680  -16.2810 O   0  0  0  0  0  0  0  0  0  0  0  0
  -33.1130   13.3510  -15.8700 O   0  0  0  0  0  0  0  0  0  0  0  0
  -29.7920   11.9950  -20.0260 N   0  0  0  0  0  0  0  0  0  0  0  0
  -29.2330   11.8080  -19.1930 H   0  0  0  0  0  0  0  0  0  0  0  0
  -30.3460   11.1960  -20.3350 H   0  0  0  0  0  0  0  0  0  0  0  0
  -28.8540   12.3160  -21.0680 C   0  0  0  0  0  0  0  0  0  0  0  0
  -27.8050   13.3350  -20.6390 C   0  0  0  0  0  0  0  0  0  0  0  0
  -27.5120   14.2460  -21.8510 C   0  0  0  0  0  0  0  0  0  0  0  0
  1  2  2  0  0  0  0
  2 16  1  0  0  0  0
  3  2  1  0  0  0  0
  4 12  1  1  0  0  0
  4  3  1  0  0  0  0
  5  7  1  1  0  0  0
  5  4  1  0  0  0  0
  5  6  1  0  0  0  0
  6 19  1  6  0  0  0
  6  1  1  0  0  0  0
  7  9  1  0  0  0  0
  8  7  1  0  0  0  0
  9 11  1  0  0  0  0
 10  9  2  0  0  0  0
 12 15  1  0  0  0  0
 12 14  1  0  0  0  0
 13 12  1  0  0  0  0
 16 17  2  0  0  0  0
 16 18  1  0  0  0  0
 19 20  1  0  0  0  0
 21 19  1  0  0  0  0
 22 23  1  0  0  0  0
 22 19  1  0  0  0  0
 24 23  1  0  0  0  0
M  END
>  <MODEL>
1

>  <REMARK>
 VINA RESULT:      -5.8      0.000      0.000
  Name = BDB5233
                            x       y       z     vdW  Elec       q    Type
                         _______ _______ _______ _____ _____    ______ ____

>  <TORSDO>
F 6

>  <vina_score>
-5.8

$$$$
BDB5242
 OpenBabel01041719373D

 22 22  0  0  1  0  0  0  0  0999 V2000
  -31.3550   13.0200  -17.5520 C   0  0  0  0  0  0  0  0  0  0  0  0
  -32.6530   12.6560  -17.6760 C   0  0  0  0  0  0  0  0  0  0  0  0
  -33.4130   12.6400  -19.0270 C   0  0  0  0  0  0  0  0  0  0  0  0
  -32.4670   12.4910  -20.2250 C   0  0  1  0  0  0  0  0  0  0  0  0
  -31.3370   13.5600  -20.0500 C   0  0  2  0  0  0  0  0  0  0  0  0
  -30.4880   13.4020  -18.7260 C   0  0  2  0  0  0  0  0  0  0  0  0
  -32.0210   14.9060  -20.2640 N   0  0  0  0  0  0  0  0  0  0  0  0
  -32.9720   14.8360  -20.5050 H   0  0  0  0  0  0  0  0  0  0  0  0
  -31.5290   16.2860  -20.1790 C   0  0  0  0  0  0  0  0  0  0  0  0
  -32.3700   17.1780  -20.3410 O   0  0  0  0  0  0  0  0  0  0  0  0
  -30.1160   16.7390  -19.9520 C   0  0  0  0  0  0  0  0  0  0  0  0
  -32.0740   11.0930  -20.3090 N   0  0  0  0  0  0  0  0  0  0  0  0
  -32.2680   10.7410  -21.2460 H   0  0  0  0  0  0  0  0  0  0  0  0
  -31.0760   11.0090  -20.1140 H   0  0  0  0  0  0  0  0  0  0  0  0
  -32.6010   10.5500  -19.6250 H   0  0  0  0  0  0  0  0  0  0  0  0
  -33.3800   12.3620  -16.4480 C   0  0  0  0  0  0  0  0  0  0  0  0
  -33.8760   13.3810  -15.6990 O   0  0  0  0  0  0  0  0  0  0  0  0
  -33.5110   11.1970  -16.0720 O   0  0  0  0  0  0  0  0  0  0  0  0
  -29.2770   12.3760  -18.8220 C   0  0  0  0  0  0  0  0  0  0  0  0
  -27.8980   12.9330  -18.4780 C   0  0  0  0  0  0  0  0  0  0  0  0
  -27.7080   14.3350  -19.0640 C   0  0  0  0  0  0  0  0  0  0  0  0
  -27.1890   14.1940  -20.5090 C   0  0  0  0  0  0  0  0  0  0  0  0
  2  1  2  0  0  0  0
  2 16  1  0  0  0  0
  3  2  1  0  0  0  0
  4 12  1  1  0  0  0
  4  5  1  0  0  0  0
  4  3  1  0  0  0  0
  5  7  1  1  0  0  0
  5  6  1  0  0  0  0
  6 19  1  6  0  0  0
  6  1  1  0  0  0  0
  7  9  1  0  0  0  0
  8  7  1  0  0  0  0
  9 11  1  0  0  0  0
 10  9  2  0  0  0  0
 12 14  1  0  0  0  0
 12 15  1  0  0  0  0
 13 12  1  0  0  0  0
 16 18  2  0  0  0  0
 16 17  1  0  0  0  0
 19 20  1  0  0  0  0
 21 20  1  0  0  0  0
 22 21  1  0  0  0  0
M  END
>  <MODEL>
1

>  <REMARK>
 VINA RESULT:      -5.8      0.000      0.000
  Name = BDB5242
                            x       y       z     vdW  Elec       q    Type
                         _______ _______ _______ _____ _____    ______ ____

>  <TORSDO>
F 6

>  <vina_score>
-5.8

$$$$
BDB4977
 OpenBabel01041719383D

 27 28  0  0  1  0  0  0  0  0999 V2000
  -30.6280   13.0300  -18.8950 C   0  0  1  0  0  0  0  0  0  0  0  0
  -32.0660   13.6650  -18.6990 C   0  0  1  0  0  0  0  0  0  0  0  0
  -32.5470   14.2570  -20.0280 C   0  0  2  0  0  0  0  0  0  0  0  0
  -32.3560   13.2330  -21.1180 C   0  0  0  0  0  0  0  0  0  0  0  0
  -31.4560   12.2300  -21.0170 C   0  0  0  0  0  0  0  0  0  0  0  0
  -30.6200   12.0190  -19.8870 O   0  0  0  0  0  0  0  0  0  0  0  0
  -29.5380   14.1160  -19.1730 C   0  0  0  0  0  0  0  0  0  0  0  0
  -28.2280   13.9590  -19.8620 N   0  0  0  0  0  0  0  0  0  0  0  0
  -27.2750   15.0310  -19.8010 C   0  0  1  0  0  0  0  0  0  0  0  0
  -26.6560   15.0400  -18.3890 C   0  0  0  0  0  0  0  0  0  0  0  0
  -26.2010   14.5840  -20.8070 C   0  0  0  0  0  0  0  0  0  0  0  0
  -26.1340   13.1030  -20.4340 C   0  0  0  0  0  0  0  0  0  0  0  0
  -27.6350   12.7800  -20.5340 C   0  0  2  0  0  0  0  0  0  0  0  0
  -27.9280   12.7660  -22.0590 C   0  0  0  0  0  0  0  0  0  0  0  0
  -29.7660   15.2310  -18.6940 O   0  0  0  0  0  0  0  0  0  0  0  0
  -33.1640   12.7990  -18.0890 N   0  0  0  0  0  0  0  0  0  0  0  0
  -34.0700   13.1630  -18.2190 H   0  0  0  0  0  0  0  0  0  0  0  0
  -33.1430   11.5410  -17.3520 C   0  0  0  0  0  0  0  0  0  0  0  0
  -34.2390   11.0030  -17.1580 O   0  0  0  0  0  0  0  0  0  0  0  0
  -31.9620   10.8700  -16.7450 C   0  0  0  0  0  0  0  0  0  0  0  0
  -31.8420   15.5150  -20.3660 N   0  0  0  0  0  0  0  0  0  0  0  0
  -32.4090   16.0600  -21.0150 H   0  0  0  0  0  0  0  0  0  0  0  0
  -31.6840   16.0550  -19.5160 H   0  0  0  0  0  0  0  0  0  0  0  0
  -30.9460   15.2950  -20.8010 H   0  0  0  0  0  0  0  0  0  0  0  0
  -31.3450   11.2440  -22.0880 C   0  0  0  0  0  0  0  0  0  0  0  0
  -30.1390   10.8100  -22.5060 O   0  0  0  0  0  0  0  0  0  0  0  0
  -32.3800   10.8030  -22.6120 O   0  0  0  0  0  0  0  0  0  0  0  0
  1  7  1  6  0  0  0
  1  2  1  0  0  0  0
  2 16  1  6  0  0  0
  3 21  1  6  0  0  0
  3  2  1  0  0  0  0
  4  5  2  0  0  0  0
  4  3  1  0  0  0  0
  5  6  1  0  0  0  0
  6  1  1  0  0  0  0
  7 15  2  0  0  0  0
  8  9  1  0  0  0  0
  8  7  1  0  0  0  0
  9 10  1  1  0  0  0
 11 12  1  0  0  0  0
 11  9  1  0  0  0  0
 13 14  1  6  0  0  0
 13 12  1  0  0  0  0
 13  8  1  0  0  0  0
 16 18  1  0  0  0  0
 17 16  1  0  0  0  0
 18 19  2  0  0  0  0
 18 20  1  0  0  0  0
 21 23  1  0  0  0  0
 22 21  1  0  0  0  0
 24 21  1  0  0  0  0
 25  5  1  0  0  0  0
 26 25  1  0  0  0  0
 27 25  2  0  0  0  0
M  END
>  <MODEL>
1

>  <REMARK>
 VINA RESULT:      -5.7      0.000      0.000
  Name = BDB4977
                            x       y       z     vdW  Elec       q    Type
                         _______ _______ _______ _____ _____    ______ ____

>  <TORSDO>
F 4

>  <vina_score>
-5.7

$$$$
BDB4983
 OpenBabel01041719363D

 22 22  0  0  1  0  0  0  0  0999 V2000
  -31.3910   12.9910  -17.4340 C   0  0  0  0  0  0  0  0  0  0  0  0
  -32.6970   12.6380  -17.5280 C   0  0  0  0  0  0  0  0  0  0  0  0
  -33.4650   12.6070  -18.8640 C   0  0  0  0  0  0  0  0  0  0  0  0
  -32.5300   12.4750  -20.0740 C   0  0  1  0  0  0  0  0  0  0  0  0
  -31.4130   13.5600  -19.9290 C   0  0  2  0  0  0  0  0  0  0  0  0
  -30.5480   13.3510  -18.6340 C   0  0  2  0  0  0  0  0  0  0  0  0
  -32.0830   14.9080  -20.1300 N   0  0  0  0  0  0  0  0  0  0  0  0
  -33.0510   14.8500  -20.2960 H   0  0  0  0  0  0  0  0  0  0  0  0
  -31.5630   16.2740  -20.1280 C   0  0  0  0  0  0  0  0  0  0  0  0
  -32.4000   17.1770  -20.2410 O   0  0  0  0  0  0  0  0  0  0  0  0
  -30.1280   16.6990  -20.0420 C   0  0  0  0  0  0  0  0  0  0  0  0
  -32.0770   11.0890  -20.1430 N   0  0  0  0  0  0  0  0  0  0  0  0
  -32.5050   10.5540  -19.3870 H   0  0  0  0  0  0  0  0  0  0  0  0
  -32.3490   10.6870  -21.0400 H   0  0  0  0  0  0  0  0  0  0  0  0
  -31.0620   11.0580  -20.0500 H   0  0  0  0  0  0  0  0  0  0  0  0
  -33.4070   12.3800  -16.2800 C   0  0  0  0  0  0  0  0  0  0  0  0
  -33.7690   11.1060  -15.9690 O   0  0  0  0  0  0  0  0  0  0  0  0
  -33.7200   13.3090  -15.5400 O   0  0  0  0  0  0  0  0  0  0  0  0
  -29.5310   12.3200  -18.8670 O   0  0  0  0  0  0  0  0  0  0  0  0
  -28.6670   12.5260  -19.9890 C   0  0  0  0  0  0  0  0  0  0  0  0
  -27.4940   13.4010  -19.4820 C   0  0  0  0  0  0  0  0  0  0  0  0
  -26.6370   13.8820  -20.6630 C   0  0  0  0  0  0  0  0  0  0  0  0
  2  1  2  0  0  0  0
  2 16  1  0  0  0  0
  3  2  1  0  0  0  0
  4 12  1  1  0  0  0
  4  5  1  0  0  0  0
  4  3  1  0  0  0  0
  5  7  1  1  0  0  0
  5  6  1  0  0  0  0
  6 19  1  6  0  0  0
  6  1  1  0  0  0  0
  7  9  1  0  0  0  0
  8  7  1  0  0  0  0
  9 11  1  0  0  0  0
 10  9  2  0  0  0  0
 12 15  1  0  0  0  0
 12 13  1  0  0  0  0
 14 12  1  0  0  0  0
 16 17  2  0  0  0  0
 16 18  1  0  0  0  0
 20 21  1  0  0  0  0
 20 19  1  0  0  0  0
 22 21  1  0  0  0  0
M  END
>  <MODEL>
1

>  <REMARK>
 VINA RESULT:      -5.7      0.000      0.000
  Name = BDB4983
                            x       y       z     vdW  Elec       q    Type
                         _______ _______ _______ _____ _____    ______ ____

>  <TORSDO>
F 6

>  <vina_score>
-5.7

$$$$
BDB5204
 OpenBabel01041719343D

 23 23  0  0  1  0  0  0  0  0999 V2000
  -29.1760   14.9210  -19.3460 C   0  0  0  0  0  0  0  0  0  0  0  0
  -28.9200   13.4470  -19.1610 C   0  0  2  0  0  0  0  0  0  0  0  0
  -30.2430   13.0710  -18.5080 C   0  0  1  0  0  0  0  0  0  0  0  0
  -31.2720   13.7070  -19.3730 N   0  0  0  0  0  0  0  0  0  0  0  0
  -32.0740   14.0480  -18.8430 H   0  0  0  0  0  0  0  0  0  0  0  0
  -31.6420   13.0370  -20.0470 H   0  0  0  0  0  0  0  0  0  0  0  0
  -30.5310   14.8090  -20.0700 C   0  0  1  0  0  0  0  0  0  0  0  0
  -27.7500   13.1690  -18.2600 C   0  0  0  0  0  0  0  0  0  0  0  0
  -26.5360   13.0090  -18.7800 C   0  0  0  0  0  0  0  0  0  0  0  0
  -26.3350   13.1080  -20.2630 C   0  0  0  0  0  0  0  0  0  0  0  0
  -31.2830   16.1090  -20.0710 C   0  0  0  0  0  0  0  0  0  0  0  0
  -32.6370   16.1090  -20.1620 O   0  0  0  0  0  0  0  0  0  0  0  0
  -30.6660   17.1780  -19.9950 O   0  0  0  0  0  0  0  0  0  0  0  0
  -31.2600   11.9330  -18.9660 C   0  0  1  0  0  0  0  0  0  0  0  0
  -30.5450   11.2470  -20.1210 N   0  0  0  0  0  0  0  0  0  0  0  0
  -29.9320   10.5900  -19.7160 H   0  0  0  0  0  0  0  0  0  0  0  0
  -30.3770   11.1380  -21.5160 C   0  0  0  0  0  0  0  0  0  0  0  0
  -29.2530   11.2690  -22.0050 O   0  0  0  0  0  0  0  0  0  0  0  0
  -31.5520   10.8540  -22.4170 C   0  0  0  0  0  0  0  0  0  0  0  0
  -31.2480   10.8030  -17.7510 C   0  0  0  0  0  0  0  0  0  0  0  0
  -32.7020   11.3640  -17.7440 C   0  0  0  0  0  0  0  0  0  0  0  0
  -33.5280   10.8350  -18.9360 C   0  0  0  0  0  0  0  0  0  0  0  0
  -33.3930   10.9230  -16.4420 C   0  0  0  0  0  0  0  0  0  0  0  0
  1  2  1  0  0  0  0
  2  3  1  0  0  0  0
  2  8  1  1  0  0  0
  3  4  1  6  0  0  0
  4  5  1  0  0  0  0
  6  4  1  0  0  0  0
  7 11  1  1  0  0  0
  7  4  1  0  0  0  0
  7  1  1  0  0  0  0
  9  8  2  0  0  0  0
 10  9  1  0  0  0  0
 11 13  1  0  0  0  0
 12 11  2  0  0  0  0
 14 15  1  6  0  0  0
 14  3  1  0  0  0  0
 14 20  1  0  0  0  0
 15 16  1  0  0  0  0
 17 15  1  0  0  0  0
 18 17  2  0  0  0  0
 19 17  1  0  0  0  0
 20 21  1  0  0  0  0
 21 23  1  0  0  0  0
 22 21  1  0  0  0  0
M  END
>  <MODEL>
1

>  <REMARK>
 VINA RESULT:      -5.6      0.000      0.000
  Name = BDB5204
                            x       y       z     vdW  Elec       q    Type
                         _______ _______ _______ _____ _____    ______ ____

>  <TORSDO>
F 6

>  <vina_score>
-5.6

$$$$
BDB4997
 OpenBabel01041719363D

 29 29  0  0  1  0  0  0  0  0999 V2000
  -31.7530   12.5880  -18.3010 C   0  0  0  0  0  0  0  0  0  0  0  0
  -33.0450   12.5840  -17.9130 C   0  0  0  0  0  0  0  0  0  0  0  0
  -34.2300   12.9040  -18.8610 C   0  0  0  0  0  0  0  0  0  0  0  0
  -33.8910   12.6920  -20.3390 C   0  0  1  0  0  0  0  0  0  0  0  0
  -32.4990   13.3550  -20.6300 C   0  0  2  0  0  0  0  0  0  0  0  0
  -31.2970   12.8130  -19.7170 C   0  0  2  0  0  0  0  0  0  0  0  0
  -32.7400   14.8700  -20.5870 N   0  0  0  0  0  0  0  0  0  0  0  0
  -33.6410   15.1360  -20.8840 H   0  0  0  0  0  0  0  0  0  0  0  0
  -31.8890   16.0020  -20.1910 C   0  0  0  0  0  0  0  0  0  0  0  0
  -32.4590   17.0900  -20.0450 O   0  0  0  0  0  0  0  0  0  0  0  0
  -30.3980   16.0060  -20.0270 C   0  0  0  0  0  0  0  0  0  0  0  0
  -33.9970   11.2980  -20.6060 N   0  0  0  0  0  0  0  0  0  0  0  0
  -33.4740   10.7760  -19.9040 H   0  0  0  0  0  0  0  0  0  0  0  0
  -34.9780   11.0200  -20.5770 H   0  0  0  0  0  0  0  0  0  0  0  0
  -33.6150   11.0990  -21.5320 H   0  0  0  0  0  0  0  0  0  0  0  0
  -33.3030   12.3700  -16.4960 C   0  0  0  0  0  0  0  0  0  0  0  0
  -34.1290   13.2100  -15.8240 O   0  0  0  0  0  0  0  0  0  0  0  0
  -32.7490   11.4410  -15.9030 O   0  0  0  0  0  0  0  0  0  0  0  0
  -30.5060   11.5740  -20.1330 O   0  0  0  0  0  0  0  0  0  0  0  0
  -29.3500   11.6790  -21.0070 C   0  0  1  0  0  0  0  0  0  0  0  0
  -29.6110   10.9570  -22.3610 C   0  0  0  0  0  0  0  0  0  0  0  0
  -31.1230   10.8030  -22.6120 C   0  0  0  0  0  0  0  0  0  0  0  0
  -29.0250   13.1390  -21.3650 C   0  0  0  0  0  0  0  0  0  0  0  0
  -27.5290   13.1140  -21.7600 C   0  0  0  0  0  0  0  0  0  0  0  0
  -26.6720   14.1310  -21.0010 C   0  0  0  0  0  0  0  0  0  0  0  0
  -25.7810   13.3120  -20.0440 C   0  0  0  0  0  0  0  0  0  0  0  0
  -26.4330   13.1570  -18.6630 C   0  0  0  0  0  0  0  0  0  0  0  0
  -27.2840   14.4120  -18.3830 C   0  0  0  0  0  0  0  0  0  0  0  0
  -28.4790   14.0430  -17.4870 C   0  0  0  0  0  0  0  0  0  0  0  0
  1  2  2  0  0  0  0
  2 16  1  0  0  0  0
  3  2  1  0  0  0  0
  4 12  1  1  0  0  0
  4  3  1  0  0  0  0
  5  7  1  1  0  0  0
  5  4  1  0  0  0  0
  5  6  1  0  0  0  0
  6 19  1  6  0  0  0
  6  1  1  0  0  0  0
  7  9  1  0  0  0  0
  8  7  1  0  0  0  0
  9 10  2  0  0  0  0
  9 11  1  0  0  0  0
 12 14  1  0  0  0  0
 12 13  1  0  0  0  0
 15 12  1  0  0  0  0
 16 18  2  0  0  0  0
 16 17  1  0  0  0  0
 20 21  1  6  0  0  0
 20 19  1  0  0  0  0
 22 21  1  0  0  0  0
 23 20  1  0  0  0  0
 24 23  1  0  0  0  0
 24 25  1  0  0  0  0
 25 26  1  0  0  0  0
 26 27  1  0  0  0  0
 27 28  1  0  0  0  0
 28 29  1  0  0  0  0
M  END
>  <MODEL>
1

>  <REMARK>
 VINA RESULT:      -5.6      0.000      0.000
  Name = BDB4997
                            x       y       z     vdW  Elec       q    Type
                         _______ _______ _______ _____ _____    ______ ____

>  <TORSDO>
F 12

>  <vina_score>
-5.6

$$$$
BDB5200
 OpenBabel01041719343D

 26 27  0  0  1  0  0  0  0  0999 V2000
  -33.9930   11.9620  -19.0080 C   0  0  0  0  0  0  0  0  0  0  0  0
  -33.3060   12.8380  -17.9930 C   0  0  2  0  0  0  0  0  0  0  0  0
  -31.8710   12.3990  -18.2530 C   0  0  1  0  0  0  0  0  0  0  0  0
  -31.7340   12.4560  -19.7330 N   0  0  0  0  0  0  0  0  0  0  0  0
  -31.1360   11.7170  -20.1000 H   0  0  0  0  0  0  0  0  0  0  0  0
  -31.3080   13.3350  -20.0230 H   0  0  0  0  0  0  0  0  0  0  0  0
  -33.1460   12.3570  -20.2320 C   0  0  1  0  0  0  0  0  0  0  0  0
  -33.7370   12.5360  -16.5800 C   0  0  0  0  0  0  0  0  0  0  0  0
  -34.1810   13.4300  -15.7220 N   0  0  0  0  0  0  0  0  0  0  0  0
  -34.4530   12.8310  -14.6330 N   0  0  0  0  0  0  0  0  0  0  0  0
  -34.8040   13.2730  -13.8260 H   0  0  0  0  0  0  0  0  0  0  0  0
  -34.2000   11.5270  -14.7340 C   0  0  0  0  0  0  0  0  0  0  0  0
  -33.7210   11.2880  -16.0130 C   0  0  0  0  0  0  0  0  0  0  0  0
  -33.2970   11.3840  -21.3660 C   0  0  0  0  0  0  0  0  0  0  0  0
  -32.2510   11.1400  -22.1960 O   0  0  0  0  0  0  0  0  0  0  0  0
  -34.3770   10.8100  -21.5450 O   0  0  0  0  0  0  0  0  0  0  0  0
  -30.6200   13.3280  -18.5890 C   0  0  1  0  0  0  0  0  0  0  0  0
  -31.2460   14.6650  -18.9580 N   0  0  0  0  0  0  0  0  0  0  0  0
  -31.9180   14.8580  -18.2650 H   0  0  0  0  0  0  0  0  0  0  0  0
  -31.2840   15.7490  -19.8590 C   0  0  0  0  0  0  0  0  0  0  0  0
  -32.3520   16.0580  -20.3930 O   0  0  0  0  0  0  0  0  0  0  0  0
  -30.0400   16.5410  -20.1680 C   0  0  0  0  0  0  0  0  0  0  0  0
  -29.8730   13.6170  -17.1350 C   0  0  0  0  0  0  0  0  0  0  0  0
  -28.7940   13.9710  -18.2030 C   0  0  0  0  0  0  0  0  0  0  0  0
  -27.8340   15.0730  -17.7070 C   0  0  0  0  0  0  0  0  0  0  0  0
  -27.9680   12.7090  -18.5050 C   0  0  0  0  0  0  0  0  0  0  0  0
  1  2  1  0  0  0  0
  2  8  1  1  0  0  0
  3  4  1  6  0  0  0
  3  2  1  0  0  0  0
  5  4  1  0  0  0  0
  6  4  1  0  0  0  0
  7 14  1  6  0  0  0
  7  4  1  0  0  0  0
  7  1  1  0  0  0  0
  8 13  1  0  0  0  0
  8  9  2  0  0  0  0
  9 10  1  0  0  0  0
 10 11  1  0  0  0  0
 12 10  1  0  0  0  0
 13 12  2  0  0  0  0
 15 14  2  0  0  0  0
 16 14  1  0  0  0  0
 17 18  1  1  0  0  0
 17  3  1  0  0  0  0
 17 23  1  0  0  0  0
 18 19  1  0  0  0  0
 20 18  1  0  0  0  0
 21 20  2  0  0  0  0
 22 20  1  0  0  0  0
 24 25  1  0  0  0  0
 24 23  1  0  0  0  0
 26 24  1  0  0  0  0
M  END
>  <MODEL>
1

>  <REMARK>
 VINA RESULT:      -5.4      0.000      0.000
  Name = BDB5200
                            x       y       z     vdW  Elec       q    Type
                         _______ _______ _______ _____ _____    ______ ____

>  <TORSDO>
F 6

>  <vina_score>
-5.4

$$$$
BDB5244
 OpenBabel01041719383D

 30 30  0  0  1  0  0  0  0  0999 V2000
  -29.3210   12.5670  -18.7870 C   0  0  2  0  0  0  0  0  0  0  0  0
  -29.0630   13.1220  -20.1740 C   0  0  2  0  0  0  0  0  0  0  0  0
  -29.7570   12.2150  -21.1810 C   0  0  0  0  0  0  0  0  0  0  0  0
  -31.2020   12.0720  -20.7910 C   0  0  0  0  0  0  0  0  0  0  0  0
  -31.5850   12.2300  -19.5830 N   0  0  0  0  0  0  0  0  0  0  0  0
  -30.7370   12.5120  -18.5720 N   0  0  0  0  0  0  0  0  0  0  0  0
  -31.2450   12.7080  -17.2830 C   0  0  0  0  0  0  0  0  0  0  0  0
  -30.4690   12.9090  -16.3410 O   0  0  0  0  0  0  0  0  0  0  0  0
  -28.6960   13.4200  -17.7780 N   0  0  0  0  0  0  0  0  0  0  0  0
  -28.2220   12.9770  -17.0370 H   0  0  0  0  0  0  0  0  0  0  0  0
  -28.7210   14.8460  -17.7890 C   0  0  0  0  0  0  0  0  0  0  0  0
  -28.1810   15.4570  -16.8600 O   0  0  0  0  0  0  0  0  0  0  0  0
  -29.3720   15.6420  -18.8980 C   0  0  0  0  0  0  0  0  0  0  0  0
  -32.1880   11.7320  -21.8160 C   0  0  0  0  0  0  0  0  0  0  0  0
  -33.3530   12.4270  -21.8930 O   0  0  0  0  0  0  0  0  0  0  0  0
  -31.9610   10.8150  -22.6130 O   0  0  0  0  0  0  0  0  0  0  0  0
  -27.6400   13.1670  -20.4420 N   0  0  0  0  0  0  0  0  0  0  0  0
  -27.0800   12.4120  -20.1490 H   0  0  0  0  0  0  0  0  0  0  0  0
  -27.0210   14.2510  -21.1080 C   0  0  0  0  0  0  0  0  0  0  0  0
  -27.5150   14.6720  -22.2000 N   0  0  0  0  0  0  0  0  0  0  0  0
  -27.0930   15.4260  -22.6730 H   0  0  0  0  0  0  0  0  0  0  0  0
  -28.3200   14.2450  -22.5740 H   0  0  0  0  0  0  0  0  0  0  0  0
  -25.8770   14.8700  -20.5890 N   0  0  0  0  0  0  0  0  0  0  0  0
  -25.1940   14.3330  -20.1240 H   0  0  0  0  0  0  0  0  0  0  0  0
  -25.7550   15.8410  -20.6890 H   0  0  0  0  0  0  0  0  0  0  0  0
  -32.7280   12.6670  -17.0330 C   0  0  0  0  0  0  0  0  0  0  0  0
  -33.0440   13.3450  -15.6800 C   0  0  0  0  0  0  0  0  0  0  0  0
  -34.2110   12.6140  -14.9820 C   0  0  0  0  0  0  0  0  0  0  0  0
  -33.2050   11.2000  -17.0160 C   0  0  0  0  0  0  0  0  0  0  0  0
  -33.7290   10.8030  -18.4120 C   0  0  0  0  0  0  0  0  0  0  0  0
  1  6  1  0  0  0  0
  1  9  1  1  0  0  0
  2 17  1  6  0  0  0
  2  1  1  0  0  0  0
  3  4  1  0  0  0  0
  3  2  1  0  0  0  0
  4  5  2  0  0  0  0
  5  6  1  0  0  0  0
  6  7  1  0  0  0  0
  7 26  1  0  0  0  0
  7  8  2  0  0  0  0
  9 10  1  0  0  0  0
 11  9  1  0  0  0  0
 11 12  2  0  0  0  0
 13 11  1  0  0  0  0
 14  4  1  0  0  0  0
 15 14  1  0  0  0  0
 16 14  2  0  0  0  0
 17 18  1  0  0  0  0
 19 23  1  0  0  0  0
 19 17  1  0  0  0  0
 20 19  2  0  0  0  0
 21 20  1  0  0  0  0
 22 20  1  0  0  0  0
 23 24  1  0  0  0  0
 25 23  1  0  0  0  0
 26 29  1  0  0  0  0
 26 27  1  0  0  0  0
 27 28  1  0  0  0  0
 30 29  1  0  0  0  0
M  END
>  <MODEL>
1

>  <REMARK>
 VINA RESULT:      -5.4      0.000      0.000
  Name = BDB5244
                            x       y       z     vdW  Elec       q    Type
                         _______ _______ _______ _____ _____    ______ ____

>  <TORSDO>
F 8

>  <vina_score>
-5.4

$$$$
BDB4995
 OpenBabel01041719353D

 25 25  0  0  1  0  0  0  0  0999 V2000
  -30.3340   13.6950  -19.9900 C   0  0  0  0  0  0  0  0  0  0  0  0
  -31.3250   14.4630  -19.4900 C   0  0  0  0  0  0  0  0  0  0  0  0
  -32.4130   13.9360  -18.5150 C   0  0  0  0  0  0  0  0  0  0  0  0
  -31.9910   12.6660  -17.7700 C   0  0  1  0  0  0  0  0  0  0  0  0
  -31.3560   11.6730  -18.7980 C   0  0  2  0  0  0  0  0  0  0  0  0
  -30.1050   12.2640  -19.6020 C   0  0  2  0  0  0  0  0  0  0  0  0
  -32.5120   11.1410  -19.6560 N   0  0  0  0  0  0  0  0  0  0  0  0
  -33.2640   10.7830  -19.1290 H   0  0  0  0  0  0  0  0  0  0  0  0
  -32.7190   11.0600  -21.1090 C   0  0  0  0  0  0  0  0  0  0  0  0
  -33.8690   10.8030  -21.4850 O   0  0  0  0  0  0  0  0  0  0  0  0
  -31.6770   11.1660  -22.1840 C   0  0  0  0  0  0  0  0  0  0  0  0
  -31.1570   13.0600  -16.6870 N   0  0  0  0  0  0  0  0  0  0  0  0
  -31.2960   14.0530  -16.4960 H   0  0  0  0  0  0  0  0  0  0  0  0
  -31.3960   12.5180  -15.8580 H   0  0  0  0  0  0  0  0  0  0  0  0
  -30.1810   12.8950  -16.9320 H   0  0  0  0  0  0  0  0  0  0  0  0
  -31.4160   15.8260  -19.9940 C   0  0  0  0  0  0  0  0  0  0  0  0
  -32.6210   16.3370  -20.3480 O   0  0  0  0  0  0  0  0  0  0  0  0
  -30.3930   16.5030  -20.1240 O   0  0  0  0  0  0  0  0  0  0  0  0
  -28.7070   12.1770  -19.0010 O   0  0  0  0  0  0  0  0  0  0  0  0
  -27.8400   13.3450  -18.9000 C   0  0  1  0  0  0  0  0  0  0  0  0
  -27.7850   13.8740  -17.4400 C   0  0  0  0  0  0  0  0  0  0  0  0
  -28.3480   15.3040  -17.3630 C   0  0  0  0  0  0  0  0  0  0  0  0
  -26.3980   12.9820  -19.2850 C   0  0  0  0  0  0  0  0  0  0  0  0
  -26.1870   13.4280  -20.7130 C   0  0  0  0  0  0  0  0  0  0  0  0
  -27.0940   14.1760  -21.3340 C   0  0  0  0  0  0  0  0  0  0  0  0
  1  6  1  0  0  0  0
  1  2  2  0  0  0  0
  2  3  1  0  0  0  0
  3  4  1  0  0  0  0
  4 12  1  1  0  0  0
  5  7  1  6  0  0  0
  5  4  1  0  0  0  0
  6 19  1  1  0  0  0
  6  5  1  0  0  0  0
  7  8  1  0  0  0  0
  9  7  1  0  0  0  0
 10  9  2  0  0  0  0
 11  9  1  0  0  0  0
 12 13  1  0  0  0  0
 12 14  1  0  0  0  0
 15 12  1  0  0  0  0
 16  2  1  0  0  0  0
 17 16  2  0  0  0  0
 18 16  1  0  0  0  0
 19 20  1  0  0  0  0
 20 23  1  1  0  0  0
 20 21  1  0  0  0  0
 21 22  1  0  0  0  0
 24 23  1  0  0  0  0
 25 24  2  0  0  0  0
M  END
>  <MODEL>
1

>  <REMARK>
 VINA RESULT:      -5.3      0.000      0.000
  Name = BDB4995
                            x       y       z     vdW  Elec       q    Type
                         _______ _______ _______ _____ _____    ______ ____

>  <TORSDO>
F 8

>  <vina_score>
-5.3

$$$$
BDB5228
 OpenBabel01041719383D

 29 30  0  0  1  0  0  0  0  0999 V2000
  -31.0700   12.8240  -19.0700 C   0  0  0  0  0  0  0  0  0  0  0  0
  -32.2490   12.5090  -18.4910 C   0  0  0  0  0  0  0  0  0  0  0  0
  -33.6340   12.5810  -19.2200 C   0  0  0  0  0  0  0  0  0  0  0  0
  -33.4990   12.5940  -20.7360 C   0  0  1  0  0  0  0  0  0  0  0  0
  -32.3660   13.5820  -21.1180 C   0  0  2  0  0  0  0  0  0  0  0  0
  -30.9330   13.1970  -20.5140 C   0  0  2  0  0  0  0  0  0  0  0  0
  -32.8560   15.0160  -20.8210 N   0  0  0  0  0  0  0  0  0  0  0  0
  -33.8020   15.1600  -21.0510 H   0  0  0  0  0  0  0  0  0  0  0  0
  -32.1990   16.2250  -20.2590 C   0  0  0  0  0  0  0  0  0  0  0  0
  -32.9440   17.1780  -20.0060 O   0  0  0  0  0  0  0  0  0  0  0  0
  -30.7370   16.4630  -20.0210 C   0  0  0  0  0  0  0  0  0  0  0  0
  -33.2820   11.2550  -21.1350 N   0  0  0  0  0  0  0  0  0  0  0  0
  -33.8280   11.0570  -21.9730 H   0  0  0  0  0  0  0  0  0  0  0  0
  -32.2920   11.1150  -21.3320 H   0  0  0  0  0  0  0  0  0  0  0  0
  -33.5710   10.6260  -20.3850 H   0  0  0  0  0  0  0  0  0  0  0  0
  -32.2340   12.2240  -17.0690 C   0  0  0  0  0  0  0  0  0  0  0  0
  -32.8560   13.0610  -16.2050 O   0  0  0  0  0  0  0  0  0  0  0  0
  -31.5850   11.2610  -16.6450 O   0  0  0  0  0  0  0  0  0  0  0  0
  -30.1090   12.0550  -21.2020 N   0  0  0  0  0  0  0  0  0  0  0  0
  -30.6850   11.8930  -22.0280 H   0  0  0  0  0  0  0  0  0  0  0  0
  -30.0780   10.8030  -20.4190 C   0  0  0  0  0  0  0  0  0  0  0  0
  -28.8110   12.3860  -21.8690 C   0  0  0  0  0  0  0  0  0  0  0  0
  -27.5700   12.2290  -20.9420 C   0  0  0  0  0  0  0  0  0  0  0  0
  -27.6440   13.2570  -19.8070 C   0  0  0  0  0  0  0  0  0  0  0  0
  -27.7840   12.8350  -18.4820 C   0  0  0  0  0  0  0  0  0  0  0  0
  -27.8770   13.7690  -17.4620 C   0  0  0  0  0  0  0  0  0  0  0  0
  -27.8450   15.1340  -17.7490 C   0  0  0  0  0  0  0  0  0  0  0  0
  -27.7080   15.5550  -19.0600 C   0  0  0  0  0  0  0  0  0  0  0  0
  -27.6040   14.6120  -20.0820 C   0  0  0  0  0  0  0  0  0  0  0  0
  1  2  2  0  0  0  0
  2 16  1  0  0  0  0
  3  2  1  0  0  0  0
  4 12  1  1  0  0  0
  4  3  1  0  0  0  0
  5  7  1  1  0  0  0
  5  4  1  0  0  0  0
  5  6  1  0  0  0  0
  6 19  1  6  0  0  0
  6  1  1  0  0  0  0
  7  9  1  0  0  0  0
  8  7  1  0  0  0  0
  9 11  1  0  0  0  0
  9 10  2  0  0  0  0
 12 15  1  0  0  0  0
 13 12  1  0  0  0  0
 14 12  1  0  0  0  0
 16 18  2  0  0  0  0
 16 17  1  0  0  0  0
 19 21  1  0  0  0  0
 20 19  1  0  0  0  0
 22 19  1  0  0  0  0
 22 23  1  0  0  0  0
 23 24  1  0  0  0  0
 24 25  1  0  0  0  0
 25 26  2  0  0  0  0
 27 26  1  0  0  0  0
 28 27  2  0  0  0  0
 29 24  2  0  0  0  0
 29 28  1  0  0  0  0
M  END
>  <MODEL>
1

>  <REMARK>
 VINA RESULT:      -5.3      0.000      0.000
  Name = BDB5228
                            x       y       z     vdW  Elec       q    Type
                         _______ _______ _______ _____ _____    ______ ____

>  <TORSDO>
F 7

>  <vina_score>
-5.3

$$$$
BDB5198
 OpenBabel01041719343D

 25 26  0  0  1  0  0  0  0  0999 V2000
  -33.5000   12.0140  -19.4120 C   0  0  0  0  0  0  0  0  0  0  0  0
  -32.9690   12.8880  -18.3060 C   0  0  2  0  0  0  0  0  0  0  0  0
  -31.4880   12.5720  -18.4620 C   0  0  1  0  0  0  0  0  0  0  0  0
  -31.2370   12.7120  -19.9210 N   0  0  0  0  0  0  0  0  0  0  0  0
  -30.5540   12.0390  -20.2680 H   0  0  0  0  0  0  0  0  0  0  0  0
  -30.8590   13.6340  -20.1360 H   0  0  0  0  0  0  0  0  0  0  0  0
  -32.5900   12.5320  -20.5420 C   0  0  1  0  0  0  0  0  0  0  0  0
  -33.4870   12.4860  -16.9520 C   0  0  0  0  0  0  0  0  0  0  0  0
  -33.3970   10.9230  -16.3870 S   0  0  0  0  0  0  0  0  0  0  0  0
  -34.1310   11.3570  -14.9430 C   0  0  0  0  0  0  0  0  0  0  0  0
  -34.4190   12.7210  -14.9640 C   0  0  0  0  0  0  0  0  0  0  0  0
  -34.0490   13.3240  -16.0950 N   0  0  0  0  0  0  0  0  0  0  0  0
  -32.5720   11.6080  -21.7260 C   0  0  0  0  0  0  0  0  0  0  0  0
  -31.5450   11.6600  -22.6120 O   0  0  0  0  0  0  0  0  0  0  0  0
  -33.4960   10.8030  -21.8940 O   0  0  0  0  0  0  0  0  0  0  0  0
  -30.2910   13.6070  -18.6500 C   0  0  1  0  0  0  0  0  0  0  0  0
  -30.9910   14.9190  -18.9740 N   0  0  0  0  0  0  0  0  0  0  0  0
  -31.6290   15.0820  -18.2420 H   0  0  0  0  0  0  0  0  0  0  0  0
  -31.1240   16.0040  -19.8640 C   0  0  0  0  0  0  0  0  0  0  0  0
  -32.2320   16.2720  -20.3340 O   0  0  0  0  0  0  0  0  0  0  0  0
  -29.9330   16.8480  -20.2390 C   0  0  0  0  0  0  0  0  0  0  0  0
  -29.6620   13.8460  -17.1330 C   0  0  0  0  0  0  0  0  0  0  0  0
  -28.5010   14.2300  -18.1000 C   0  0  0  0  0  0  0  0  0  0  0  0
  -27.7620   15.5030  -17.6340 C   0  0  0  0  0  0  0  0  0  0  0  0
  -27.4900   13.0710  -18.1380 C   0  0  0  0  0  0  0  0  0  0  0  0
  1  2  1  0  0  0  0
  2  8  1  1  0  0  0
  3  4  1  6  0  0  0
  3  2  1  0  0  0  0
  5  4  1  0  0  0  0
  6  4  1  0  0  0  0
  7 13  1  6  0  0  0
  7  4  1  0  0  0  0
  7  1  1  0  0  0  0
  8  9  1  0  0  0  0
  8 12  2  0  0  0  0
  9 10  1  0  0  0  0
 11 10  2  0  0  0  0
 12 11  1  0  0  0  0
 14 13  2  0  0  0  0
 15 13  1  0  0  0  0
 16 17  1  1  0  0  0
 16  3  1  0  0  0  0
 16 22  1  0  0  0  0
 17 18  1  0  0  0  0
 19 17  1  0  0  0  0
 20 19  2  0  0  0  0
 21 19  1  0  0  0  0
 23 24  1  0  0  0  0
 23 22  1  0  0  0  0
 25 23  1  0  0  0  0
M  END
>  <MODEL>
1

>  <REMARK>
 VINA RESULT:      -5.3      0.000      0.000
  Name = BDB5198
                            x       y       z     vdW  Elec       q    Type
                         _______ _______ _______ _____ _____    ______ ____

>  <TORSDO>
F 6

>  <vina_score>
-5.3

$$$$
BDB5199
 OpenBabel01041719343D

 26 27  0  0  1  0  0  0  0  0999 V2000
  -33.4750   12.0520  -19.3790 C   0  0  0  0  0  0  0  0  0  0  0  0
  -32.9150   12.9240  -18.2850 C   0  0  2  0  0  0  0  0  0  0  0  0
  -31.4440   12.5600  -18.4400 C   0  0  1  0  0  0  0  0  0  0  0  0
  -31.1920   12.6720  -19.9010 N   0  0  0  0  0  0  0  0  0  0  0  0
  -30.5310   11.9740  -20.2400 H   0  0  0  0  0  0  0  0  0  0  0  0
  -30.7870   13.5800  -20.1300 H   0  0  0  0  0  0  0  0  0  0  0  0
  -32.5520   12.5260  -20.5180 C   0  0  1  0  0  0  0  0  0  0  0  0
  -33.4420   12.5570  -16.9250 C   0  0  0  0  0  0  0  0  0  0  0  0
  -33.9170   13.4320  -16.0630 N   0  0  0  0  0  0  0  0  0  0  0  0
  -34.2790   12.7420  -14.9900 C   0  0  0  0  0  0  0  0  0  0  0  0
  -34.0030   11.4030  -15.2400 C   0  0  0  0  0  0  0  0  0  0  0  0
  -33.4810   11.3250  -16.4580 N   0  0  0  0  0  0  0  0  0  0  0  0
  -33.1810   10.5100  -16.9200 H   0  0  0  0  0  0  0  0  0  0  0  0
  -32.5650   11.5860  -21.6880 C   0  0  0  0  0  0  0  0  0  0  0  0
  -31.5420   11.5990  -22.5810 O   0  0  0  0  0  0  0  0  0  0  0  0
  -33.5100   10.8040  -21.8410 O   0  0  0  0  0  0  0  0  0  0  0  0
  -30.2170   13.5560  -18.6440 C   0  0  1  0  0  0  0  0  0  0  0  0
  -30.8770   14.9020  -18.9000 N   0  0  0  0  0  0  0  0  0  0  0  0
  -31.4040   15.1100  -18.0940 H   0  0  0  0  0  0  0  0  0  0  0  0
  -31.0640   15.9840  -19.7850 C   0  0  0  0  0  0  0  0  0  0  0  0
  -32.2070   16.3100  -20.1130 O   0  0  0  0  0  0  0  0  0  0  0  0
  -29.8850   16.7520  -20.3270 C   0  0  0  0  0  0  0  0  0  0  0  0
  -29.5200   13.7220  -17.1470 C   0  0  0  0  0  0  0  0  0  0  0  0
  -28.4190   14.1960  -18.1430 C   0  0  0  0  0  0  0  0  0  0  0  0
  -27.7460   15.5050  -17.6750 C   0  0  0  0  0  0  0  0  0  0  0  0
  -27.3390   13.1040  -18.2390 C   0  0  0  0  0  0  0  0  0  0  0  0
  1  2  1  0  0  0  0
  2  8  1  1  0  0  0
  3  4  1  6  0  0  0
  3  2  1  0  0  0  0
  5  4  1  0  0  0  0
  6  4  1  0  0  0  0
  7 14  1  6  0  0  0
  7  4  1  0  0  0  0
  7  1  1  0  0  0  0
  8 12  1  0  0  0  0
  8  9  2  0  0  0  0
  9 10  1  0  0  0  0
 11 10  2  0  0  0  0
 12 11  1  0  0  0  0
 13 12  1  0  0  0  0
 15 14  2  0  0  0  0
 16 14  1  0  0  0  0
 17 18  1  1  0  0  0
 17  3  1  0  0  0  0
 17 23  1  0  0  0  0
 18 19  1  0  0  0  0
 20 18  1  0  0  0  0
 21 20  2  0  0  0  0
 22 20  1  0  0  0  0
 24 25  1  0  0  0  0
 24 23  1  0  0  0  0
 26 24  1  0  0  0  0
M  END
>  <MODEL>
1

>  <REMARK>
 VINA RESULT:      -5.3      0.000      0.000
  Name = BDB5199
                            x       y       z     vdW  Elec       q    Type
                         _______ _______ _______ _____ _____    ______ ____

>  <TORSDO>
F 6

>  <vina_score>
-5.3

$$$$
BDB5013
 OpenBabel01041719353D

 29 29  0  0  1  0  0  0  0  0999 V2000
  -31.0370   14.3120  -19.8570 C   0  0  0  0  0  0  0  0  0  0  0  0
  -30.2150   15.1900  -19.2340 C   0  0  0  0  0  0  0  0  0  0  0  0
  -29.5340   14.9020  -17.9180 C   0  0  0  0  0  0  0  0  0  0  0  0
  -29.3890   13.4380  -17.6710 C   0  0  1  0  0  0  0  0  0  0  0  0
  -30.8180   12.7380  -17.9150 C   0  0  2  0  0  0  0  0  0  0  0  0
  -31.3230   12.8970  -19.3600 C   0  0  2  0  0  0  0  0  0  0  0  0
  -31.8610   13.2110  -16.8720 N   0  0  0  0  0  0  0  0  0  0  0  0
  -31.7630   14.1600  -16.6300 H   0  0  0  0  0  0  0  0  0  0  0  0
  -32.9790   12.5360  -16.1570 C   0  0  0  0  0  0  0  0  0  0  0  0
  -33.5950   13.2290  -15.3410 O   0  0  0  0  0  0  0  0  0  0  0  0
  -33.4460   11.1140  -16.2780 C   0  0  0  0  0  0  0  0  0  0  0  0
  -30.0020   16.5090  -19.8080 C   0  0  0  0  0  0  0  0  0  0  0  0
  -31.0200   17.1250  -20.4650 O   0  0  0  0  0  0  0  0  0  0  0  0
  -28.9080   17.0680  -19.6930 O   0  0  0  0  0  0  0  0  0  0  0  0
  -28.0570   12.9850  -18.3400 N   0  0  0  0  0  0  0  0  0  0  0  0
  -27.6480   12.1960  -17.9160 H   0  0  0  0  0  0  0  0  0  0  0  0
  -27.2700   13.5240  -19.5180 C   0  0  0  0  0  0  0  0  0  0  0  0
  -26.9580   12.6830  -20.4290 N   0  0  0  0  0  0  0  0  0  0  0  0
  -26.4510   12.9800  -21.2190 H   0  0  0  0  0  0  0  0  0  0  0  0
  -27.2260   11.7400  -20.3410 H   0  0  0  0  0  0  0  0  0  0  0  0
  -26.8210   14.8670  -19.7660 N   0  0  0  0  0  0  0  0  0  0  0  0
  -26.0760   15.0310  -20.3880 H   0  0  0  0  0  0  0  0  0  0  0  0
  -27.2600   15.6240  -19.3140 H   0  0  0  0  0  0  0  0  0  0  0  0
  -30.8520   11.8510  -20.3470 O   0  0  0  0  0  0  0  0  0  0  0  0
  -31.7790   10.9760  -21.0490 C   0  0  0  0  0  0  0  0  0  0  0  0
  -33.2190   11.6420  -21.0650 C   0  0  0  0  0  0  0  0  0  0  0  0
  -34.2860   10.9070  -20.2100 C   0  0  0  0  0  0  0  0  0  0  0  0
  -31.2110   10.8030  -22.5130 C   0  0  0  0  0  0  0  0  0  0  0  0
  -29.6600   10.8110  -22.6130 C   0  0  0  0  0  0  0  0  0  0  0  0
  1  6  1  0  0  0  0
  1  2  2  0  0  0  0
  2  3  1  0  0  0  0
  3  4  1  0  0  0  0
  4 15  1  6  0  0  0
  5  4  1  0  0  0  0
  5  7  1  1  0  0  0
  6 24  1  6  0  0  0
  6  5  1  0  0  0  0
  7  8  1  0  0  0  0
  7  9  1  0  0  0  0
  9 10  2  0  0  0  0
 11  9  1  0  0  0  0
 12 14  1  0  0  0  0
 12  2  1  0  0  0  0
 13 12  2  0  0  0  0
 15 16  1  0  0  0  0
 17 15  1  0  0  0  0
 18 20  1  0  0  0  0
 18 17  2  0  0  0  0
 19 18  1  0  0  0  0
 21 17  1  0  0  0  0
 21 23  1  0  0  0  0
 22 21  1  0  0  0  0
 25 24  1  0  0  0  0
 26 25  1  0  0  0  0
 26 27  1  0  0  0  0
 28 25  1  0  0  0  0
 29 28  1  0  0  0  0
M  END
>  <MODEL>
1

>  <REMARK>
 VINA RESULT:      -5.3      0.000      0.000
  Name = BDB5013
                            x       y       z     vdW  Elec       q    Type
                         _______ _______ _______ _____ _____    ______ ____

>  <TORSDO>
F 9

>  <vina_score>
-5.3

$$$$
BDB5257
 OpenBabel01041719383D

 25 26  0  0  1  0  0  0  0  0999 V2000
  -31.0010   11.5600  -19.7180 C   0  0  0  0  0  0  0  0  0  0  0  0
  -32.0670   12.0800  -20.3710 C   0  0  0  0  0  0  0  0  0  0  0  0
  -32.6910   13.4500  -20.0240 C   0  0  0  0  0  0  0  0  0  0  0  0
  -31.6780   14.3870  -19.3630 C   0  0  1  0  0  0  0  0  0  0  0  0
  -31.0200   13.5910  -18.1720 C   0  0  2  0  0  0  0  0  0  0  0  0
  -30.2690   12.2640  -18.6020 C   0  0  2  0  0  0  0  0  0  0  0  0
  -28.7830   12.3860  -18.9840 N   0  0  0  0  0  0  0  0  0  0  0  0
  -28.3760   11.4890  -18.7190 H   0  0  0  0  0  0  0  0  0  0  0  0
  -28.7140   12.7050  -20.4210 C   0  0  0  0  0  0  0  0  0  0  0  0
  -27.2430   12.7310  -20.8920 C   0  0  0  0  0  0  0  0  0  0  0  0
  -26.5100   13.7140  -20.1570 O   0  0  0  0  0  0  0  0  0  0  0  0
  -26.5350   13.3800  -18.7720 C   0  0  0  0  0  0  0  0  0  0  0  0
  -27.9870   13.3780  -18.2780 C   0  0  0  0  0  0  0  0  0  0  0  0
  -32.1520   13.4300  -17.1560 N   0  0  0  0  0  0  0  0  0  0  0  0
  -32.4450   14.2760  -16.7470 H   0  0  0  0  0  0  0  0  0  0  0  0
  -32.8850   12.2480  -16.6760 C   0  0  0  0  0  0  0  0  0  0  0  0
  -33.8620   12.4680  -15.9490 O   0  0  0  0  0  0  0  0  0  0  0  0
  -32.5520   10.8060  -16.9300 C   0  0  0  0  0  0  0  0  0  0  0  0
  -30.8170   14.8920  -20.4210 N   0  0  0  0  0  0  0  0  0  0  0  0
  -29.9730   14.3230  -20.4720 H   0  0  0  0  0  0  0  0  0  0  0  0
  -31.3120   14.8490  -21.3110 H   0  0  0  0  0  0  0  0  0  0  0  0
  -30.5640   15.8600  -20.2200 H   0  0  0  0  0  0  0  0  0  0  0  0
  -32.6930   11.2360  -21.3780 C   0  0  0  0  0  0  0  0  0  0  0  0
  -33.9670   10.8040  -21.1960 O   0  0  0  0  0  0  0  0  0  0  0  0
  -32.0530   10.8790  -22.3670 O   0  0  0  0  0  0  0  0  0  0  0  0
  1  6  1  0  0  0  0
  2  3  1  0  0  0  0
  2  1  2  0  0  0  0
  3  4  1  0  0  0  0
  4 19  1  6  0  0  0
  4  5  1  0  0  0  0
  5 14  1  1  0  0  0
  6  7  1  6  0  0  0
  6  5  1  0  0  0  0
  7  8  1  0  0  0  0
  7 13  1  0  0  0  0
  9  7  1  0  0  0  0
 10  9  1  0  0  0  0
 10 11  1  0  0  0  0
 11 12  1  0  0  0  0
 12 13  1  0  0  0  0
 14 15  1  0  0  0  0
 14 16  1  0  0  0  0
 16 17  2  0  0  0  0
 18 16  1  0  0  0  0
 19 22  1  0  0  0  0
 20 19  1  0  0  0  0
 21 19  1  0  0  0  0
 23 24  1  0  0  0  0
 23  2  1  0  0  0  0
 25 23  2  0  0  0  0
M  END
>  <MODEL>
1

>  <REMARK>
 VINA RESULT:      -5.2      0.000      0.000
  Name = BDB5257
                            x       y       z     vdW  Elec       q    Type
                         _______ _______ _______ _____ _____    ______ ____

>  <TORSDO>
F 4

>  <vina_score>
-5.2

$$$$
BDB4932
 OpenBabel01041719363D

 28 28  0  0  1  0  0  0  0  0999 V2000
  -32.3870   13.0510  -17.3510 C   0  0  0  0  0  0  0  0  0  0  0  0
  -32.9590   13.4110  -18.5050 C   0  0  0  0  0  0  0  0  0  0  0  0
  -32.1470   13.8380  -19.6730 C   0  0  1  0  0  0  0  0  0  0  0  0
  -30.7800   13.1820  -19.5820 C   0  0  2  0  0  0  0  0  0  0  0  0
  -30.2080   13.6070  -18.2430 C   0  0  1  0  0  0  0  0  0  0  0  0
  -30.9800   13.0590  -17.1520 O   0  0  0  0  0  0  0  0  0  0  0  0
  -29.9390   13.7000  -20.6690 N   0  0  0  0  0  0  0  0  0  0  0  0
  -29.8330   14.6780  -20.7210 H   0  0  0  0  0  0  0  0  0  0  0  0
  -29.2540   12.9210  -21.6650 C   0  0  0  0  0  0  0  0  0  0  0  0
  -28.5830   13.5170  -22.5150 O   0  0  0  0  0  0  0  0  0  0  0  0
  -29.3110   11.4070  -21.7260 C   0  0  0  0  0  0  0  0  0  0  0  0
  -28.7590   13.1370  -18.1060 C   0  0  0  0  0  0  0  0  0  0  0  0
  -28.5380   11.9240  -18.0690 O   0  0  0  0  0  0  0  0  0  0  0  0
  -27.6520   14.0340  -18.0090 N   0  0  0  0  0  0  0  0  0  0  0  0
  -27.8090   15.4680  -17.9980 C   0  0  0  0  0  0  0  0  0  0  0  0
  -26.3310   13.4850  -17.8980 C   0  0  0  0  0  0  0  0  0  0  0  0
  -33.2450   12.5940  -16.2570 C   0  0  0  0  0  0  0  0  0  0  0  0
  -33.5670   11.2780  -16.1500 O   0  0  0  0  0  0  0  0  0  0  0  0
  -33.6780   13.4050  -15.4300 O   0  0  0  0  0  0  0  0  0  0  0  0
  -32.8030   13.4670  -20.9120 N   0  0  0  0  0  0  0  0  0  0  0  0
  -32.7290   14.0730  -21.6840 H   0  0  0  0  0  0  0  0  0  0  0  0
  -33.5470   12.2730  -21.0560 C   0  0  0  0  0  0  0  0  0  0  0  0
  -34.8120   12.3130  -20.9540 N   0  0  0  0  0  0  0  0  0  0  0  0
  -35.3400   11.4890  -21.0530 H   0  0  0  0  0  0  0  0  0  0  0  0
  -35.2650   13.1700  -20.7760 H   0  0  0  0  0  0  0  0  0  0  0  0
  -32.9180   11.0470  -21.3090 N   0  0  0  0  0  0  0  0  0  0  0  0
  -31.9510   11.0160  -21.4870 H   0  0  0  0  0  0  0  0  0  0  0  0
  -33.4450   10.2150  -21.3080 H   0  0  0  0  0  0  0  0  0  0  0  0
  1  6  1  0  0  0  0
  1 17  1  0  0  0  0
  2  1  2  0  0  0  0
  3 20  1  6  0  0  0
  3  4  1  0  0  0  0
  3  2  1  0  0  0  0
  4  7  1  6  0  0  0
  4  5  1  0  0  0  0
  5 12  1  1  0  0  0
  5  6  1  0  0  0  0
  8  7  1  0  0  0  0
  9  7  1  0  0  0  0
 10  9  2  0  0  0  0
 11  9  1  0  0  0  0
 12 13  2  0  0  0  0
 12 14  1  0  0  0  0
 14 15  1  0  0  0  0
 14 16  1  0  0  0  0
 17 18  2  0  0  0  0
 17 19  1  0  0  0  0
 21 20  1  0  0  0  0
 22 23  1  0  0  0  0
 22 20  1  0  0  0  0
 23 25  1  0  0  0  0
 24 23  1  0  0  0  0
 26 28  1  0  0  0  0
 26 22  2  0  0  0  0
 27 26  1  0  0  0  0
M  END
>  <MODEL>
1

>  <REMARK>
 VINA RESULT:      -5.1      0.000      0.000
  Name = BDB4932
                            x       y       z     vdW  Elec       q    Type
                         _______ _______ _______ _____ _____    ______ ____

>  <TORSDO>
F 6

>  <vina_score>
-5.1

$$$$
BDB4937
 OpenBabel01041719353D

 25 25  0  0  1  0  0  0  0  0999 V2000
  -27.4610   13.7100  -19.9020 C   0  0  0  0  0  0  0  0  0  0  0  0
  -27.5880   14.5170  -18.8430 C   0  0  0  0  0  0  0  0  0  0  0  0
  -28.8980   14.7150  -18.1720 C   0  0  1  0  0  0  0  0  0  0  0  0
  -29.7510   13.4780  -18.3920 C   0  0  2  0  0  0  0  0  0  0  0  0
  -29.8460   13.3060  -19.8960 C   0  0  1  0  0  0  0  0  0  0  0  0
  -28.5540   12.9990  -20.4650 O   0  0  0  0  0  0  0  0  0  0  0  0
  -31.0870   13.7250  -17.8340 N   0  0  0  0  0  0  0  0  0  0  0  0
  -31.4660   14.6240  -17.9700 H   0  0  0  0  0  0  0  0  0  0  0  0
  -31.8970   12.7840  -17.1090 C   0  0  0  0  0  0  0  0  0  0  0  0
  -33.0050   13.1540  -16.7040 O   0  0  0  0  0  0  0  0  0  0  0  0
  -31.4630   11.3610  -16.8130 C   0  0  0  0  0  0  0  0  0  0  0  0
  -28.7110   14.9610  -16.7350 N   0  0  0  0  0  0  0  0  0  0  0  0
  -29.1080   15.8680  -16.4910 H   0  0  0  0  0  0  0  0  0  0  0  0
  -29.1800   14.2300  -16.2020 H   0  0  0  0  0  0  0  0  0  0  0  0
  -27.7140   14.9560  -16.5170 H   0  0  0  0  0  0  0  0  0  0  0  0
  -26.1300   13.5220  -20.4830 C   0  0  0  0  0  0  0  0  0  0  0  0
  -25.4810   14.5730  -21.0470 O   0  0  0  0  0  0  0  0  0  0  0  0
  -25.5990   12.4060  -20.4610 O   0  0  0  0  0  0  0  0  0  0  0  0
  -30.8200   12.1750  -20.2440 C   0  0  0  0  0  0  0  0  0  0  0  0
  -30.5140   11.0230  -19.9120 O   0  0  0  0  0  0  0  0  0  0  0  0
  -32.0490   12.3620  -20.9490 N   0  0  0  0  0  0  0  0  0  0  0  0
  -32.4490   13.6420  -21.4910 C   0  0  0  0  0  0  0  0  0  0  0  0
  -32.5850   14.6760  -20.3510 C   0  0  0  0  0  0  0  0  0  0  0  0
  -32.8890   11.2140  -21.1730 C   0  0  0  0  0  0  0  0  0  0  0  0
  -34.0360   11.1750  -20.1400 C   0  0  0  0  0  0  0  0  0  0  0  0
  1  2  2  0  0  0  0
  2  3  1  0  0  0  0
  3 12  1  1  0  0  0
  4  3  1  0  0  0  0
  4  7  1  6  0  0  0
  5 19  1  1  0  0  0
  5  4  1  0  0  0  0
  6  1  1  0  0  0  0
  6  5  1  0  0  0  0
  7  9  1  0  0  0  0
  8  7  1  0  0  0  0
  9 11  1  0  0  0  0
  9 10  2  0  0  0  0
 12 15  1  0  0  0  0
 12 13  1  0  0  0  0
 12 14  1  0  0  0  0
 16 18  1  0  0  0  0
 16  1  1  0  0  0  0
 17 16  2  0  0  0  0
 19 20  2  0  0  0  0
 21 19  1  0  0  0  0
 22 21  1  0  0  0  0
 22 23  1  0  0  0  0
 24 21  1  0  0  0  0
 24 25  1  0  0  0  0
M  END
>  <MODEL>
1

>  <REMARK>
 VINA RESULT:      -5.0      0.000      0.000
  Name = BDB4937
                            x       y       z     vdW  Elec       q    Type
                         _______ _______ _______ _____ _____    ______ ____

>  <TORSDO>
F 6

>  <vina_score>
-5.0

$$$$
BDB4942
 OpenBabel01041719353D

 30 30  0  0  1  0  0  0  0  0999 V2000
  -33.1280   12.9830  -17.0900 C   0  0  0  0  0  0  0  0  0  0  0  0
  -33.7860   13.1530  -18.2420 C   0  0  0  0  0  0  0  0  0  0  0  0
  -33.0680   13.4280  -19.5120 C   0  0  1  0  0  0  0  0  0  0  0  0
  -31.6730   12.8350  -19.4220 C   0  0  2  0  0  0  0  0  0  0  0  0
  -31.0340   13.4680  -18.2010 C   0  0  1  0  0  0  0  0  0  0  0  0
  -31.7120   13.0620  -16.9910 O   0  0  0  0  0  0  0  0  0  0  0  0
  -30.9240   13.2130  -20.6280 N   0  0  0  0  0  0  0  0  0  0  0  0
  -30.8960   14.1730  -20.8500 H   0  0  0  0  0  0  0  0  0  0  0  0
  -30.2280   12.3230  -21.5160 C   0  0  0  0  0  0  0  0  0  0  0  0
  -29.6440   12.8070  -22.4920 O   0  0  0  0  0  0  0  0  0  0  0  0
  -30.1720   10.8200  -21.3190 C   0  0  0  0  0  0  0  0  0  0  0  0
  -33.8950   12.6640  -15.8850 C   0  0  0  0  0  0  0  0  0  0  0  0
  -34.4600   11.4370  -15.7440 O   0  0  0  0  0  0  0  0  0  0  0  0
  -34.0300   13.5130  -14.9960 O   0  0  0  0  0  0  0  0  0  0  0  0
  -29.5590   13.0650  -18.0990 C   0  0  0  0  0  0  0  0  0  0  0  0
  -29.2950   11.8660  -17.9420 O   0  0  0  0  0  0  0  0  0  0  0  0
  -28.4690   13.9870  -18.1490 N   0  0  0  0  0  0  0  0  0  0  0  0
  -28.6620   15.4190  -18.2080 C   0  0  0  0  0  0  0  0  0  0  0  0
  -29.1770   15.8230  -19.6070 C   0  0  0  0  0  0  0  0  0  0  0  0
  -27.1290   13.4640  -18.0820 C   0  0  0  0  0  0  0  0  0  0  0  0
  -26.6460   13.0340  -19.4850 C   0  0  0  0  0  0  0  0  0  0  0  0
  -33.7870   12.8610  -20.6360 N   0  0  0  0  0  0  0  0  0  0  0  0
  -34.1940   13.4720  -21.2920 H   0  0  0  0  0  0  0  0  0  0  0  0
  -33.9290   11.4680  -20.8290 C   0  0  0  0  0  0  0  0  0  0  0  0
  -34.6680   10.8030  -20.0380 N   0  0  0  0  0  0  0  0  0  0  0  0
  -34.7750    9.8330  -20.1620 H   0  0  0  0  0  0  0  0  0  0  0  0
  -35.1340   11.2590  -19.3000 H   0  0  0  0  0  0  0  0  0  0  0  0
  -33.2720   10.8030  -21.8740 N   0  0  0  0  0  0  0  0  0  0  0  0
  -32.7350    9.9990  -21.6860 H   0  0  0  0  0  0  0  0  0  0  0  0
  -33.3480   11.1400  -22.7950 H   0  0  0  0  0  0  0  0  0  0  0  0
  1  6  1  0  0  0  0
  1 12  1  0  0  0  0
  2  1  2  0  0  0  0
  3 22  1  6  0  0  0
  3  4  1  0  0  0  0
  3  2  1  0  0  0  0
  4  7  1  6  0  0  0
  4  5  1  0  0  0  0
  5 15  1  1  0  0  0
  5  6  1  0  0  0  0
  8  7  1  0  0  0  0
  9 11  1  0  0  0  0
  9  7  1  0  0  0  0
 10  9  2  0  0  0  0
 12 13  2  0  0  0  0
 12 14  1  0  0  0  0
 15 16  2  0  0  0  0
 17 15  1  0  0  0  0
 17 20  1  0  0  0  0
 18 17  1  0  0  0  0
 19 18  1  0  0  0  0
 21 20  1  0  0  0  0
 23 22  1  0  0  0  0
 24 22  1  0  0  0  0
 24 25  1  0  0  0  0
 25 27  1  0  0  0  0
 26 25  1  0  0  0  0
 28 29  1  0  0  0  0
 28 24  2  0  0  0  0
 30 28  1  0  0  0  0
M  END
>  <MODEL>
1

>  <REMARK>
 VINA RESULT:      -4.8      0.000      0.000
  Name = BDB4942
                            x       y       z     vdW  Elec       q    Type
                         _______ _______ _______ _____ _____    ______ ____

>  <TORSDO>
F 8

>  <vina_score>
-4.8

$$$$
BDB5003
 OpenBabel01041719353D

 30 31  0  0  1  0  0  0  0  0999 V2000
  -29.6760   13.3650  -19.2630 C   0  0  0  0  0  0  0  0  0  0  0  0
  -29.3900   14.3990  -18.4470 C   0  0  0  0  0  0  0  0  0  0  0  0
  -29.1160   15.8530  -18.9430 C   0  0  0  0  0  0  0  0  0  0  0  0
  -29.6380   16.1140  -20.3530 C   0  0  1  0  0  0  0  0  0  0  0  0
  -29.2830   14.9010  -21.2630 C   0  0  2  0  0  0  0  0  0  0  0  0
  -29.8630   13.4960  -20.7480 C   0  0  2  0  0  0  0  0  0  0  0  0
  -27.7660   14.9570  -21.5150 N   0  0  0  0  0  0  0  0  0  0  0  0
  -27.5110   15.5460  -22.2610 H   0  0  0  0  0  0  0  0  0  0  0  0
  -26.6160   14.3030  -20.8590 C   0  0  0  0  0  0  0  0  0  0  0  0
  -25.5050   14.7930  -21.0920 O   0  0  0  0  0  0  0  0  0  0  0  0
  -26.6250   13.0460  -20.0380 C   0  0  0  0  0  0  0  0  0  0  0  0
  -31.0030   16.3790  -20.2380 N   0  0  0  0  0  0  0  0  0  0  0  0
  -31.4740   16.1120  -21.1020 H   0  0  0  0  0  0  0  0  0  0  0  0
  -31.3880   15.8440  -19.4600 H   0  0  0  0  0  0  0  0  0  0  0  0
  -31.1420   17.3750  -20.0680 H   0  0  0  0  0  0  0  0  0  0  0  0
  -29.2060   14.0990  -17.0360 C   0  0  0  0  0  0  0  0  0  0  0  0
  -29.7320   12.9700  -16.5070 O   0  0  0  0  0  0  0  0  0  0  0  0
  -28.6100   14.9050  -16.3110 O   0  0  0  0  0  0  0  0  0  0  0  0
  -31.3150   13.0840  -21.0800 O   0  0  0  0  0  0  0  0  0  0  0  0
  -31.6120   11.8230  -21.7670 C   0  0  1  0  0  0  0  0  0  0  0  0
  -30.4310   10.8030  -21.6590 C   0  0  0  0  0  0  0  0  0  0  0  0
  -29.2820   11.1730  -22.6110 C   0  0  0  0  0  0  0  0  0  0  0  0
  -32.8040   11.0870  -21.1700 C   0  0  0  0  0  0  0  0  0  0  0  0
  -33.4980   12.1860  -20.3300 C   0  0  0  0  0  0  0  0  0  0  0  0
  -33.2330   12.0430  -18.8780 C   0  0  0  0  0  0  0  0  0  0  0  0
  -33.6900   13.0510  -18.0120 C   0  0  0  0  0  0  0  0  0  0  0  0
  -33.5040   12.9210  -16.6520 C   0  0  0  0  0  0  0  0  0  0  0  0
  -32.8580   11.7940  -16.1410 C   0  0  0  0  0  0  0  0  0  0  0  0
  -32.4070   10.8040  -16.9970 C   0  0  0  0  0  0  0  0  0  0  0  0
  -32.6050   10.9310  -18.3750 C   0  0  0  0  0  0  0  0  0  0  0  0
  1  2  2  0  0  0  0
  2 16  1  0  0  0  0
  3  2  1  0  0  0  0
  4 12  1  1  0  0  0
  4  3  1  0  0  0  0
  5  7  1  1  0  0  0
  5  6  1  0  0  0  0
  5  4  1  0  0  0  0
  6 19  1  1  0  0  0
  6  1  1  0  0  0  0
  7  9  1  0  0  0  0
  8  7  1  0  0  0  0
  9 11  1  0  0  0  0
 10  9  2  0  0  0  0
 12 15  1  0  0  0  0
 12 14  1  0  0  0  0
 13 12  1  0  0  0  0
 16 17  2  0  0  0  0
 16 18  1  0  0  0  0
 20 21  1  1  0  0  0
 20 23  1  0  0  0  0
 20 19  1  0  0  0  0
 22 21  1  0  0  0  0
 23 24  1  0  0  0  0
 24 25  1  0  0  0  0
 25 30  2  0  0  0  0
 25 26  1  0  0  0  0
 26 27  2  0  0  0  0
 27 28  1  0  0  0  0
 29 28  2  0  0  0  0
 30 29  1  0  0  0  0
M  END
>  <MODEL>
1

>  <REMARK>
 VINA RESULT:      -4.5      0.000      0.000
  Name = BDB5003
                            x       y       z     vdW  Elec       q    Type
                         _______ _______ _______ _____ _____    ______ ____

>  <TORSDO>
F 9

>  <vina_score>
-4.5

$$$$
BDB4952
 OpenBabel01041719373D

 31 32  0  0  1  0  0  0  0  0999 V2000
  -33.5560   12.6480  -16.6190 C   0  0  0  0  0  0  0  0  0  0  0  0
  -34.3230   12.5560  -17.7100 C   0  0  0  0  0  0  0  0  0  0  0  0
  -33.7290   12.4560  -19.0680 C   0  0  1  0  0  0  0  0  0  0  0  0
  -32.3530   11.8230  -18.9530 C   0  0  2  0  0  0  0  0  0  0  0  0
  -31.5720   12.7090  -18.0010 C   0  0  1  0  0  0  0  0  0  0  0  0
  -32.1360   12.6660  -16.6710 O   0  0  0  0  0  0  0  0  0  0  0  0
  -31.7190   11.8360  -20.2780 N   0  0  0  0  0  0  0  0  0  0  0  0
  -31.2740   11.0060  -20.5650 H   0  0  0  0  0  0  0  0  0  0  0  0
  -31.6830   12.9420  -21.1970 C   0  0  0  0  0  0  0  0  0  0  0  0
  -31.1040   12.7860  -22.2780 O   0  0  0  0  0  0  0  0  0  0  0  0
  -32.3190   14.2880  -20.9090 C   0  0  0  0  0  0  0  0  0  0  0  0
  -34.5890   11.6540  -19.9500 N   0  0  0  0  0  0  0  0  0  0  0  0
  -34.5480   12.0300  -20.8970 H   0  0  0  0  0  0  0  0  0  0  0  0
  -34.2660   10.6880  -19.9540 H   0  0  0  0  0  0  0  0  0  0  0  0
  -35.5510   11.6910  -19.6110 H   0  0  0  0  0  0  0  0  0  0  0  0
  -34.2070   12.6940  -15.3080 C   0  0  0  0  0  0  0  0  0  0  0  0
  -34.9610   11.6450  -14.8870 O   0  0  0  0  0  0  0  0  0  0  0  0
  -34.0710   13.6880  -14.5850 O   0  0  0  0  0  0  0  0  0  0  0  0
  -30.1080   12.2580  -17.9300 C   0  0  0  0  0  0  0  0  0  0  0  0
  -29.8640   11.0590  -18.1010 O   0  0  0  0  0  0  0  0  0  0  0  0
  -29.0060   13.1340  -17.6720 N   0  0  0  0  0  0  0  0  0  0  0  0
  -29.1760   14.5370  -17.3410 C   0  0  0  0  0  0  0  0  0  0  0  0
  -29.5730   15.3490  -18.6010 C   0  0  0  0  0  0  0  0  0  0  0  0
  -27.6750   12.5730  -17.7310 C   0  0  0  0  0  0  0  0  0  0  0  0
  -26.7030   13.5050  -18.4850 C   0  0  0  0  0  0  0  0  0  0  0  0
  -27.0960   13.5830  -19.9310 C   0  0  0  0  0  0  0  0  0  0  0  0
  -26.8290   14.7370  -20.6590 C   0  0  0  0  0  0  0  0  0  0  0  0
  -27.1870   14.8110  -21.9990 C   0  0  0  0  0  0  0  0  0  0  0  0
  -27.8120   13.7320  -22.6120 C   0  0  0  0  0  0  0  0  0  0  0  0
  -28.0800   12.5780  -21.8850 C   0  0  0  0  0  0  0  0  0  0  0  0
  -27.7210   12.5050  -20.5440 C   0  0  0  0  0  0  0  0  0  0  0  0
  1 16  1  0  0  0  0
  2  1  2  0  0  0  0
  3 12  1  6  0  0  0
  3  4  1  0  0  0  0
  3  2  1  0  0  0  0
  4  7  1  6  0  0  0
  4  5  1  0  0  0  0
  5 19  1  1  0  0  0
  5  6  1  0  0  0  0
  6  1  1  0  0  0  0
  8  7  1  0  0  0  0
  9 11  1  0  0  0  0
  9  7  1  0  0  0  0
 10  9  2  0  0  0  0
 12 15  1  0  0  0  0
 13 12  1  0  0  0  0
 14 12  1  0  0  0  0
 16 17  2  0  0  0  0
 16 18  1  0  0  0  0
 19 21  1  0  0  0  0
 20 19  2  0  0  0  0
 21 22  1  0  0  0  0
 23 22  1  0  0  0  0
 24 21  1  0  0  0  0
 25 24  1  0  0  0  0
 26 25  1  0  0  0  0
 27 26  2  0  0  0  0
 28 27  1  0  0  0  0
 29 28  2  0  0  0  0
 29 30  1  0  0  0  0
 30 31  2  0  0  0  0
 31 26  1  0  0  0  0
M  END
>  <MODEL>
1

>  <REMARK>
 VINA RESULT:      -4.4      0.000      0.000
  Name = BDB4952
                            x       y       z     vdW  Elec       q    Type
                         _______ _______ _______ _____ _____    ______ ____

>  <TORSDO>
F 8

>  <vina_score>
-4.4

$$$$
BDB4945
 OpenBabel01041719363D

 32 33  0  0  1  0  0  0  0  0999 V2000
  -32.0830   11.5330  -20.4660 C   0  0  0  0  0  0  0  0  0  0  0  0
  -33.3580   11.5030  -20.0620 C   0  0  0  0  0  0  0  0  0  0  0  0
  -33.7610   12.0280  -18.7320 C   0  0  1  0  0  0  0  0  0  0  0  0
  -32.7710   13.1010  -18.3110 C   0  0  2  0  0  0  0  0  0  0  0  0
  -31.4100   12.4310  -18.3240 C   0  0  1  0  0  0  0  0  0  0  0  0
  -31.0310   12.0530  -19.6660 O   0  0  0  0  0  0  0  0  0  0  0  0
  -33.1010   13.5320  -16.9460 N   0  0  0  0  0  0  0  0  0  0  0  0
  -32.9790   14.4880  -16.7410 H   0  0  0  0  0  0  0  0  0  0  0  0
  -33.5840   12.6970  -15.8790 C   0  0  0  0  0  0  0  0  0  0  0  0
  -33.8130   13.2210  -14.7840 O   0  0  0  0  0  0  0  0  0  0  0  0
  -33.8260   11.2070  -16.0290 C   0  0  0  0  0  0  0  0  0  0  0  0
  -35.1220   12.5800  -18.7870 N   0  0  0  0  0  0  0  0  0  0  0  0
  -35.4140   12.6690  -19.7610 H   0  0  0  0  0  0  0  0  0  0  0  0
  -35.7620   11.9560  -18.2970 H   0  0  0  0  0  0  0  0  0  0  0  0
  -35.1350   13.4980  -18.3430 H   0  0  0  0  0  0  0  0  0  0  0  0
  -31.7630   11.0430  -21.8090 C   0  0  0  0  0  0  0  0  0  0  0  0
  -30.4680   10.8540  -22.1720 O   0  0  0  0  0  0  0  0  0  0  0  0
  -32.6720   10.8030  -22.6120 O   0  0  0  0  0  0  0  0  0  0  0  0
  -30.3450   13.3750  -17.7580 C   0  0  0  0  0  0  0  0  0  0  0  0
  -29.8740   13.1170  -16.6450 O   0  0  0  0  0  0  0  0  0  0  0  0
  -29.8740   14.5450  -18.4300 N   0  0  0  0  0  0  0  0  0  0  0  0
  -30.4160   14.9950  -19.6970 C   0  0  0  0  0  0  0  0  0  0  0  0
  -30.4110   16.5410  -19.7700 C   0  0  0  0  0  0  0  0  0  0  0  0
  -31.7900   17.0320  -20.2430 C   0  0  0  0  0  0  0  0  0  0  0  0
  -28.8240   15.3080  -17.7970 C   0  0  0  0  0  0  0  0  0  0  0  0
  -27.4310   14.7810  -18.2020 C   0  0  0  0  0  0  0  0  0  0  0  0
  -27.4910   14.1910  -19.5810 C   0  0  0  0  0  0  0  0  0  0  0  0
  -27.3370   15.0120  -20.6930 C   0  0  0  0  0  0  0  0  0  0  0  0
  -27.3870   14.4660  -21.9700 C   0  0  0  0  0  0  0  0  0  0  0  0
  -27.5910   13.1010  -22.1350 C   0  0  0  0  0  0  0  0  0  0  0  0
  -27.7450   12.2820  -21.0240 C   0  0  0  0  0  0  0  0  0  0  0  0
  -27.6950   12.8280  -19.7450 C   0  0  0  0  0  0  0  0  0  0  0  0
  1  2  2  0  0  0  0
  1  6  1  0  0  0  0
  2  3  1  0  0  0  0
  3 12  1  6  0  0  0
  3  4  1  0  0  0  0
  4  7  1  1  0  0  0
  5  4  1  0  0  0  0
  5 19  1  6  0  0  0
  6  5  1  0  0  0  0
  7  8  1  0  0  0  0
  7  9  1  0  0  0  0
  9 10  2  0  0  0  0
 11  9  1  0  0  0  0
 12 15  1  0  0  0  0
 12 14  1  0  0  0  0
 13 12  1  0  0  0  0
 16  1  1  0  0  0  0
 17 16  1  0  0  0  0
 18 16  2  0  0  0  0
 19 20  2  0  0  0  0
 21 25  1  0  0  0  0
 21 19  1  0  0  0  0
 22 21  1  0  0  0  0
 23 22  1  0  0  0  0
 24 23  1  0  0  0  0
 26 25  1  0  0  0  0
 27 26  1  0  0  0  0
 28 27  2  0  0  0  0
 29 28  1  0  0  0  0
 30 29  2  0  0  0  0
 30 31  1  0  0  0  0
 31 32  2  0  0  0  0
 32 27  1  0  0  0  0
M  END
>  <MODEL>
1

>  <REMARK>
 VINA RESULT:      -4.1      0.000      0.000
  Name = BDB4945
                            x       y       z     vdW  Elec       q    Type
                         _______ _______ _______ _____ _____    ______ ____

>  <TORSDO>
F 9

>  <vina_score>
-4.1

$$$$
BDB4948
 OpenBabel01041719393D

 33 33  0  0  1  0  0  0  0  0999 V2000
  -33.6700   12.5710  -16.4530 C   0  0  0  0  0  0  0  0  0  0  0  0
  -34.5270   12.6890  -17.4720 C   0  0  0  0  0  0  0  0  0  0  0  0
  -34.0530   12.7700  -18.8780 C   0  0  1  0  0  0  0  0  0  0  0  0
  -32.7170   12.0570  -18.9830 C   0  0  2  0  0  0  0  0  0  0  0  0
  -31.8050   12.7430  -17.9830 C   0  0  1  0  0  0  0  0  0  0  0  0
  -32.2610   12.5230  -16.6300 O   0  0  0  0  0  0  0  0  0  0  0  0
  -32.1930   12.2430  -20.3430 N   0  0  0  0  0  0  0  0  0  0  0  0
  -31.8380   11.4430  -20.7950 H   0  0  0  0  0  0  0  0  0  0  0  0
  -32.1460   13.4770  -21.0790 C   0  0  0  0  0  0  0  0  0  0  0  0
  -31.6700   13.4610  -22.2200 O   0  0  0  0  0  0  0  0  0  0  0  0
  -32.6500   14.7970  -20.5300 C   0  0  0  0  0  0  0  0  0  0  0  0
  -35.0330   12.1600  -19.7880 N   0  0  0  0  0  0  0  0  0  0  0  0
  -35.2910   12.8340  -20.5100 H   0  0  0  0  0  0  0  0  0  0  0  0
  -34.6230   11.3350  -20.2250 H   0  0  0  0  0  0  0  0  0  0  0  0
  -35.8640   11.8900  -19.2620 H   0  0  0  0  0  0  0  0  0  0  0  0
  -34.2080   12.4460  -15.0970 C   0  0  0  0  0  0  0  0  0  0  0  0
  -34.6310   11.2380  -14.6420 O   0  0  0  0  0  0  0  0  0  0  0  0
  -34.2780   13.4410  -14.3660 O   0  0  0  0  0  0  0  0  0  0  0  0
  -30.3710   12.2120  -18.1130 C   0  0  0  0  0  0  0  0  0  0  0  0
  -30.2170   10.9990  -18.2850 O   0  0  0  0  0  0  0  0  0  0  0  0
  -29.2020   13.0300  -18.0240 N   0  0  0  0  0  0  0  0  0  0  0  0
  -29.2550   14.4420  -17.7100 C   0  0  0  0  0  0  0  0  0  0  0  0
  -29.9300   15.2220  -18.8640 C   0  0  0  0  0  0  0  0  0  0  0  0
  -28.9960   16.3520  -19.3310 C   0  0  0  0  0  0  0  0  0  0  0  0
  -27.9170   12.3990  -18.2220 C   0  0  0  0  0  0  0  0  0  0  0  0
  -26.8190   13.4610  -18.4270 C   0  0  0  0  0  0  0  0  0  0  0  0
  -25.6630   12.8720  -19.2480 C   0  0  0  0  0  0  0  0  0  0  0  0
  -25.9230   13.1570  -20.7360 C   0  0  0  0  0  0  0  0  0  0  0  0
  -26.8090   14.4040  -20.8820 C   0  0  0  0  0  0  0  0  0  0  0  0
  -27.7640   14.2040  -22.0710 C   0  0  0  0  0  0  0  0  0  0  0  0
  -27.8230   12.7150  -22.4410 C   0  0  0  0  0  0  0  0  0  0  0  0
  -29.0050   12.0560  -21.7090 C   0  0  0  0  0  0  0  0  0  0  0  0
  -29.4560   10.8040  -22.4820 C   0  0  0  0  0  0  0  0  0  0  0  0
  1 16  1  0  0  0  0
  2  1  2  0  0  0  0
  3 12  1  6  0  0  0
  3  2  1  0  0  0  0
  4  7  1  6  0  0  0
  4  3  1  0  0  0  0
  4  5  1  0  0  0  0
  5 19  1  1  0  0  0
  5  6  1  0  0  0  0
  6  1  1  0  0  0  0
  8  7  1  0  0  0  0
  9 11  1  0  0  0  0
  9  7  1  0  0  0  0
 10  9  2  0  0  0  0
 12 15  1  0  0  0  0
 13 12  1  0  0  0  0
 14 12  1  0  0  0  0
 16 17  2  0  0  0  0
 16 18  1  0  0  0  0
 19 21  1  0  0  0  0
 20 19  2  0  0  0  0
 21 22  1  0  0  0  0
 23 22  1  0  0  0  0
 24 23  1  0  0  0  0
 25 21  1  0  0  0  0
 26 25  1  0  0  0  0
 27 26  1  0  0  0  0
 28 27  1  0  0  0  0
 29 28  1  0  0  0  0
 30 29  1  0  0  0  0
 31 30  1  0  0  0  0
 31 32  1  0  0  0  0
 33 32  1  0  0  0  0
M  END
>  <MODEL>
1

>  <REMARK>
 VINA RESULT:      -4.0      0.000      0.000
  Name = BDB4948
                            x       y       z     vdW  Elec       q    Type
                         _______ _______ _______ _____ _____    ______ ____

>  <TORSDO>
F 14

>  <vina_score>
-4.0

$$$$
BDB4946
 OpenBabel01041719383D

 37 38  0  0  1  0  0  0  0  0999 V2000
  -33.4550   12.7250  -16.3280 C   0  0  0  0  0  0  0  0  0  0  0  0
  -34.0110   12.1350  -17.3920 C   0  0  0  0  0  0  0  0  0  0  0  0
  -33.2920   12.0400  -18.6880 C   0  0  1  0  0  0  0  0  0  0  0  0
  -31.7970   12.0510  -18.4190 C   0  0  2  0  0  0  0  0  0  0  0  0
  -31.5270   13.3340  -17.6560 C   0  0  1  0  0  0  0  0  0  0  0  0
  -32.1590   13.3070  -16.3570 O   0  0  0  0  0  0  0  0  0  0  0  0
  -31.0900   12.0810  -19.7060 N   0  0  0  0  0  0  0  0  0  0  0  0
  -30.3190   11.4740  -19.8040 H   0  0  0  0  0  0  0  0  0  0  0  0
  -31.4100   12.9070  -20.8390 C   0  0  0  0  0  0  0  0  0  0  0  0
  -30.7100   12.8090  -21.8530 O   0  0  0  0  0  0  0  0  0  0  0  0
  -32.5630   13.8920  -20.8550 C   0  0  0  0  0  0  0  0  0  0  0  0
  -34.2000   12.7390  -15.0670 C   0  0  0  0  0  0  0  0  0  0  0  0
  -33.9220   13.6780  -14.1250 O   0  0  0  0  0  0  0  0  0  0  0  0
  -35.0810   11.8970  -14.8600 O   0  0  0  0  0  0  0  0  0  0  0  0
  -30.0210   13.5360  -17.4670 C   0  0  0  0  0  0  0  0  0  0  0  0
  -29.3640   12.6000  -16.9960 O   0  0  0  0  0  0  0  0  0  0  0  0
  -29.3290   14.7450  -17.7840 N   0  0  0  0  0  0  0  0  0  0  0  0
  -30.0060   15.9360  -18.2580 C   0  0  0  0  0  0  0  0  0  0  0  0
  -29.8580   16.0710  -19.7920 C   0  0  0  0  0  0  0  0  0  0  0  0
  -31.1240   16.7270  -20.3700 C   0  0  0  0  0  0  0  0  0  0  0  0
  -27.8960   14.7690  -17.6060 C   0  0  0  0  0  0  0  0  0  0  0  0
  -27.2360   13.5220  -18.2300 C   0  0  0  0  0  0  0  0  0  0  0  0
  -27.3220   13.5960  -19.7260 C   0  0  0  0  0  0  0  0  0  0  0  0
  -27.8320   12.5210  -20.4460 C   0  0  0  0  0  0  0  0  0  0  0  0
  -27.9180   12.5910  -21.8310 C   0  0  0  0  0  0  0  0  0  0  0  0
  -27.4960   13.7350  -22.4960 C   0  0  0  0  0  0  0  0  0  0  0  0
  -26.9870   14.8100  -21.7780 C   0  0  0  0  0  0  0  0  0  0  0  0
  -26.9000   14.7390  -20.3910 C   0  0  0  0  0  0  0  0  0  0  0  0
  -33.6690   10.8290  -19.3910 N   0  0  0  0  0  0  0  0  0  0  0  0
  -33.5540    9.9640  -18.9350 H   0  0  0  0  0  0  0  0  0  0  0  0
  -34.1950   10.8380  -20.7030 C   0  0  0  0  0  0  0  0  0  0  0  0
  -35.4540   10.8780  -20.8680 N   0  0  0  0  0  0  0  0  0  0  0  0
  -35.8310   10.8850  -21.7770 H   0  0  0  0  0  0  0  0  0  0  0  0
  -36.0520   10.9020  -20.0870 H   0  0  0  0  0  0  0  0  0  0  0  0
  -33.3580   10.8040  -21.8270 N   0  0  0  0  0  0  0  0  0  0  0  0
  -32.4760   11.2400  -21.7970 H   0  0  0  0  0  0  0  0  0  0  0  0
  -33.6510   10.3430  -22.6450 H   0  0  0  0  0  0  0  0  0  0  0  0
  1 12  1  0  0  0  0
  2  1  2  0  0  0  0
  3 29  1  1  0  0  0
  3  4  1  0  0  0  0
  3  2  1  0  0  0  0
  4  7  1  6  0  0  0
  4  5  1  0  0  0  0
  5 15  1  1  0  0  0
  5  6  1  0  0  0  0
  6  1  1  0  0  0  0
  8  7  1  0  0  0  0
  9  7  1  0  0  0  0
 10  9  2  0  0  0  0
 11  9  1  0  0  0  0
 12 14  2  0  0  0  0
 12 13  1  0  0  0  0
 15 16  2  0  0  0  0
 17 21  1  0  0  0  0
 17 15  1  0  0  0  0
 18 17  1  0  0  0  0
 19 18  1  0  0  0  0
 20 19  1  0  0  0  0
 22 21  1  0  0  0  0
 23 22  1  0  0  0  0
 24 23  2  0  0  0  0
 25 24  1  0  0  0  0
 26 25  2  0  0  0  0
 26 27  1  0  0  0  0
 27 28  2  0  0  0  0
 28 23  1  0  0  0  0
 29 30  1  0  0  0  0
 31 29  1  0  0  0  0
 32 31  1  0  0  0  0
 32 34  1  0  0  0  0
 33 32  1  0  0  0  0
 35 36  1  0  0  0  0
 35 31  2  0  0  0  0
 37 35  1  0  0  0  0
M  END
>  <MODEL>
1

>  <REMARK>
 VINA RESULT:      -2.2      0.000      0.000
  Name = BDB4946
                            x       y       z     vdW  Elec       q    Type
                         _______ _______ _______ _____ _____    ______ ____

>  <TORSDO>
F 11

>  <vina_score>
-2.2

$$$$
BDB5007
 OpenBabel01041719383D

 34 36  0  0  1  0  0  0  0  0999 V2000
  -33.5910   10.8030  -16.1380 C   0  0  0  0  0  0  0  0  0  0  0  0
  -33.9580   11.9030  -15.4690 C   0  0  0  0  0  0  0  0  0  0  0  0
  -33.6080   13.3260  -15.9480 C   0  0  0  0  0  0  0  0  0  0  0  0
  -33.2190   13.3480  -17.4260 C   0  0  1  0  0  0  0  0  0  0  0  0
  -32.1740   12.2020  -17.7020 C   0  0  2  0  0  0  0  0  0  0  0  0
  -32.8720   10.8480  -17.4480 C   0  0  2  0  0  0  0  0  0  0  0  0
  -30.8540   12.5190  -17.0210 N   0  0  0  0  0  0  0  0  0  0  0  0
  -30.6600   11.9420  -16.2470 H   0  0  0  0  0  0  0  0  0  0  0  0
  -29.8100   13.5140  -17.2870 C   0  0  0  0  0  0  0  0  0  0  0  0
  -28.7670   13.3950  -16.6350 O   0  0  0  0  0  0  0  0  0  0  0  0
  -29.8840   14.6940  -18.2070 C   0  0  0  0  0  0  0  0  0  0  0  0
  -34.4740   13.2400  -18.1910 N   0  0  0  0  0  0  0  0  0  0  0  0
  -35.2570   13.1420  -17.5460 H   0  0  0  0  0  0  0  0  0  0  0  0
  -34.6020   14.0810  -18.7550 H   0  0  0  0  0  0  0  0  0  0  0  0
  -34.4300   12.4250  -18.8020 H   0  0  0  0  0  0  0  0  0  0  0  0
  -34.5940   11.7210  -14.1750 C   0  0  0  0  0  0  0  0  0  0  0  0
  -34.0780   10.8430  -13.2860 O   0  0  0  0  0  0  0  0  0  0  0  0
  -35.6510   12.3140  -13.9220 O   0  0  0  0  0  0  0  0  0  0  0  0
  -33.8660   10.8050  -18.5120 O   0  0  0  0  0  0  0  0  0  0  0  0
  -33.6090   11.6580  -19.6290 C   0  0  0  0  0  0  0  0  0  0  0  0
  -34.2130   11.0190  -20.9430 C   0  0  0  0  0  0  0  0  0  0  0  0
  -33.2760   10.9850  -22.2170 C   0  0  0  0  0  0  0  0  0  0  0  0
  -31.9690   11.6400  -21.7880 C   0  0  0  0  0  0  0  0  0  0  0  0
  -31.7720   13.0200  -21.8160 C   0  0  0  0  0  0  0  0  0  0  0  0
  -30.5300   13.5530  -21.4810 C   0  0  0  0  0  0  0  0  0  0  0  0
  -29.4820   12.6950  -21.1140 C   0  0  0  0  0  0  0  0  0  0  0  0
  -29.6900   11.3360  -21.0740 C   0  0  0  0  0  0  0  0  0  0  0  0
  -30.9280   10.8050  -21.4120 C   0  0  0  0  0  0  0  0  0  0  0  0
  -28.1540   13.2210  -20.8010 C   0  0  0  0  0  0  0  0  0  0  0  0
  -27.5750   14.2240  -21.5480 C   0  0  0  0  0  0  0  0  0  0  0  0
  -26.2940   14.6770  -21.2350 C   0  0  0  0  0  0  0  0  0  0  0  0
  -25.6010   14.1180  -20.1680 C   0  0  0  0  0  0  0  0  0  0  0  0
  -26.1850   13.1070  -19.4130 C   0  0  0  0  0  0  0  0  0  0  0  0
  -27.4560   12.6540  -19.7260 C   0  0  0  0  0  0  0  0  0  0  0  0
  1  2  2  0  0  0  0
  2 16  1  0  0  0  0
  3  2  1  0  0  0  0
  4 12  1  6  0  0  0
  4  3  1  0  0  0  0
  5  6  1  0  0  0  0
  5  4  1  0  0  0  0
  5  7  1  1  0  0  0
  6 19  1  6  0  0  0
  6  1  1  0  0  0  0
  7  8  1  0  0  0  0
  9  7  1  0  0  0  0
  9 10  2  0  0  0  0
 11  9  1  0  0  0  0
 12 13  1  0  0  0  0
 14 12  1  0  0  0  0
 15 12  1  0  0  0  0
 16 18  2  0  0  0  0
 16 17  1  0  0  0  0
 20 19  1  0  0  0  0
 21 20  1  0  0  0  0
 22 23  1  0  0  0  0
 22 21  1  0  0  0  0
 23 28  1  0  0  0  0
 24 23  2  0  0  0  0
 24 25  1  0  0  0  0
 25 26  2  0  0  0  0
 26 27  1  0  0  0  0
 26 29  1  0  0  0  0
 28 27  2  0  0  0  0
 29 34  2  0  0  0  0
 30 31  2  0  0  0  0
 30 29  1  0  0  0  0
 31 32  1  0  0  0  0
 32 33  2  0  0  0  0
 34 33  1  0  0  0  0
M  END
>  <MODEL>
1

>  <REMARK>
 VINA RESULT:      -1.8      0.000      0.000
  Name = BDB5007
                            x       y       z     vdW  Elec       q    Type
                         _______ _______ _______ _____ _____    ______ ____

>  <TORSDO>
F 9

>  <vina_score>
-1.8

$$$$
BDB4965
 OpenBabel01041719373D

 34 35  0  0  1  0  0  0  0  0999 V2000
  -28.4570   14.9160  -17.8770 C   0  0  0  0  0  0  0  0  0  0  0  0
  -27.2550   14.9410  -18.4620 C   0  0  0  0  0  0  0  0  0  0  0  0
  -26.9510   14.0940  -19.6440 C   0  0  1  0  0  0  0  0  0  0  0  0
  -28.2440   13.8170  -20.3920 C   0  0  2  0  0  0  0  0  0  0  0  0
  -29.1700   13.1630  -19.3840 C   0  0  1  0  0  0  0  0  0  0  0  0
  -29.5170   14.0830  -18.3250 O   0  0  0  0  0  0  0  0  0  0  0  0
  -27.9600   12.8810  -21.4870 N   0  0  0  0  0  0  0  0  0  0  0  0
  -28.6370   12.8130  -22.2000 H   0  0  0  0  0  0  0  0  0  0  0  0
  -26.7920   12.0540  -21.6240 C   0  0  0  0  0  0  0  0  0  0  0  0
  -26.7080   11.3170  -22.6120 O   0  0  0  0  0  0  0  0  0  0  0  0
  -25.6580   12.0380  -20.6170 C   0  0  0  0  0  0  0  0  0  0  0  0
  -25.9840   14.7640  -20.5240 N   0  0  0  0  0  0  0  0  0  0  0  0
  -25.5900   15.5730  -20.0430 H   0  0  0  0  0  0  0  0  0  0  0  0
  -25.2350   14.1150  -20.7630 H   0  0  0  0  0  0  0  0  0  0  0  0
  -26.4540   15.0710  -21.3760 H   0  0  0  0  0  0  0  0  0  0  0  0
  -28.7040   15.8130  -16.7460 C   0  0  0  0  0  0  0  0  0  0  0  0
  -29.3530   15.3550  -15.6440 O   0  0  0  0  0  0  0  0  0  0  0  0
  -28.3230   16.9890  -16.7960 O   0  0  0  0  0  0  0  0  0  0  0  0
  -30.4550   12.6890  -20.0670 C   0  0  0  0  0  0  0  0  0  0  0  0
  -30.4000   11.6680  -20.7620 O   0  0  0  0  0  0  0  0  0  0  0  0
  -31.7110   13.3630  -19.9670 N   0  0  0  0  0  0  0  0  0  0  0  0
  -31.8750   14.6150  -19.2550 C   0  0  0  0  0  0  0  0  0  0  0  0
  -31.9710   15.7960  -20.2500 C   0  0  0  0  0  0  0  0  0  0  0  0
  -30.7240   16.6860  -20.1050 C   0  0  0  0  0  0  0  0  0  0  0  0
  -32.8510   12.7660  -20.6210 C   0  0  0  0  0  0  0  0  0  0  0  0
  -33.2420   11.4320  -19.9510 C   0  0  0  0  0  0  0  0  0  0  0  0
  -33.1290   11.5600  -18.4600 C   0  0  0  0  0  0  0  0  0  0  0  0
  -32.1050   10.9030  -17.7850 C   0  0  0  0  0  0  0  0  0  0  0  0
  -31.9950   11.0250  -16.4050 C   0  0  0  0  0  0  0  0  0  0  0  0
  -32.9060   11.8030  -15.7010 C   0  0  0  0  0  0  0  0  0  0  0  0
  -33.9280   12.4590  -16.3760 C   0  0  0  0  0  0  0  0  0  0  0  0
  -34.0400   12.3370  -17.7560 C   0  0  0  0  0  0  0  0  0  0  0  0
  -34.8450   13.2420  -15.6650 O   0  0  0  0  0  0  0  0  0  0  0  0
  -34.9720   12.7820  -14.3130 C   0  0  0  0  0  0  0  0  0  0  0  0
  1 16  1  0  0  0  0
  2  1  2  0  0  0  0
  3 12  1  6  0  0  0
  3  2  1  0  0  0  0
  4  7  1  6  0  0  0
  4  3  1  0  0  0  0
  4  5  1  0  0  0  0
  5 19  1  6  0  0  0
  5  6  1  0  0  0  0
  6  1  1  0  0  0  0
  8  7  1  0  0  0  0
  9  7  1  0  0  0  0
  9 11  1  0  0  0  0
 10  9  2  0  0  0  0
 12 13  1  0  0  0  0
 14 12  1  0  0  0  0
 15 12  1  0  0  0  0
 16 17  1  0  0  0  0
 18 16  2  0  0  0  0
 19 21  1  0  0  0  0
 20 19  2  0  0  0  0
 21 22  1  0  0  0  0
 23 24  1  0  0  0  0
 23 22  1  0  0  0  0
 25 21  1  0  0  0  0
 25 26  1  0  0  0  0
 26 27  1  0  0  0  0
 27 28  2  0  0  0  0
 27 32  1  0  0  0  0
 28 29  1  0  0  0  0
 29 30  2  0  0  0  0
 31 30  1  0  0  0  0
 31 33  1  0  0  0  0
 32 31  2  0  0  0  0
 33 34  1  0  0  0  0
M  END
>  <MODEL>
1

>  <REMARK>
 VINA RESULT:       0.3      0.000      0.000
  Name = BDB4965
                            x       y       z     vdW  Elec       q    Type
                         _______ _______ _______ _____ _____    ______ ____

>  <TORSDO>
F 10

>  <vina_score>
0.3

$$$$
BDB4968
 OpenBabel01041719383D

 34 35  0  0  1  0  0  0  0  0999 V2000
  -34.1940   11.8440  -15.4770 C   0  0  0  0  0  0  0  0  0  0  0  0
  -33.1530   11.1420  -15.0170 C   0  0  0  0  0  0  0  0  0  0  0  0
  -31.9620   10.8770  -15.8650 C   0  0  1  0  0  0  0  0  0  0  0  0
  -31.8390   11.9880  -16.8930 C   0  0  2  0  0  0  0  0  0  0  0  0
  -33.1510   11.9920  -17.6540 C   0  0  1  0  0  0  0  0  0  0  0  0
  -34.2480   12.3730  -16.7940 O   0  0  0  0  0  0  0  0  0  0  0  0
  -30.7360   11.6600  -17.8060 N   0  0  0  0  0  0  0  0  0  0  0  0
  -30.8650   10.8830  -18.3980 H   0  0  0  0  0  0  0  0  0  0  0  0
  -29.4860   12.3610  -17.9230 C   0  0  0  0  0  0  0  0  0  0  0  0
  -28.6590   11.9530  -18.7460 O   0  0  0  0  0  0  0  0  0  0  0  0
  -29.1280   13.5760  -17.0880 C   0  0  0  0  0  0  0  0  0  0  0  0
  -30.7480   10.8030  -15.0410 N   0  0  0  0  0  0  0  0  0  0  0  0
  -29.9260   10.8840  -15.6400 H   0  0  0  0  0  0  0  0  0  0  0  0
  -30.7500   11.5650  -14.3640 H   0  0  0  0  0  0  0  0  0  0  0  0
  -30.7240    9.9100  -14.5500 H   0  0  0  0  0  0  0  0  0  0  0  0
  -35.3130   12.1100  -14.5700 C   0  0  0  0  0  0  0  0  0  0  0  0
  -36.2540   11.1550  -14.3540 O   0  0  0  0  0  0  0  0  0  0  0  0
  -35.4010   13.2050  -14.0030 O   0  0  0  0  0  0  0  0  0  0  0  0
  -33.0850   12.9660  -18.8290 C   0  0  0  0  0  0  0  0  0  0  0  0
  -33.4900   14.1200  -18.6490 O   0  0  0  0  0  0  0  0  0  0  0  0
  -32.6050   12.6190  -20.1280 N   0  0  0  0  0  0  0  0  0  0  0  0
  -32.1060   11.2930  -20.4580 C   0  0  0  0  0  0  0  0  0  0  0  0
  -32.2800   10.9850  -21.9650 C   0  0  0  0  0  0  0  0  0  0  0  0
  -30.8910   10.8240  -22.6120 C   0  0  0  0  0  0  0  0  0  0  0  0
  -32.5950   13.6590  -21.1340 C   0  0  0  0  0  0  0  0  0  0  0  0
  -31.8350   14.9140  -20.6550 C   0  0  0  0  0  0  0  0  0  0  0  0
  -30.3570   14.6610  -20.6880 C   0  0  0  0  0  0  0  0  0  0  0  0
  -29.8650   13.5240  -21.3190 C   0  0  0  0  0  0  0  0  0  0  0  0
  -28.4970   13.2830  -21.3460 C   0  0  0  0  0  0  0  0  0  0  0  0
  -27.6210   14.1790  -20.7440 C   0  0  0  0  0  0  0  0  0  0  0  0
  -25.9300   13.8830  -20.7770 Cl  0  0  0  0  0  0  0  0  0  0  0  0
  -28.1130   15.3150  -20.1130 C   0  0  0  0  0  0  0  0  0  0  0  0
  -29.4810   15.5560  -20.0860 C   0  0  0  0  0  0  0  0  0  0  0  0
  -30.0890   16.9600  -19.3080 Cl  0  0  0  0  0  0  0  0  0  0  0  0
  1  2  2  0  0  0  0
  1 16  1  0  0  0  0
  3 12  1  1  0  0  0
  3  2  1  0  0  0  0
  4  7  1  6  0  0  0
  4  3  1  0  0  0  0
  5 19  1  6  0  0  0
  5  4  1  0  0  0  0
  5  6  1  0  0  0  0
  6  1  1  0  0  0  0
  8  7  1  0  0  0  0
  9  7  1  0  0  0  0
  9 11  1  0  0  0  0
 10  9  2  0  0  0  0
 12 15  1  0  0  0  0
 12 14  1  0  0  0  0
 13 12  1  0  0  0  0
 16 17  2  0  0  0  0
 16 18  1  0  0  0  0
 19 20  2  0  0  0  0
 21 19  1  0  0  0  0
 22 21  1  0  0  0  0
 23 22  1  0  0  0  0
 24 23  1  0  0  0  0
 25 26  1  0  0  0  0
 25 21  1  0  0  0  0
 27 26  1  0  0  0  0
 27 33  2  0  0  0  0
 28 27  1  0  0  0  0
 29 28  2  0  0  0  0
 29 30  1  0  0  0  0
 30 32  2  0  0  0  0
 31 30  1  0  0  0  0
 32 33  1  0  0  0  0
 33 34  1  0  0  0  0
M  END
>  <MODEL>
1

>  <REMARK>
 VINA RESULT:       2.3      0.000      0.000
  Name = BDB4968
                            x       y       z     vdW  Elec       q    Type
                         _______ _______ _______ _____ _____    ______ ____

>  <TORSDO>
F 9

>  <vina_score>
2.3

$$$$
BDB4972
 OpenBabel01041719383D

 38 40  0  0  1  0  0  0  0  0999 V2000
  -29.5170   15.0130  -20.1510 C   0  0  0  0  0  0  0  0  0  0  0  0
  -29.7000   16.0830  -19.5590 O   0  0  0  0  0  0  0  0  0  0  0  0
  -30.6640   14.3060  -20.6260 N   0  0  0  0  0  0  0  0  0  0  0  0
  -26.9110   12.5860  -21.1830 C   0  0  0  0  0  0  0  0  0  0  0  0
  -25.9500   12.7430  -20.2650 C   0  0  0  0  0  0  0  0  0  0  0  0
  -26.0390   13.7980  -19.2240 C   0  0  1  0  0  0  0  0  0  0  0  0
  -27.5030   14.1100  -18.9680 C   0  0  2  0  0  0  0  0  0  0  0  0
  -28.0770   14.5180  -20.3120 C   0  0  1  0  0  0  0  0  0  0  0  0
  -28.0670   13.4090  -21.2380 O   0  0  0  0  0  0  0  0  0  0  0  0
  -27.5860   15.2360  -18.0300 N   0  0  0  0  0  0  0  0  0  0  0  0
  -26.9750   15.9920  -18.1890 H   0  0  0  0  0  0  0  0  0  0  0  0
  -28.4700   15.3450  -16.9010 C   0  0  0  0  0  0  0  0  0  0  0  0
  -28.4110   16.3670  -16.2070 O   0  0  0  0  0  0  0  0  0  0  0  0
  -29.4700   14.2720  -16.5170 C   0  0  0  0  0  0  0  0  0  0  0  0
  -25.3860   13.3560  -17.9840 N   0  0  0  0  0  0  0  0  0  0  0  0
  -25.3080   12.3380  -17.9850 H   0  0  0  0  0  0  0  0  0  0  0  0
  -24.4550   13.7670  -17.9250 H   0  0  0  0  0  0  0  0  0  0  0  0
  -25.9410   13.6530  -17.1820 H   0  0  0  0  0  0  0  0  0  0  0  0
  -26.7830   11.4930  -22.1490 C   0  0  0  0  0  0  0  0  0  0  0  0
  -25.5520   11.0710  -22.5380 O   0  0  0  0  0  0  0  0  0  0  0  0
  -27.7960   10.9560  -22.6120 O   0  0  0  0  0  0  0  0  0  0  0  0
  -30.5800   13.0030  -21.2540 C   0  0  0  0  0  0  0  0  0  0  0  0
  -30.1630   11.9290  -20.2210 C   0  0  0  0  0  0  0  0  0  0  0  0
  -31.2280   10.8190  -20.1820 C   0  0  0  0  0  0  0  0  0  0  0  0
  -31.9570   14.9260  -20.4510 C   0  0  0  0  0  0  0  0  0  0  0  0
  -33.0320   14.2250  -21.3100 C   0  0  0  0  0  0  0  0  0  0  0  0
  -33.5840   13.0430  -20.5690 C   0  0  0  0  0  0  0  0  0  0  0  0
  -34.0830   11.9550  -21.2760 C   0  0  0  0  0  0  0  0  0  0  0  0
  -34.5900   10.8570  -20.5910 C   0  0  0  0  0  0  0  0  0  0  0  0
  -34.5960   10.8460  -19.2020 C   0  0  0  0  0  0  0  0  0  0  0  0
  -34.0960   11.9350  -18.4960 C   0  0  0  0  0  0  0  0  0  0  0  0
  -33.5900   13.0330  -19.1800 C   0  0  0  0  0  0  0  0  0  0  0  0
  -34.1030   11.9230  -17.0300 C   0  0  0  0  0  0  0  0  0  0  0  0
  -34.5920   13.0190  -16.3270 C   0  0  0  0  0  0  0  0  0  0  0  0
  -34.5990   13.0070  -14.9380 C   0  0  0  0  0  0  0  0  0  0  0  0
  -34.1170   11.8980  -14.2500 C   0  0  0  0  0  0  0  0  0  0  0  0
  -33.6290   10.8030  -14.9520 C   0  0  0  0  0  0  0  0  0  0  0  0
  -33.6210   10.8160  -16.3430 C   0  0  0  0  0  0  0  0  0  0  0  0
  1  2  2  0  0  0  0
  3 25  1  0  0  0  0
  3  1  1  0  0  0  0
  4  5  2  0  0  0  0
  5  6  1  0  0  0  0
  6  7  1  0  0  0  0
  6 15  1  1  0  0  0
  7 10  1  1  0  0  0
  8  1  1  1  0  0  0
  8  7  1  0  0  0  0
  9  4  1  0  0  0  0
  9  8  1  0  0  0  0
 10 12  1  0  0  0  0
 11 10  1  0  0  0  0
 12 14  1  0  0  0  0
 12 13  2  0  0  0  0
 15 17  1  0  0  0  0
 15 18  1  0  0  0  0
 16 15  1  0  0  0  0
 19  4  1  0  0  0  0
 20 19  1  0  0  0  0
 21 19  2  0  0  0  0
 22  3  1  0  0  0  0
 22 23  1  0  0  0  0
 23 24  1  0  0  0  0
 26 27  1  0  0  0  0
 26 25  1  0  0  0  0
 27 32  2  0  0  0  0
 28 29  2  0  0  0  0
 28 27  1  0  0  0  0
 29 30  1  0  0  0  0
 30 31  2  0  0  0  0
 31 33  1  0  0  0  0
 32 31  1  0  0  0  0
 33 38  2  0  0  0  0
 33 34  1  0  0  0  0
 34 35  2  0  0  0  0
 35 36  1  0  0  0  0
 37 36  2  0  0  0  0
 38 37  1  0  0  0  0
M  END
>  <MODEL>
1

>  <REMARK>
 VINA RESULT:       3.6      0.000      0.000
  Name = BDB4972
                            x       y       z     vdW  Elec       q    Type
                         _______ _______ _______ _____ _____    ______ ____

>  <TORSDO>
F 10

>  <vina_score>
3.6

$$$$
