BDB5244
 OpenBabel01041719573D

 30 30  0  0  1  0  0  0  0  0999 V2000
   10.2540   12.1550   -0.5300 C   0  0  2  0  0  0  0  0  0  0  0  0
    8.8800   12.7120   -0.8450 C   0  0  2  0  0  0  0  0  0  0  0  0
    7.8440   11.6780   -0.4240 C   0  0  0  0  0  0  0  0  0  0  0  0
    8.0860   11.3040    1.0120 C   0  0  0  0  0  0  0  0  0  0  0  0
    9.2400   11.4250    1.5460 N   0  0  0  0  0  0  0  0  0  0  0  0
   10.3210   11.8700    0.8740 N   0  0  0  0  0  0  0  0  0  0  0  0
   11.5400   12.0100    1.5460 C   0  0  0  0  0  0  0  0  0  0  0  0
   12.5490   12.3600    0.9220 O   0  0  0  0  0  0  0  0  0  0  0  0
   11.2850   13.1250   -0.8920 N   0  0  0  0  0  0  0  0  0  0  0  0
   12.0350   12.8080   -1.4470 H   0  0  0  0  0  0  0  0  0  0  0  0
   11.2860   14.4970   -0.5010 C   0  0  0  0  0  0  0  0  0  0  0  0
   12.2350   15.2120   -0.8450 O   0  0  0  0  0  0  0  0  0  0  0  0
   10.1690   15.1150    0.3080 C   0  0  0  0  0  0  0  0  0  0  0  0
    6.9790   10.7800    1.8100 C   0  0  0  0  0  0  0  0  0  0  0  0
    5.6970   10.9810    1.4060 O   0  0  0  0  0  0  0  0  0  0  0  0
    7.2090   10.1540    2.8500 O   0  0  0  0  0  0  0  0  0  0  0  0
    8.7600   12.9870   -2.2630 N   0  0  0  0  0  0  0  0  0  0  0  0
    8.9360   12.2590   -2.9020 H   0  0  0  0  0  0  0  0  0  0  0  0
    8.4020   14.2590   -2.7670 C   0  0  0  0  0  0  0  0  0  0  0  0
    7.5170   14.9400   -2.1610 N   0  0  0  0  0  0  0  0  0  0  0  0
    7.2590   15.8270   -2.5020 H   0  0  0  0  0  0  0  0  0  0  0  0
    7.0890   14.5820   -1.3500 H   0  0  0  0  0  0  0  0  0  0  0  0
    9.0020   14.7840   -3.9190 N   0  0  0  0  0  0  0  0  0  0  0  0
    8.9610   15.7520   -4.0970 H   0  0  0  0  0  0  0  0  0  0  0  0
    9.4630   14.1860   -4.5490 H   0  0  0  0  0  0  0  0  0  0  0  0
   11.6350   11.7280    3.0200 C   0  0  0  0  0  0  0  0  0  0  0  0
   11.0230   12.9070    3.8130 C   0  0  0  0  0  0  0  0  0  0  0  0
    9.7840   12.4290    4.5990 C   0  0  0  0  0  0  0  0  0  0  0  0
   13.1150   11.5360    3.4130 C   0  0  0  0  0  0  0  0  0  0  0  0
   13.6670   12.8390    4.0260 C   0  0  0  0  0  0  0  0  0  0  0  0
  1  9  1  1  0  0  0
  1  6  1  0  0  0  0
  2 17  1  6  0  0  0
  2  1  1  0  0  0  0
  2  3  1  0  0  0  0
  3  4  1  0  0  0  0
  4  5  2  0  0  0  0
  4 14  1  0  0  0  0
  6  7  1  0  0  0  0
  6  5  1  0  0  0  0
  7 26  1  0  0  0  0
  8  7  2  0  0  0  0
  9 11  1  0  0  0  0
 10  9  1  0  0  0  0
 11 13  1  0  0  0  0
 12 11  2  0  0  0  0
 14 16  1  0  0  0  0
 15 14  2  0  0  0  0
 18 17  1  0  0  0  0
 19 17  1  0  0  0  0
 19 20  1  0  0  0  0
 20 22  1  0  0  0  0
 21 20  1  0  0  0  0
 23 19  2  0  0  0  0
 24 23  1  0  0  0  0
 25 23  1  0  0  0  0
 26 29  1  0  0  0  0
 26 27  1  0  0  0  0
 27 28  1  0  0  0  0
 29 30  1  0  0  0  0
M  END
>  <MODEL>
1

>  <REMARK>
 VINA RESULT:      -7.7      0.000      0.000
  Name = BDB5244
                            x       y       z     vdW  Elec       q    Type
                         _______ _______ _______ _____ _____    ______ ____

>  <TORSDO>
F 8

>  <vina_score>
-7.7

$$$$
BDB4942
 OpenBabel01041719553D

 30 30  0  0  1  0  0  0  0  0999 V2000
    7.4610   11.4410    0.4730 C   0  0  0  0  0  0  0  0  0  0  0  0
    7.4260   12.0100   -0.7360 C   0  0  0  0  0  0  0  0  0  0  0  0
    8.6140   12.6980   -1.3040 C   0  0  1  0  0  0  0  0  0  0  0  0
    9.8660   12.0880   -0.6990 C   0  0  2  0  0  0  0  0  0  0  0  0
    9.7180   12.2480    0.8020 C   0  0  1  0  0  0  0  0  0  0  0  0
    8.6160   11.4580    1.3010 O   0  0  0  0  0  0  0  0  0  0  0  0
   11.0310   12.8500   -1.1680 N   0  0  0  0  0  0  0  0  0  0  0  0
   11.6930   12.3610   -1.7090 H   0  0  0  0  0  0  0  0  0  0  0  0
   11.3020   14.2400   -0.9150 C   0  0  0  0  0  0  0  0  0  0  0  0
   12.3340   14.7310   -1.3840 O   0  0  0  0  0  0  0  0  0  0  0  0
   10.3870   15.1340   -0.1010 C   0  0  0  0  0  0  0  0  0  0  0  0
    6.2700   10.7360    0.9500 C   0  0  0  0  0  0  0  0  0  0  0  0
    5.2330   10.5040    0.1030 O   0  0  0  0  0  0  0  0  0  0  0  0
    6.2070   10.3520    2.1240 O   0  0  0  0  0  0  0  0  0  0  0  0
   11.0020   11.8110    1.5160 C   0  0  0  0  0  0  0  0  0  0  0  0
   11.7080   10.9560    0.9670 O   0  0  0  0  0  0  0  0  0  0  0  0
   11.4240   12.3110    2.7860 N   0  0  0  0  0  0  0  0  0  0  0  0
   10.6200   13.2200    3.5720 C   0  0  0  0  0  0  0  0  0  0  0  0
    9.6840   12.4210    4.5050 C   0  0  0  0  0  0  0  0  0  0  0  0
   12.6760   11.8420    3.3210 C   0  0  0  0  0  0  0  0  0  0  0  0
   13.5680   13.0330    3.7330 C   0  0  0  0  0  0  0  0  0  0  0  0
    8.6350   12.5680   -2.7480 N   0  0  0  0  0  0  0  0  0  0  0  0
    8.2230   11.7720   -3.1560 H   0  0  0  0  0  0  0  0  0  0  0  0
    9.2230   13.5350   -3.5950 C   0  0  0  0  0  0  0  0  0  0  0  0
   10.0660   13.1640   -4.4700 N   0  0  0  0  0  0  0  0  0  0  0  0
   10.4810   13.8280   -5.0660 H   0  0  0  0  0  0  0  0  0  0  0  0
   10.3030   12.2120   -4.5530 H   0  0  0  0  0  0  0  0  0  0  0  0
    8.8970   14.8940   -3.4910 N   0  0  0  0  0  0  0  0  0  0  0  0
    9.0380   15.4950   -4.2570 H   0  0  0  0  0  0  0  0  0  0  0  0
    8.5260   15.2470   -2.6510 H   0  0  0  0  0  0  0  0  0  0  0  0
  1 12  1  0  0  0  0
  1  6  1  0  0  0  0
  2  1  2  0  0  0  0
  3 22  1  6  0  0  0
  3  2  1  0  0  0  0
  3  4  1  0  0  0  0
  4  7  1  6  0  0  0
  4  5  1  0  0  0  0
  5  6  1  0  0  0  0
  5 15  1  1  0  0  0
  7  9  1  0  0  0  0
  8  7  1  0  0  0  0
  9 11  1  0  0  0  0
 10  9  2  0  0  0  0
 12 14  1  0  0  0  0
 13 12  2  0  0  0  0
 15 17  1  0  0  0  0
 16 15  2  0  0  0  0
 17 20  1  0  0  0  0
 17 18  1  0  0  0  0
 18 19  1  0  0  0  0
 20 21  1  0  0  0  0
 23 22  1  0  0  0  0
 24 28  1  0  0  0  0
 24 22  1  0  0  0  0
 25 24  2  0  0  0  0
 26 25  1  0  0  0  0
 27 25  1  0  0  0  0
 28 30  1  0  0  0  0
 29 28  1  0  0  0  0
M  END
>  <MODEL>
1

>  <REMARK>
 VINA RESULT:      -7.5      0.000      0.000
  Name = BDB4942
                            x       y       z     vdW  Elec       q    Type
                         _______ _______ _______ _____ _____    ______ ____

>  <TORSDO>
F 8

>  <vina_score>
-7.5

$$$$
BDB4934
 OpenBabel01041719543D

 32 32  0  0  1  0  0  0  0  0999 V2000
   10.5130   12.7620   -0.3240 C   0  0  2  0  0  0  0  0  0  0  0  0
    9.1250   12.9550   -0.9060 C   0  0  2  0  0  0  0  0  0  0  0  0
    8.1650   12.1430   -0.1170 C   0  0  0  0  0  0  0  0  0  0  0  0
    8.3920   11.8460    1.1670 C   0  0  0  0  0  0  0  0  0  0  0  0
    9.5470   12.2850    1.8710 O   0  0  0  0  0  0  0  0  0  0  0  0
   10.4180   13.1730    1.1330 C   0  0  1  0  0  0  0  0  0  0  0  0
   11.4470   13.6490   -1.0310 N   0  0  0  0  0  0  0  0  0  0  0  0
   12.1740   13.2180   -1.5360 H   0  0  0  0  0  0  0  0  0  0  0  0
   11.4020   15.0870   -1.0590 C   0  0  0  0  0  0  0  0  0  0  0  0
   12.2680   15.6870   -1.7050 O   0  0  0  0  0  0  0  0  0  0  0  0
   10.3500   15.9050   -0.3370 C   0  0  0  0  0  0  0  0  0  0  0  0
    7.4230   11.0060    1.8730 C   0  0  0  0  0  0  0  0  0  0  0  0
    6.1070   11.0650    1.5420 O   0  0  0  0  0  0  0  0  0  0  0  0
    7.8020   10.2450    2.7700 O   0  0  0  0  0  0  0  0  0  0  0  0
    9.1010   12.5540   -2.3000 N   0  0  0  0  0  0  0  0  0  0  0  0
    9.0860   11.5940   -2.5140 H   0  0  0  0  0  0  0  0  0  0  0  0
    9.1000   13.4870   -3.3630 C   0  0  0  0  0  0  0  0  0  0  0  0
    9.6150   13.1580   -4.4770 N   0  0  0  0  0  0  0  0  0  0  0  0
    9.6200   13.7990   -5.2250 H   0  0  0  0  0  0  0  0  0  0  0  0
   10.0080   12.2630   -4.5930 H   0  0  0  0  0  0  0  0  0  0  0  0
    8.5460   14.7650   -3.2140 N   0  0  0  0  0  0  0  0  0  0  0  0
    9.1280   15.5340   -3.0180 H   0  0  0  0  0  0  0  0  0  0  0  0
    7.5740   14.8930   -3.3070 H   0  0  0  0  0  0  0  0  0  0  0  0
   11.8180   13.1540    1.7860 C   0  0  2  0  0  0  0  0  0  0  0  0
   12.6500   12.2290    1.0830 O   0  0  0  0  0  0  0  0  0  0  0  0
   12.5110   12.3280    0.1280 H   0  0  0  0  0  0  0  0  0  0  0  0
   11.7170   12.7220    3.2650 C   0  0  2  0  0  0  0  0  0  0  0  0
   11.1680   13.7830    4.0520 O   0  0  0  0  0  0  0  0  0  0  0  0
   10.8720   14.4990    3.4670 H   0  0  0  0  0  0  0  0  0  0  0  0
   13.1230   12.3810    3.7900 C   0  0  0  0  0  0  0  0  0  0  0  0
   13.9680   13.5280    3.6660 O   0  0  0  0  0  0  0  0  0  0  0  0
   14.6890   13.4690    4.3120 H   0  0  0  0  0  0  0  0  0  0  0  0
  1  7  1  6  0  0  0
  1  6  1  0  0  0  0
  2 15  1  6  0  0  0
  2  1  1  0  0  0  0
  2  3  1  0  0  0  0
  3  4  2  0  0  0  0
  4  5  1  0  0  0  0
  4 12  1  0  0  0  0
  6 24  1  0  0  0  0
  6  5  1  1  0  0  0
  8  7  1  0  0  0  0
  9  7  1  0  0  0  0
  9 11  1  0  0  0  0
 10  9  2  0  0  0  0
 12 14  1  0  0  0  0
 13 12  2  0  0  0  0
 16 15  1  0  0  0  0
 17 21  1  0  0  0  0
 17 15  1  0  0  0  0
 18 17  2  0  0  0  0
 19 18  1  0  0  0  0
 20 18  1  0  0  0  0
 21 22  1  0  0  0  0
 23 21  1  0  0  0  0
 24 25  1  6  0  0  0
 24 27  1  0  0  0  0
 26 25  1  0  0  0  0
 27 30  1  1  0  0  0
 27 28  1  0  0  0  0
 29 28  1  0  0  0  0
 31 30  1  0  0  0  0
 31 32  1  0  0  0  0
M  END
>  <MODEL>
1

>  <REMARK>
 VINA RESULT:      -7.4      0.000      0.000
  Name = BDB4934
                            x       y       z     vdW  Elec       q    Type
                         _______ _______ _______ _____ _____    ______ ____

>  <TORSDO>
F 11

>  <vina_score>
-7.4

$$$$
BDB4932
 OpenBabel01041719563D

 28 28  0  0  1  0  0  0  0  0999 V2000
    7.4280   11.4480    0.4070 C   0  0  0  0  0  0  0  0  0  0  0  0
    7.4180   12.0110   -0.8060 C   0  0  0  0  0  0  0  0  0  0  0  0
    8.6170   12.6970   -1.3510 C   0  0  1  0  0  0  0  0  0  0  0  0
    9.8570   12.0910   -0.7170 C   0  0  2  0  0  0  0  0  0  0  0  0
    9.6770   12.2580    0.7790 C   0  0  1  0  0  0  0  0  0  0  0  0
    8.5650   11.4710    1.2600 O   0  0  0  0  0  0  0  0  0  0  0  0
   11.0310   12.8500   -1.1650 N   0  0  0  0  0  0  0  0  0  0  0  0
   11.7040   12.3590   -1.6910 H   0  0  0  0  0  0  0  0  0  0  0  0
   11.2970   14.2410   -0.9120 C   0  0  0  0  0  0  0  0  0  0  0  0
   12.3390   14.7300   -1.3630 O   0  0  0  0  0  0  0  0  0  0  0  0
   10.3650   15.1390   -0.1210 C   0  0  0  0  0  0  0  0  0  0  0  0
   10.9430   11.8280    1.5220 C   0  0  0  0  0  0  0  0  0  0  0  0
   11.5900   10.8780    1.0740 O   0  0  0  0  0  0  0  0  0  0  0  0
   11.4040   12.4650    2.7130 N   0  0  0  0  0  0  0  0  0  0  0  0
   10.6950   13.5530    3.3410 C   0  0  0  0  0  0  0  0  0  0  0  0
   12.6140   11.9890    3.3220 C   0  0  0  0  0  0  0  0  0  0  0  0
    6.2270   10.7450    0.8630 C   0  0  0  0  0  0  0  0  0  0  0  0
    5.2380   10.4480   -0.0200 O   0  0  0  0  0  0  0  0  0  0  0  0
    6.1120   10.4240    2.0510 O   0  0  0  0  0  0  0  0  0  0  0  0
    8.6690   12.5590   -2.7940 N   0  0  0  0  0  0  0  0  0  0  0  0
    8.3000   11.7430   -3.2030 H   0  0  0  0  0  0  0  0  0  0  0  0
    9.2280   13.5460   -3.6380 C   0  0  0  0  0  0  0  0  0  0  0  0
   10.0940   13.2070   -4.5020 N   0  0  0  0  0  0  0  0  0  0  0  0
   10.4900   13.8850   -5.0950 H   0  0  0  0  0  0  0  0  0  0  0  0
   10.3700   12.2640   -4.5800 H   0  0  0  0  0  0  0  0  0  0  0  0
    8.8470   14.8910   -3.5410 N   0  0  0  0  0  0  0  0  0  0  0  0
    8.7640   15.3180   -2.6580 H   0  0  0  0  0  0  0  0  0  0  0  0
    8.6620   15.4100   -4.3570 H   0  0  0  0  0  0  0  0  0  0  0  0
  1 17  1  0  0  0  0
  1  6  1  0  0  0  0
  2  1  2  0  0  0  0
  3 20  1  6  0  0  0
  3  2  1  0  0  0  0
  3  4  1  0  0  0  0
  4  7  1  6  0  0  0
  4  5  1  0  0  0  0
  5  6  1  0  0  0  0
  5 12  1  1  0  0  0
  7  9  1  0  0  0  0
  8  7  1  0  0  0  0
  9 11  1  0  0  0  0
 10  9  2  0  0  0  0
 12 14  1  0  0  0  0
 13 12  2  0  0  0  0
 14 16  1  0  0  0  0
 14 15  1  0  0  0  0
 17 19  1  0  0  0  0
 18 17  2  0  0  0  0
 21 20  1  0  0  0  0
 22 26  1  0  0  0  0
 22 20  1  0  0  0  0
 23 22  2  0  0  0  0
 24 23  1  0  0  0  0
 25 23  1  0  0  0  0
 26 27  1  0  0  0  0
 28 26  1  0  0  0  0
M  END
>  <MODEL>
1

>  <REMARK>
 VINA RESULT:      -7.4      0.000      0.000
  Name = BDB4932
                            x       y       z     vdW  Elec       q    Type
                         _______ _______ _______ _____ _____    ______ ____

>  <TORSDO>
F 6

>  <vina_score>
-7.4

$$$$
BDB4977
 OpenBabel01041719573D

 27 28  0  0  1  0  0  0  0  0999 V2000
   10.6530   12.5260    1.0130 C   0  0  1  0  0  0  0  0  0  0  0  0
   10.7070   13.0310    2.5130 C   0  0  1  0  0  0  0  0  0  0  0  0
    9.3840   13.7190    2.8670 C   0  0  2  0  0  0  0  0  0  0  0  0
    8.2410   12.8280    2.4490 C   0  0  0  0  0  0  0  0  0  0  0  0
    8.3740   11.8880    1.4870 C   0  0  0  0  0  0  0  0  0  0  0  0
    9.5840   11.6250    0.7890 O   0  0  0  0  0  0  0  0  0  0  0  0
   10.6290   13.7110   -0.0070 C   0  0  0  0  0  0  0  0  0  0  0  0
    9.9900   13.7650   -1.3500 N   0  0  0  0  0  0  0  0  0  0  0  0
   10.2890   14.8660   -2.2220 C   0  0  1  0  0  0  0  0  0  0  0  0
   11.7100   14.6600   -2.7830 C   0  0  0  0  0  0  0  0  0  0  0  0
    9.2750   14.6770   -3.3630 C   0  0  0  0  0  0  0  0  0  0  0  0
    9.3830   13.1600   -3.5210 C   0  0  0  0  0  0  0  0  0  0  0  0
    9.1510   12.7660   -2.0520 C   0  0  2  0  0  0  0  0  0  0  0  0
    7.6340   13.0080   -1.8200 C   0  0  0  0  0  0  0  0  0  0  0  0
   11.2850   14.7050    0.3180 O   0  0  0  0  0  0  0  0  0  0  0  0
   11.0790   12.0300    3.6030 N   0  0  0  0  0  0  0  0  0  0  0  0
   10.6300   12.2000    4.4630 H   0  0  0  0  0  0  0  0  0  0  0  0
   11.9650   10.8720    3.6280 C   0  0  0  0  0  0  0  0  0  0  0  0
   11.8970   10.1530    4.6310 O   0  0  0  0  0  0  0  0  0  0  0  0
   12.9910   10.5000    2.6170 C   0  0  0  0  0  0  0  0  0  0  0  0
    9.2630   15.0530    2.2340 N   0  0  0  0  0  0  0  0  0  0  0  0
   10.1870   15.3840    1.9570 H   0  0  0  0  0  0  0  0  0  0  0  0
    8.6650   14.9860    1.4110 H   0  0  0  0  0  0  0  0  0  0  0  0
    8.8530   15.7080    2.9000 H   0  0  0  0  0  0  0  0  0  0  0  0
    7.2430   11.0270    1.1530 C   0  0  0  0  0  0  0  0  0  0  0  0
    6.0550   11.1740    1.7750 O   0  0  0  0  0  0  0  0  0  0  0  0
    7.3850   10.1530    0.2840 O   0  0  0  0  0  0  0  0  0  0  0  0
  1  7  1  6  0  0  0
  1  2  1  0  0  0  0
  2  3  1  0  0  0  0
  2 16  1  1  0  0  0
  3 21  1  6  0  0  0
  4  3  1  0  0  0  0
  5  4  2  0  0  0  0
  6  1  1  0  0  0  0
  6  5  1  0  0  0  0
  7 15  2  0  0  0  0
  8  7  1  0  0  0  0
  9 10  1  6  0  0  0
  9  8  1  0  0  0  0
 11  9  1  0  0  0  0
 12 11  1  0  0  0  0
 12 13  1  0  0  0  0
 13 14  1  1  0  0  0
 13  8  1  0  0  0  0
 16 18  1  0  0  0  0
 16 17  1  0  0  0  0
 18 19  2  0  0  0  0
 20 18  1  0  0  0  0
 21 24  1  0  0  0  0
 22 21  1  0  0  0  0
 23 21  1  0  0  0  0
 25  5  1  0  0  0  0
 25 26  1  0  0  0  0
 27 25  2  0  0  0  0
M  END
>  <MODEL>
1

>  <REMARK>
 VINA RESULT:      -7.0      0.000      0.000
  Name = BDB4977
                            x       y       z     vdW  Elec       q    Type
                         _______ _______ _______ _____ _____    ______ ____

>  <TORSDO>
F 4

>  <vina_score>
-7.0

$$$$
BDB5015
 OpenBabel01041719553D

 25 25  0  0  1  0  0  0  0  0999 V2000
    9.6260   13.0290   -0.1190 C   0  0  1  0  0  0  0  0  0  0  0  0
   10.3010   13.0200    1.3070 C   0  0  1  0  0  0  0  0  0  0  0  0
    9.2850   13.1030    2.4880 C   0  0  2  0  0  0  0  0  0  0  0  0
    8.3330   11.9170    2.3840 C   0  0  0  0  0  0  0  0  0  0  0  0
    7.7710   11.7000    0.9490 C   0  0  0  0  0  0  0  0  0  0  0  0
    8.3740   12.1840   -0.1690 C   0  0  0  0  0  0  0  0  0  0  0  0
    7.8540   11.9170   -1.3730 F   0  0  0  0  0  0  0  0  0  0  0  0
   11.2380   11.8450    1.5890 N   0  0  0  0  0  0  0  0  0  0  0  0
   10.9260   10.9900    1.2150 H   0  0  0  0  0  0  0  0  0  0  0  0
   12.5140   11.7430    2.3090 C   0  0  0  0  0  0  0  0  0  0  0  0
   13.1260   10.6750    2.1870 O   0  0  0  0  0  0  0  0  0  0  0  0
   13.1170   12.7550    3.2380 C   0  0  0  0  0  0  0  0  0  0  0  0
    8.4810   14.2880    2.5560 N   0  0  0  0  0  0  0  0  0  0  0  0
    7.8740   14.3350    1.7380 H   0  0  0  0  0  0  0  0  0  0  0  0
    7.9110   14.2660    3.4020 H   0  0  0  0  0  0  0  0  0  0  0  0
    9.0860   15.1090    2.5760 H   0  0  0  0  0  0  0  0  0  0  0  0
    6.5690   10.8590    0.8110 C   0  0  0  0  0  0  0  0  0  0  0  0
    5.5740   10.8830    1.7370 O   0  0  0  0  0  0  0  0  0  0  0  0
    6.4390   10.1530   -0.1980 O   0  0  0  0  0  0  0  0  0  0  0  0
    9.3380   14.3770   -0.7200 O   0  0  0  0  0  0  0  0  0  0  0  0
    9.8780   14.7270   -2.0070 C   0  0  0  0  0  0  0  0  0  0  0  0
   11.2210   13.9790   -2.2400 C   0  0  0  0  0  0  0  0  0  0  0  0
   12.3810   14.7090   -1.5460 C   0  0  0  0  0  0  0  0  0  0  0  0
    8.8800   14.3420   -3.1200 C   0  0  0  0  0  0  0  0  0  0  0  0
    9.4510   13.1710   -3.9520 C   0  0  0  0  0  0  0  0  0  0  0  0
  1 20  1  1  0  0  0
  1  2  1  0  0  0  0
  2  8  1  1  0  0  0
  2  3  1  0  0  0  0
  3 13  1  6  0  0  0
  4  3  1  0  0  0  0
  5  4  1  0  0  0  0
  6  1  1  0  0  0  0
  6  5  2  0  0  0  0
  7  6  1  0  0  0  0
  8 10  1  0  0  0  0
  9  8  1  0  0  0  0
 10 12  1  0  0  0  0
 11 10  2  0  0  0  0
 13 16  1  0  0  0  0
 13 15  1  0  0  0  0
 14 13  1  0  0  0  0
 17  5  1  0  0  0  0
 17 18  1  0  0  0  0
 19 17  2  0  0  0  0
 21 20  1  0  0  0  0
 22 21  1  0  0  0  0
 22 23  1  0  0  0  0
 24 21  1  0  0  0  0
 25 24  1  0  0  0  0
M  END
>  <MODEL>
1

>  <REMARK>
 VINA RESULT:      -6.9      0.000      0.000
  Name = BDB5015
                            x       y       z     vdW  Elec       q    Type
                         _______ _______ _______ _____ _____    ______ ____

>  <TORSDO>
F 7

>  <vina_score>
-6.9

$$$$
BDB5232
 OpenBabel01041719563D

 26 26  0  0  1  0  0  0  0  0999 V2000
    8.0970   12.1240    0.1010 C   0  0  0  0  0  0  0  0  0  0  0  0
    7.6440   11.6260    1.2750 C   0  0  0  0  0  0  0  0  0  0  0  0
    8.3730   11.8200    2.6300 C   0  0  0  0  0  0  0  0  0  0  0  0
    9.2520   13.0660    2.6280 C   0  0  1  0  0  0  0  0  0  0  0  0
   10.1400   13.0120    1.3250 C   0  0  2  0  0  0  0  0  0  0  0  0
    9.3380   12.9840   -0.0410 C   0  0  2  0  0  0  0  0  0  0  0  0
   11.1250   11.8620    1.5470 N   0  0  0  0  0  0  0  0  0  0  0  0
   10.8200   11.0020    1.1790 H   0  0  0  0  0  0  0  0  0  0  0  0
   12.4390   11.7960    2.2030 C   0  0  0  0  0  0  0  0  0  0  0  0
   13.0590   10.7330    2.0770 O   0  0  0  0  0  0  0  0  0  0  0  0
   13.0870   12.8470    3.0550 C   0  0  0  0  0  0  0  0  0  0  0  0
    8.3650   14.2040    2.8290 N   0  0  0  0  0  0  0  0  0  0  0  0
    8.3780   14.4760    3.8110 H   0  0  0  0  0  0  0  0  0  0  0  0
    8.6810   14.9860    2.2550 H   0  0  0  0  0  0  0  0  0  0  0  0
    7.4150   13.9460    2.5600 H   0  0  0  0  0  0  0  0  0  0  0  0
    6.4630   10.7760    1.2190 C   0  0  0  0  0  0  0  0  0  0  0  0
    5.8580   10.5380    0.0280 O   0  0  0  0  0  0  0  0  0  0  0  0
    5.9910   10.3080    2.2570 O   0  0  0  0  0  0  0  0  0  0  0  0
    9.0120   14.3960   -0.6270 N   0  0  0  0  0  0  0  0  0  0  0  0
    8.1680   14.6550   -0.1160 H   0  0  0  0  0  0  0  0  0  0  0  0
   10.1180   15.3840   -0.3880 C   0  0  0  0  0  0  0  0  0  0  0  0
   11.1440   15.4970   -1.5430 C   0  0  0  0  0  0  0  0  0  0  0  0
   12.3870   14.6540   -1.2010 C   0  0  0  0  0  0  0  0  0  0  0  0
    8.7000   14.4260   -2.0400 C   0  0  0  0  0  0  0  0  0  0  0  0
    8.6970   13.0380   -2.6880 C   0  0  0  0  0  0  0  0  0  0  0  0
    9.4920   13.1260   -4.0060 C   0  0  0  0  0  0  0  0  0  0  0  0
  1  2  2  0  0  0  0
  2  3  1  0  0  0  0
  4  3  1  0  0  0  0
  4 12  1  6  0  0  0
  5  7  1  1  0  0  0
  5  4  1  0  0  0  0
  6 19  1  1  0  0  0
  6  1  1  0  0  0  0
  6  5  1  0  0  0  0
  7  9  1  0  0  0  0
  8  7  1  0  0  0  0
  9 11  1  0  0  0  0
 10  9  2  0  0  0  0
 12 13  1  0  0  0  0
 14 12  1  0  0  0  0
 15 12  1  0  0  0  0
 16  2  1  0  0  0  0
 16 18  1  0  0  0  0
 17 16  2  0  0  0  0
 19 21  1  0  0  0  0
 19 20  1  0  0  0  0
 22 23  1  0  0  0  0
 22 21  1  0  0  0  0
 24 19  1  0  0  0  0
 25 24  1  0  0  0  0
 26 25  1  0  0  0  0
M  END
>  <MODEL>
1

>  <REMARK>
 VINA RESULT:      -6.9      0.000      0.000
  Name = BDB5232
                            x       y       z     vdW  Elec       q    Type
                         _______ _______ _______ _____ _____    ______ ____

>  <TORSDO>
F 8

>  <vina_score>
-6.9

$$$$
BDB5023
 OpenBabel01041719543D

 28 28  0  0  1  0  0  0  0  0999 V2000
    7.4980   10.8080   -0.0690 C   0  0  0  0  0  0  0  0  0  0  0  0
    8.2120   10.1530    1.1660 C   0  0  1  0  0  0  0  0  0  0  0  0
    9.4270   11.0900    1.4220 C   0  0  0  0  0  0  0  0  0  0  0  0
    8.8370   12.4410    1.0410 C   0  0  2  0  0  0  0  0  0  0  0  0
    8.3270   12.0790   -0.3310 C   0  0  2  0  0  0  0  0  0  0  0  0
    7.2820   10.3200    2.3370 C   0  0  0  0  0  0  0  0  0  0  0  0
    6.0780   10.5190    2.1450 O   0  0  0  0  0  0  0  0  0  0  0  0
    7.7670   10.2500    3.6040 O   0  0  0  0  0  0  0  0  0  0  0  0
    7.5560   13.1310   -0.9650 N   0  0  0  0  0  0  0  0  0  0  0  0
    6.7240   13.4310   -0.5340 H   0  0  0  0  0  0  0  0  0  0  0  0
    7.9500   13.7430   -2.1770 C   0  0  0  0  0  0  0  0  0  0  0  0
    7.7790   14.9940   -2.3240 N   0  0  0  0  0  0  0  0  0  0  0  0
    8.0500   15.4310   -3.1640 H   0  0  0  0  0  0  0  0  0  0  0  0
    7.3760   15.5240   -1.6000 H   0  0  0  0  0  0  0  0  0  0  0  0
    8.5240   13.0020   -3.2180 N   0  0  0  0  0  0  0  0  0  0  0  0
    9.1650   13.4300   -3.8310 H   0  0  0  0  0  0  0  0  0  0  0  0
    8.2880   12.0530   -3.3360 H   0  0  0  0  0  0  0  0  0  0  0  0
    9.9280   13.5660    0.9740 C   0  0  1  0  0  0  0  0  0  0  0  0
    9.7340   14.5060    2.0480 N   0  0  0  0  0  0  0  0  0  0  0  0
    9.6490   14.1730    2.9700 H   0  0  0  0  0  0  0  0  0  0  0  0
    9.6630   15.8900    1.8050 C   0  0  0  0  0  0  0  0  0  0  0  0
    9.5290   16.6680    2.7530 O   0  0  0  0  0  0  0  0  0  0  0  0
    9.7350   16.4280    0.4010 C   0  0  0  0  0  0  0  0  0  0  0  0
   11.4320   13.0530    0.8680 C   0  0  0  0  0  0  0  0  0  0  0  0
   12.3260   13.7720   -0.1910 C   0  0  0  0  0  0  0  0  0  0  0  0
   11.7160   13.6910   -1.6060 C   0  0  0  0  0  0  0  0  0  0  0  0
   12.0970   13.1650    2.2550 C   0  0  0  0  0  0  0  0  0  0  0  0
   12.9070   11.8860    2.5500 C   0  0  0  0  0  0  0  0  0  0  0  0
  1  2  1  0  0  0  0
  2  3  1  0  0  0  0
  2  6  1  1  0  0  0
  4  3  1  6  0  0  0
  5  9  1  1  0  0  0
  5  1  1  0  0  0  0
  5  4  1  0  0  0  0
  6  8  1  0  0  0  0
  7  6  2  0  0  0  0
  9 10  1  0  0  0  0
 11  9  1  0  0  0  0
 12 11  1  0  0  0  0
 12 14  1  0  0  0  0
 13 12  1  0  0  0  0
 15 11  2  0  0  0  0
 16 15  1  0  0  0  0
 17 15  1  0  0  0  0
 18 24  1  1  0  0  0
 18  4  1  0  0  0  0
 18 19  1  0  0  0  0
 19 20  1  0  0  0  0
 21 19  1  0  0  0  0
 21 22  2  0  0  0  0
 23 21  1  0  0  0  0
 24 27  1  0  0  0  0
 25 24  1  0  0  0  0
 26 25  1  0  0  0  0
 27 28  1  0  0  0  0
M  END
>  <MODEL>
1

>  <REMARK>
 VINA RESULT:      -6.7      0.000      0.000
  Name = BDB5023
                            x       y       z     vdW  Elec       q    Type
                         _______ _______ _______ _____ _____    ______ ____

>  <TORSDO>
F 9

>  <vina_score>
-6.7

$$$$
BDB5234
 OpenBabel01041719553D

 26 26  0  0  1  0  0  0  0  0999 V2000
    8.2620   12.3120    0.0670 C   0  0  0  0  0  0  0  0  0  0  0  0
    7.6960   11.7350    1.1500 C   0  0  0  0  0  0  0  0  0  0  0  0
    8.2870   11.8320    2.5650 C   0  0  0  0  0  0  0  0  0  0  0  0
    9.1990   13.0450    2.7370 C   0  0  1  0  0  0  0  0  0  0  0  0
   10.1980   13.1010    1.5400 C   0  0  2  0  0  0  0  0  0  0  0  0
    9.4950   13.1760    0.1080 C   0  0  2  0  0  0  0  0  0  0  0  0
   11.1550   11.9150    1.7530 N   0  0  0  0  0  0  0  0  0  0  0  0
   10.8280   11.0690    1.3720 H   0  0  0  0  0  0  0  0  0  0  0  0
   12.4670   11.8000    2.4200 C   0  0  0  0  0  0  0  0  0  0  0  0
   13.0890   10.7500    2.2260 O   0  0  0  0  0  0  0  0  0  0  0  0
   13.0960   12.7800    3.3690 C   0  0  0  0  0  0  0  0  0  0  0  0
    8.3720   14.1720    2.8670 N   0  0  0  0  0  0  0  0  0  0  0  0
    7.4090   13.8710    3.0150 H   0  0  0  0  0  0  0  0  0  0  0  0
    8.6810   14.7290    3.6650 H   0  0  0  0  0  0  0  0  0  0  0  0
    8.4270   14.7340    2.0190 H   0  0  0  0  0  0  0  0  0  0  0  0
    6.5250   10.9010    0.9110 C   0  0  0  0  0  0  0  0  0  0  0  0
    6.4500   10.1530   -0.2200 O   0  0  0  0  0  0  0  0  0  0  0  0
    5.5950   10.9000    1.7160 O   0  0  0  0  0  0  0  0  0  0  0  0
    9.0750   14.5250   -0.5890 N   0  0  0  0  0  0  0  0  0  0  0  0
    8.0810   14.3670   -0.7520 H   0  0  0  0  0  0  0  0  0  0  0  0
    9.3780   15.2700    0.0380 H   0  0  0  0  0  0  0  0  0  0  0  0
    9.5490   14.9260   -1.9740 C   0  0  0  0  0  0  0  0  0  0  0  0
   11.0170   14.5040   -2.3120 C   0  0  0  0  0  0  0  0  0  0  0  0
   12.0600   15.3370   -1.5380 C   0  0  0  0  0  0  0  0  0  0  0  0
    8.6540   14.2290   -3.0200 C   0  0  0  0  0  0  0  0  0  0  0  0
    9.4690   13.1440   -3.7660 C   0  0  0  0  0  0  0  0  0  0  0  0
  1  6  1  0  0  0  0
  1  2  2  0  0  0  0
  2  3  1  0  0  0  0
  3  4  1  0  0  0  0
  4 12  1  6  0  0  0
  5  7  1  6  0  0  0
  5  4  1  0  0  0  0
  6 19  1  1  0  0  0
  6  5  1  0  0  0  0
  7  9  1  0  0  0  0
  8  7  1  0  0  0  0
  9 11  1  0  0  0  0
 10  9  2  0  0  0  0
 12 13  1  0  0  0  0
 12 14  1  0  0  0  0
 15 12  1  0  0  0  0
 16  2  1  0  0  0  0
 16 18  1  0  0  0  0
 17 16  2  0  0  0  0
 19 21  1  0  0  0  0
 20 19  1  0  0  0  0
 22 19  1  0  0  0  0
 23 22  1  0  0  0  0
 23 24  1  0  0  0  0
 25 22  1  0  0  0  0
 26 25  1  0  0  0  0
M  END
>  <MODEL>
1

>  <REMARK>
 VINA RESULT:      -6.7      0.000      0.000
  Name = BDB5234
                            x       y       z     vdW  Elec       q    Type
                         _______ _______ _______ _____ _____    ______ ____

>  <TORSDO>
F 7

>  <vina_score>
-6.7

$$$$
BDB5198
 OpenBabel01041719533D

 25 26  0  0  1  0  0  0  0  0999 V2000
    7.9290   11.1810   -0.2750 C   0  0  0  0  0  0  0  0  0  0  0  0
    9.1500   11.9900    0.0750 C   0  0  2  0  0  0  0  0  0  0  0  0
    8.4710   13.0780    0.8960 C   0  0  1  0  0  0  0  0  0  0  0  0
    7.5850   12.3310    1.8290 N   0  0  0  0  0  0  0  0  0  0  0  0
    6.7090   12.8200    2.0140 H   0  0  0  0  0  0  0  0  0  0  0  0
    8.0360   12.2070    2.7350 H   0  0  0  0  0  0  0  0  0  0  0  0
    7.3750   11.0090    1.1520 C   0  0  1  0  0  0  0  0  0  0  0  0
    9.8400   12.5540   -1.1370 C   0  0  0  0  0  0  0  0  0  0  0  0
    9.0050   13.0830   -2.4770 S   0  0  0  0  0  0  0  0  0  0  0  0
   10.4310   13.5070   -3.2510 C   0  0  0  0  0  0  0  0  0  0  0  0
   11.5110   13.2130   -2.4200 C   0  0  0  0  0  0  0  0  0  0  0  0
   11.1520   12.6830   -1.2500 N   0  0  0  0  0  0  0  0  0  0  0  0
    5.9390   10.5720    1.1550 C   0  0  0  0  0  0  0  0  0  0  0  0
    5.2330   10.5500   -0.0050 O   0  0  0  0  0  0  0  0  0  0  0  0
    5.3980   10.2370    2.2150 O   0  0  0  0  0  0  0  0  0  0  0  0
    8.8300   13.5390    2.3790 C   0  0  1  0  0  0  0  0  0  0  0  0
    8.9840   12.2320    3.1410 N   0  0  0  0  0  0  0  0  0  0  0  0
    8.0870   11.8290    3.1860 H   0  0  0  0  0  0  0  0  0  0  0  0
    9.8510   11.3440    3.8100 C   0  0  0  0  0  0  0  0  0  0  0  0
    9.6050   11.0150    4.9720 O   0  0  0  0  0  0  0  0  0  0  0  0
   11.0680   10.7830    3.1190 C   0  0  0  0  0  0  0  0  0  0  0  0
   10.3720   14.1470    2.2980 C   0  0  0  0  0  0  0  0  0  0  0  0
    9.4790   15.2700    1.6860 C   0  0  0  0  0  0  0  0  0  0  0  0
    9.3290   16.4710    2.6440 C   0  0  0  0  0  0  0  0  0  0  0  0
   10.1360   15.7660    0.3870 C   0  0  0  0  0  0  0  0  0  0  0  0
  1  2  1  0  0  0  0
  1  7  1  0  0  0  0
  2  8  1  6  0  0  0
  2  3  1  0  0  0  0
  3  4  1  1  0  0  0
  3 16  1  0  0  0  0
  4  5  1  0  0  0  0
  4  6  1  0  0  0  0
  7 13  1  6  0  0  0
  7  4  1  0  0  0  0
  9  8  1  0  0  0  0
 10  9  1  0  0  0  0
 10 11  2  0  0  0  0
 11 12  1  0  0  0  0
 12  8  2  0  0  0  0
 13 15  1  0  0  0  0
 14 13  2  0  0  0  0
 16 22  1  6  0  0  0
 16 17  1  0  0  0  0
 17 18  1  0  0  0  0
 17 19  1  0  0  0  0
 19 20  2  0  0  0  0
 21 19  1  0  0  0  0
 23 22  1  0  0  0  0
 23 24  1  0  0  0  0
 25 23  1  0  0  0  0
M  END
>  <MODEL>
1

>  <REMARK>
 VINA RESULT:      -6.7      0.000      0.000
  Name = BDB5198
                            x       y       z     vdW  Elec       q    Type
                         _______ _______ _______ _____ _____    ______ ____

>  <TORSDO>
F 6

>  <vina_score>
-6.7

$$$$
BDB5003
 OpenBabel01041719553D

 30 31  0  0  1  0  0  0  0  0999 V2000
   10.5690   12.5000    1.4950 C   0  0  0  0  0  0  0  0  0  0  0  0
   11.2430   12.4470    2.6600 C   0  0  0  0  0  0  0  0  0  0  0  0
   10.5940   12.6940    4.0580 C   0  0  0  0  0  0  0  0  0  0  0  0
    9.0750   12.5500    4.0460 C   0  0  1  0  0  0  0  0  0  0  0  0
    8.5020   13.2610    2.7840 C   0  0  2  0  0  0  0  0  0  0  0  0
    9.0850   12.7100    1.3940 C   0  0  2  0  0  0  0  0  0  0  0  0
    8.6340   14.7750    3.0220 N   0  0  0  0  0  0  0  0  0  0  0  0
    8.1510   15.0920    3.8200 H   0  0  0  0  0  0  0  0  0  0  0  0
    9.3410   15.8460    2.2940 C   0  0  0  0  0  0  0  0  0  0  0  0
    9.5130   16.9030    2.9120 O   0  0  0  0  0  0  0  0  0  0  0  0
    9.7740   15.8430    0.8560 C   0  0  0  0  0  0  0  0  0  0  0  0
    8.7960   11.1850    4.1250 N   0  0  0  0  0  0  0  0  0  0  0  0
    9.4880   10.7310    4.7220 H   0  0  0  0  0  0  0  0  0  0  0  0
    7.8650   11.0500    4.5180 H   0  0  0  0  0  0  0  0  0  0  0  0
    8.8330   10.7770    3.1900 H   0  0  0  0  0  0  0  0  0  0  0  0
   12.6850   12.2710    2.5860 C   0  0  0  0  0  0  0  0  0  0  0  0
   13.5090   13.1540    3.1970 O   0  0  0  0  0  0  0  0  0  0  0  0
   13.1560   11.3410    1.9200 O   0  0  0  0  0  0  0  0  0  0  0  0
    8.4740   11.4530    0.7360 O   0  0  0  0  0  0  0  0  0  0  0  0
    7.9170   11.4950   -0.6210 C   0  0  1  0  0  0  0  0  0  0  0  0
    6.4330   11.0010   -0.6620 C   0  0  0  0  0  0  0  0  0  0  0  0
    6.0380   10.3030    0.6490 C   0  0  0  0  0  0  0  0  0  0  0  0
    7.8650   12.9020   -1.1980 C   0  0  0  0  0  0  0  0  0  0  0  0
    8.8450   12.8170   -2.3940 C   0  0  0  0  0  0  0  0  0  0  0  0
   10.1230   13.5220   -2.1320 C   0  0  0  0  0  0  0  0  0  0  0  0
   10.1970   14.8980   -2.4080 C   0  0  0  0  0  0  0  0  0  0  0  0
   11.3560   15.5900   -2.1280 C   0  0  0  0  0  0  0  0  0  0  0  0
   12.4520   14.9230   -1.5770 C   0  0  0  0  0  0  0  0  0  0  0  0
   12.3760   13.5670   -1.3090 C   0  0  0  0  0  0  0  0  0  0  0  0
   11.1980   12.8670   -1.5840 C   0  0  0  0  0  0  0  0  0  0  0  0
  1  2  2  0  0  0  0
  2  3  1  0  0  0  0
  4  3  1  0  0  0  0
  4 12  1  6  0  0  0
  5  7  1  1  0  0  0
  5  4  1  0  0  0  0
  6 19  1  1  0  0  0
  6  1  1  0  0  0  0
  6  5  1  0  0  0  0
  7  8  1  0  0  0  0
  9 10  2  0  0  0  0
  9  7  1  0  0  0  0
 11  9  1  0  0  0  0
 12 14  1  0  0  0  0
 12 13  1  0  0  0  0
 15 12  1  0  0  0  0
 16  2  1  0  0  0  0
 16 17  1  0  0  0  0
 18 16  2  0  0  0  0
 20 23  1  1  0  0  0
 20 19  1  0  0  0  0
 21 20  1  0  0  0  0
 21 22  1  0  0  0  0
 24 25  1  0  0  0  0
 24 23  1  0  0  0  0
 25 30  1  0  0  0  0
 26 25  2  0  0  0  0
 26 27  1  0  0  0  0
 27 28  2  0  0  0  0
 28 29  1  0  0  0  0
 30 29  2  0  0  0  0
M  END
>  <MODEL>
1

>  <REMARK>
 VINA RESULT:      -6.7      0.000      0.000
  Name = BDB5003
                            x       y       z     vdW  Elec       q    Type
                         _______ _______ _______ _____ _____    ______ ____

>  <TORSDO>
F 9

>  <vina_score>
-6.7

$$$$
BDB5009
 OpenBabel01041719553D

 27 27  0  0  1  0  0  0  0  0999 V2000
    9.4190   13.8010    0.2970 C   0  0  0  0  0  0  0  0  0  0  0  0
    9.6450   14.3560    1.5040 C   0  0  0  0  0  0  0  0  0  0  0  0
    9.9160   13.5460    2.7500 C   0  0  0  0  0  0  0  0  0  0  0  0
   10.2530   12.1110    2.4670 C   0  0  1  0  0  0  0  0  0  0  0  0
    9.3070   11.5230    1.3390 C   0  0  2  0  0  0  0  0  0  0  0  0
    9.5520   12.3210    0.0490 C   0  0  2  0  0  0  0  0  0  0  0  0
    7.8060   11.3780    1.7210 N   0  0  0  0  0  0  0  0  0  0  0  0
    7.5960   11.7560    2.6060 H   0  0  0  0  0  0  0  0  0  0  0  0
    6.6140   10.7960    1.0430 C   0  0  0  0  0  0  0  0  0  0  0  0
    5.5550   10.8370    1.6780 O   0  0  0  0  0  0  0  0  0  0  0  0
    6.5250   10.1530   -0.3040 C   0  0  0  0  0  0  0  0  0  0  0  0
    9.5990   15.7950    1.6510 C   0  0  0  0  0  0  0  0  0  0  0  0
    9.6640   16.5780    0.5440 O   0  0  0  0  0  0  0  0  0  0  0  0
    9.4420   16.3020    2.7650 O   0  0  0  0  0  0  0  0  0  0  0  0
   11.7820   11.9620    2.2710 N   0  0  0  0  0  0  0  0  0  0  0  0
   12.0590   11.8850    1.3300 H   0  0  0  0  0  0  0  0  0  0  0  0
   12.9340   11.9130    3.2580 C   0  0  0  0  0  0  0  0  0  0  0  0
   13.4580   13.0150    3.5770 N   0  0  0  0  0  0  0  0  0  0  0  0
   14.2100   13.0390    4.2100 H   0  0  0  0  0  0  0  0  0  0  0  0
   13.1130   13.8530    3.1920 H   0  0  0  0  0  0  0  0  0  0  0  0
   13.5240   10.7540    3.8860 N   0  0  0  0  0  0  0  0  0  0  0  0
   12.9910    9.9350    4.0070 H   0  0  0  0  0  0  0  0  0  0  0  0
   14.4580   10.7830    4.1920 H   0  0  0  0  0  0  0  0  0  0  0  0
   10.9200   12.1250   -0.4130 O   0  0  0  0  0  0  0  0  0  0  0  0
   11.2380   12.9430   -1.5630 C   0  0  0  0  0  0  0  0  0  0  0  0
   12.3950   13.9390   -1.2440 C   0  0  0  0  0  0  0  0  0  0  0  0
   12.0540   15.3750   -1.6940 C   0  0  0  0  0  0  0  0  0  0  0  0
  1  2  2  0  0  0  0
  2 12  1  0  0  0  0
  2  3  1  0  0  0  0
  4 15  1  6  0  0  0
  4  3  1  0  0  0  0
  5  7  1  1  0  0  0
  5  4  1  0  0  0  0
  6 24  1  1  0  0  0
  6  1  1  0  0  0  0
  6  5  1  0  0  0  0
  7  8  1  0  0  0  0
  9 10  2  0  0  0  0
  9  7  1  0  0  0  0
 11  9  1  0  0  0  0
 12 14  1  0  0  0  0
 13 12  2  0  0  0  0
 15 17  1  0  0  0  0
 16 15  1  0  0  0  0
 17 18  2  0  0  0  0
 17 21  1  0  0  0  0
 18 19  1  0  0  0  0
 20 18  1  0  0  0  0
 21 22  1  0  0  0  0
 21 23  1  0  0  0  0
 25 26  1  0  0  0  0
 25 24  1  0  0  0  0
 27 26  1  0  0  0  0
M  END
>  <MODEL>
1

>  <REMARK>
 VINA RESULT:      -6.6      0.000      0.000
  Name = BDB5009
                            x       y       z     vdW  Elec       q    Type
                         _______ _______ _______ _____ _____    ______ ____

>  <TORSDO>
F 8

>  <vina_score>
-6.6

$$$$
BDB5021
 OpenBabel01041719563D

 27 28  0  0  1  0  0  0  0  0999 V2000
    7.8130   11.3190   -0.2960 C   0  0  0  0  0  0  0  0  0  0  0  0
    7.6960   10.4010    0.9730 C   0  0  1  0  0  0  0  0  0  0  0  0
    8.5160   11.1660    2.0500 C   0  0  0  0  0  0  0  0  0  0  0  0
    8.2220   12.6100    1.6680 C   0  0  2  0  0  0  0  0  0  0  0  0
    8.6090   12.5350    0.2120 C   0  0  2  0  0  0  0  0  0  0  0  0
    6.2570   10.4500    1.4060 C   0  0  0  0  0  0  0  0  0  0  0  0
    5.9500   10.1530    2.5660 O   0  0  0  0  0  0  0  0  0  0  0  0
    5.2940   10.8220    0.5220 O   0  0  0  0  0  0  0  0  0  0  0  0
    8.3220   13.7450   -0.5330 N   0  0  0  0  0  0  0  0  0  0  0  0
    8.3710   14.6090   -0.0650 H   0  0  0  0  0  0  0  0  0  0  0  0
    7.9750   13.7340   -1.9040 C   0  0  0  0  0  0  0  0  0  0  0  0
    7.1400   14.5870   -2.3390 N   0  0  0  0  0  0  0  0  0  0  0  0
    6.8910   14.5890   -3.2920 H   0  0  0  0  0  0  0  0  0  0  0  0
    6.7440   15.2450   -1.7240 H   0  0  0  0  0  0  0  0  0  0  0  0
    8.5290   12.8020   -2.7910 N   0  0  0  0  0  0  0  0  0  0  0  0
    9.3670   12.3400   -2.5590 H   0  0  0  0  0  0  0  0  0  0  0  0
    8.0800   12.6090   -3.6470 H   0  0  0  0  0  0  0  0  0  0  0  0
    9.3770   13.7040    1.3830 C   0  0  1  0  0  0  0  0  0  0  0  0
    9.5350   14.4400    2.8240 N   0  0  0  0  0  0  0  0  0  0  0  0
    9.5900   14.1260    3.7560 H   0  0  0  0  0  0  0  0  0  0  0  0
    9.5660   15.7440    2.1900 C   0  0  0  0  0  0  0  0  0  0  0  0
    9.3790   16.7350    2.9060 O   0  0  0  0  0  0  0  0  0  0  0  0
    9.7810   15.9740    0.7090 C   0  0  0  0  0  0  0  0  0  0  0  0
   10.7720   12.7860    1.2980 C   0  0  0  0  0  0  0  0  0  0  0  0
   12.1010   13.1680    0.6200 C   0  0  0  0  0  0  0  0  0  0  0  0
   11.8500   13.4800   -0.8650 C   0  0  0  0  0  0  0  0  0  0  0  0
   12.5480   14.8020   -1.2350 C   0  0  0  0  0  0  0  0  0  0  0  0
  1  5  1  0  0  0  0
  1  2  1  0  0  0  0
  2  6  1  1  0  0  0
  2  3  1  0  0  0  0
  4  3  1  1  0  0  0
  5  9  1  6  0  0  0
  5 18  1  0  0  0  0
  5  4  1  0  0  0  0
  6  7  1  0  0  0  0
  8  6  2  0  0  0  0
  9 10  1  0  0  0  0
 11  9  1  0  0  0  0
 12 11  1  0  0  0  0
 12 14  1  0  0  0  0
 13 12  1  0  0  0  0
 15 16  1  0  0  0  0
 15 11  2  0  0  0  0
 17 15  1  0  0  0  0
 18 24  1  1  0  0  0
 18  4  1  0  0  0  0
 18 19  1  0  0  0  0
 19 20  1  0  0  0  0
 21 19  1  0  0  0  0
 21 22  2  0  0  0  0
 23 21  1  0  0  0  0
 25 24  1  0  0  0  0
 26 25  1  0  0  0  0
 27 26  1  0  0  0  0
M  END
>  <MODEL>
1

>  <REMARK>
 VINA RESULT:      -6.6      0.000      0.000
  Name = BDB5021
                            x       y       z     vdW  Elec       q    Type
                         _______ _______ _______ _____ _____    ______ ____

>  <TORSDO>
F 9

>  <vina_score>
-6.6

$$$$
BDB5008
 OpenBabel01041719553D

 25 25  0  0  1  0  0  0  0  0999 V2000
   10.8310   14.0310    1.6600 C   0  0  0  0  0  0  0  0  0  0  0  0
   11.3990   12.8280    1.4250 C   0  0  0  0  0  0  0  0  0  0  0  0
   10.8260   11.8120    0.4580 C   0  0  0  0  0  0  0  0  0  0  0  0
    9.8450   12.4130   -0.5300 C   0  0  1  0  0  0  0  0  0  0  0  0
    8.8410   13.3730    0.2580 C   0  0  2  0  0  0  0  0  0  0  0  0
    9.5930   14.5270    0.9350 C   0  0  2  0  0  0  0  0  0  0  0  0
    7.8990   12.6210    1.2130 N   0  0  0  0  0  0  0  0  0  0  0  0
    7.7370   13.0960    2.0590 H   0  0  0  0  0  0  0  0  0  0  0  0
    7.1870   11.3270    1.1160 C   0  0  0  0  0  0  0  0  0  0  0  0
    6.6870   10.9030    2.1640 O   0  0  0  0  0  0  0  0  0  0  0  0
    6.9620   10.4810   -0.0970 C   0  0  0  0  0  0  0  0  0  0  0  0
   12.5880   12.4480    2.1730 C   0  0  0  0  0  0  0  0  0  0  0  0
   13.1290   13.3190    3.0650 O   0  0  0  0  0  0  0  0  0  0  0  0
   13.1060   11.3410    1.9940 O   0  0  0  0  0  0  0  0  0  0  0  0
   10.5720   12.9450   -1.8110 N   0  0  0  0  0  0  0  0  0  0  0  0
   11.5480   12.8150   -1.7980 H   0  0  0  0  0  0  0  0  0  0  0  0
   10.0610   13.6220   -3.0630 C   0  0  0  0  0  0  0  0  0  0  0  0
    9.8450   14.8740   -3.0030 N   0  0  0  0  0  0  0  0  0  0  0  0
    9.5160   15.3550   -3.7950 H   0  0  0  0  0  0  0  0  0  0  0  0
   10.0080   15.3610   -2.1620 H   0  0  0  0  0  0  0  0  0  0  0  0
    9.7920   13.0090   -4.3330 N   0  0  0  0  0  0  0  0  0  0  0  0
   10.4160   13.1370   -5.0830 H   0  0  0  0  0  0  0  0  0  0  0  0
    8.9820   12.4620   -4.4540 H   0  0  0  0  0  0  0  0  0  0  0  0
    9.9840   15.4890   -0.0380 O   0  0  0  0  0  0  0  0  0  0  0  0
    9.9670   15.0840   -0.9190 H   0  0  0  0  0  0  0  0  0  0  0  0
  2  1  2  0  0  0  0
  2 12  1  0  0  0  0
  3  2  1  0  0  0  0
  4 15  1  6  0  0  0
  4  5  1  0  0  0  0
  4  3  1  0  0  0  0
  5  6  1  0  0  0  0
  5  7  1  1  0  0  0
  6 24  1  6  0  0  0
  6  1  1  0  0  0  0
  7  8  1  0  0  0  0
  9  7  1  0  0  0  0
  9 10  2  0  0  0  0
 11  9  1  0  0  0  0
 12 13  1  0  0  0  0
 14 12  2  0  0  0  0
 15 16  1  0  0  0  0
 17 18  1  0  0  0  0
 17 15  1  0  0  0  0
 18 20  1  0  0  0  0
 19 18  1  0  0  0  0
 21 17  2  0  0  0  0
 22 21  1  0  0  0  0
 23 21  1  0  0  0  0
 25 24  1  0  0  0  0
M  END
>  <MODEL>
1

>  <REMARK>
 VINA RESULT:      -6.6      0.000      0.000
  Name = BDB5008
                            x       y       z     vdW  Elec       q    Type
                         _______ _______ _______ _____ _____    ______ ____

>  <TORSDO>
F 6

>  <vina_score>
-6.6

$$$$
BDB5024
 OpenBabel01041719553D

 30 30  0  0  1  0  0  0  0  0999 V2000
   10.4590   12.7950    4.1750 C   0  0  0  0  0  0  0  0  0  0  0  0
    8.9630   12.4190    3.9070 C   0  0  1  0  0  0  0  0  0  0  0  0
    8.6680   13.0790    2.5450 C   0  0  2  0  0  0  0  0  0  0  0  0
    9.9700   12.7660    1.7550 C   0  0  2  0  0  0  0  0  0  0  0  0
   10.9570   13.3680    2.7990 C   0  0  2  0  0  0  0  0  0  0  0  0
    8.8630   10.8980    3.8240 C   0  0  0  0  0  0  0  0  0  0  0  0
    9.7000   10.1530    4.3460 O   0  0  0  0  0  0  0  0  0  0  0  0
    7.8810   10.3480    3.0650 O   0  0  0  0  0  0  0  0  0  0  0  0
    8.5330   14.4920    2.7430 O   0  0  0  0  0  0  0  0  0  0  0  0
    7.9620   14.8620    2.0510 H   0  0  0  0  0  0  0  0  0  0  0  0
   12.4010   13.1570    2.5750 N   0  0  0  0  0  0  0  0  0  0  0  0
   12.8260   13.6130    1.8140 H   0  0  0  0  0  0  0  0  0  0  0  0
   13.2260   12.3110    3.4210 C   0  0  0  0  0  0  0  0  0  0  0  0
   13.1660   11.0520    3.2590 N   0  0  0  0  0  0  0  0  0  0  0  0
   13.7100   10.4560    3.8240 H   0  0  0  0  0  0  0  0  0  0  0  0
   12.5760   10.6720    2.5690 H   0  0  0  0  0  0  0  0  0  0  0  0
   14.0980   12.8270    4.4390 N   0  0  0  0  0  0  0  0  0  0  0  0
   14.4010   12.2440    5.1720 H   0  0  0  0  0  0  0  0  0  0  0  0
   14.3940   13.7660    4.4040 H   0  0  0  0  0  0  0  0  0  0  0  0
    9.9490   13.3580    0.2720 C   0  0  1  0  0  0  0  0  0  0  0  0
    8.5820   13.5700   -0.1680 N   0  0  0  0  0  0  0  0  0  0  0  0
    7.9200   13.8960    0.4840 H   0  0  0  0  0  0  0  0  0  0  0  0
    8.1670   13.3240   -1.5000 C   0  0  0  0  0  0  0  0  0  0  0  0
    9.1250   12.8460   -2.5610 C   0  0  0  0  0  0  0  0  0  0  0  0
    6.9830   13.5140   -1.8010 O   0  0  0  0  0  0  0  0  0  0  0  0
   10.8200   14.6900    0.0430 C   0  0  0  0  0  0  0  0  0  0  0  0
   12.0290   14.5750   -0.9230 C   0  0  0  0  0  0  0  0  0  0  0  0
   11.8380   15.3920   -2.2170 C   0  0  0  0  0  0  0  0  0  0  0  0
    9.9190   15.8560   -0.4490 C   0  0  0  0  0  0  0  0  0  0  0  0
    9.6870   16.9030    0.6620 C   0  0  0  0  0  0  0  0  0  0  0  0
  2  6  1  6  0  0  0
  2  1  1  0  0  0  0
  3  9  1  1  0  0  0
  3  2  1  0  0  0  0
  4 20  1  6  0  0  0
  4  3  1  0  0  0  0
  4  5  1  0  0  0  0
  5 11  1  6  0  0  0
  5  1  1  0  0  0  0
  6  7  1  0  0  0  0
  8  6  2  0  0  0  0
 10  9  1  0  0  0  0
 11 13  1  0  0  0  0
 12 11  1  0  0  0  0
 13 17  1  0  0  0  0
 14 13  2  0  0  0  0
 14 15  1  0  0  0  0
 16 14  1  0  0  0  0
 17 18  1  0  0  0  0
 19 17  1  0  0  0  0
 20 21  1  1  0  0  0
 21 22  1  0  0  0  0
 23 21  1  0  0  0  0
 24 23  1  0  0  0  0
 25 23  2  0  0  0  0
 26 20  1  0  0  0  0
 27 26  1  0  0  0  0
 28 27  1  0  0  0  0
 29 26  1  0  0  0  0
 29 30  1  0  0  0  0
M  END
>  <MODEL>
1

>  <REMARK>
 VINA RESULT:      -6.5      0.000      0.000
  Name = BDB5024
                            x       y       z     vdW  Elec       q    Type
                         _______ _______ _______ _____ _____    ______ ____

>  <TORSDO>
F 10

>  <vina_score>
-6.5

$$$$
BDB5013
 OpenBabel01041719543D

 29 29  0  0  1  0  0  0  0  0999 V2000
   11.1130   12.2380    1.0350 C   0  0  0  0  0  0  0  0  0  0  0  0
   10.8930   11.6380    2.2290 C   0  0  0  0  0  0  0  0  0  0  0  0
    9.6280   11.8220    3.0300 C   0  0  0  0  0  0  0  0  0  0  0  0
    8.4760   12.2270    2.1750 C   0  0  1  0  0  0  0  0  0  0  0  0
    8.9380   13.4680    1.2580 C   0  0  2  0  0  0  0  0  0  0  0  0
   10.0940   13.1110    0.3070 C   0  0  2  0  0  0  0  0  0  0  0  0
    9.2480   14.7170    2.1180 N   0  0  0  0  0  0  0  0  0  0  0  0
    9.2460   14.5330    3.0840 H   0  0  0  0  0  0  0  0  0  0  0  0
    9.5480   16.1400    1.7940 C   0  0  0  0  0  0  0  0  0  0  0  0
    9.7080   16.8920    2.7610 O   0  0  0  0  0  0  0  0  0  0  0  0
    9.6600   16.7910    0.4450 C   0  0  0  0  0  0  0  0  0  0  0  0
   11.9330   10.8130    2.8230 C   0  0  0  0  0  0  0  0  0  0  0  0
   13.0510   10.5250    2.1050 O   0  0  0  0  0  0  0  0  0  0  0  0
   11.8050   10.3850    3.9740 O   0  0  0  0  0  0  0  0  0  0  0  0
    7.8190   10.9230    1.6320 N   0  0  0  0  0  0  0  0  0  0  0  0
    8.0860   10.1110    2.1200 H   0  0  0  0  0  0  0  0  0  0  0  0
    6.8470   10.6640    0.4970 C   0  0  0  0  0  0  0  0  0  0  0  0
    7.3530   10.5350   -0.6690 N   0  0  0  0  0  0  0  0  0  0  0  0
    6.7690   10.3620   -1.4420 H   0  0  0  0  0  0  0  0  0  0  0  0
    8.3270   10.6090   -0.7940 H   0  0  0  0  0  0  0  0  0  0  0  0
    5.4160   10.5340    0.5450 N   0  0  0  0  0  0  0  0  0  0  0  0
    4.9000   11.0210    1.2270 H   0  0  0  0  0  0  0  0  0  0  0  0
    4.9520    9.9570   -0.1050 H   0  0  0  0  0  0  0  0  0  0  0  0
    9.6980   12.5140   -1.0260 O   0  0  0  0  0  0  0  0  0  0  0  0
   10.0850   13.1200   -2.2920 C   0  0  0  0  0  0  0  0  0  0  0  0
    9.1310   14.3500   -2.5980 C   0  0  0  0  0  0  0  0  0  0  0  0
    7.6600   14.1630   -2.1410 C   0  0  0  0  0  0  0  0  0  0  0  0
   11.5850   13.5850   -2.1250 C   0  0  0  0  0  0  0  0  0  0  0  0
   11.7820   15.1250   -2.0450 C   0  0  0  0  0  0  0  0  0  0  0  0
  1  2  2  0  0  0  0
  2 12  1  0  0  0  0
  2  3  1  0  0  0  0
  4 15  1  6  0  0  0
  4  3  1  0  0  0  0
  5  7  1  1  0  0  0
  5  4  1  0  0  0  0
  6 24  1  6  0  0  0
  6  1  1  0  0  0  0
  6  5  1  0  0  0  0
  7  8  1  0  0  0  0
  9  7  1  0  0  0  0
  9 10  2  0  0  0  0
 11  9  1  0  0  0  0
 12 14  1  0  0  0  0
 13 12  2  0  0  0  0
 15 16  1  0  0  0  0
 17 21  1  0  0  0  0
 17 15  1  0  0  0  0
 18 17  2  0  0  0  0
 19 18  1  0  0  0  0
 20 18  1  0  0  0  0
 21 22  1  0  0  0  0
 23 21  1  0  0  0  0
 25 28  1  0  0  0  0
 25 24  1  0  0  0  0
 26 25  1  0  0  0  0
 26 27  1  0  0  0  0
 28 29  1  0  0  0  0
M  END
>  <MODEL>
1

>  <REMARK>
 VINA RESULT:      -6.5      0.000      0.000
  Name = BDB5013
                            x       y       z     vdW  Elec       q    Type
                         _______ _______ _______ _____ _____    ______ ____

>  <TORSDO>
F 9

>  <vina_score>
-6.5

$$$$
BDB4995
 OpenBabel01041719543D

 25 25  0  0  1  0  0  0  0  0999 V2000
    8.5370   12.1740    0.1610 C   0  0  0  0  0  0  0  0  0  0  0  0
    7.8380   11.7120    1.2200 C   0  0  0  0  0  0  0  0  0  0  0  0
    8.2760   11.9170    2.6960 C   0  0  0  0  0  0  0  0  0  0  0  0
    9.2380   13.0950    2.8810 C   0  0  1  0  0  0  0  0  0  0  0  0
   10.3390   13.0180    1.7720 C   0  0  2  0  0  0  0  0  0  0  0  0
    9.7720   13.0180    0.2760 C   0  0  2  0  0  0  0  0  0  0  0  0
   11.2450   11.8370    2.1440 N   0  0  0  0  0  0  0  0  0  0  0  0
   10.8740   10.9590    1.8930 H   0  0  0  0  0  0  0  0  0  0  0  0
   12.5590   11.7570    2.8000 C   0  0  0  0  0  0  0  0  0  0  0  0
   13.1390   10.6670    2.7320 O   0  0  0  0  0  0  0  0  0  0  0  0
   13.2340   12.8200    3.6180 C   0  0  0  0  0  0  0  0  0  0  0  0
    8.4600   14.2860    2.9040 N   0  0  0  0  0  0  0  0  0  0  0  0
    8.0760   14.4580    1.9750 H   0  0  0  0  0  0  0  0  0  0  0  0
    7.6980   14.1810    3.5730 H   0  0  0  0  0  0  0  0  0  0  0  0
    9.0490   15.0710    3.1800 H   0  0  0  0  0  0  0  0  0  0  0  0
    6.6750   10.8860    0.9280 C   0  0  0  0  0  0  0  0  0  0  0  0
    5.6090   10.9000    1.7650 O   0  0  0  0  0  0  0  0  0  0  0  0
    6.6750   10.1530   -0.0640 O   0  0  0  0  0  0  0  0  0  0  0  0
    9.4820   14.3410   -0.4260 O   0  0  0  0  0  0  0  0  0  0  0  0
   10.1660   14.7240   -1.6560 C   0  0  1  0  0  0  0  0  0  0  0  0
   11.4010   15.6150   -1.3520 C   0  0  0  0  0  0  0  0  0  0  0  0
   12.6720   14.7540   -1.2370 C   0  0  0  0  0  0  0  0  0  0  0  0
   10.6950   13.4820   -2.3870 C   0  0  0  0  0  0  0  0  0  0  0  0
    9.7100   13.1490   -3.4830 C   0  0  0  0  0  0  0  0  0  0  0  0
    8.9620   14.0990   -4.0380 C   0  0  0  0  0  0  0  0  0  0  0  0
  1  6  1  0  0  0  0
  1  2  2  0  0  0  0
  2  3  1  0  0  0  0
  3  4  1  0  0  0  0
  4 12  1  6  0  0  0
  5  7  1  1  0  0  0
  5  4  1  0  0  0  0
  6 19  1  1  0  0  0
  6  5  1  0  0  0  0
  7  9  1  0  0  0  0
  8  7  1  0  0  0  0
  9 11  1  0  0  0  0
 10  9  2  0  0  0  0
 12 15  1  0  0  0  0
 12 14  1  0  0  0  0
 13 12  1  0  0  0  0
 16  2  1  0  0  0  0
 16 17  1  0  0  0  0
 18 16  2  0  0  0  0
 20 23  1  1  0  0  0
 20 21  1  0  0  0  0
 20 19  1  0  0  0  0
 21 22  1  0  0  0  0
 24 23  1  0  0  0  0
 25 24  2  0  0  0  0
M  END
>  <MODEL>
1

>  <REMARK>
 VINA RESULT:      -6.4      0.000      0.000
  Name = BDB4995
                            x       y       z     vdW  Elec       q    Type
                         _______ _______ _______ _____ _____    ______ ____

>  <TORSDO>
F 8

>  <vina_score>
-6.4

$$$$
BDB5222
 OpenBabel01041719573D

 24 24  0  0  1  0  0  0  0  0999 V2000
    9.4890   13.7660    0.2610 C   0  0  0  0  0  0  0  0  0  0  0  0
    9.6030   14.2700    1.5020 C   0  0  0  0  0  0  0  0  0  0  0  0
    9.7370   13.3830    2.7530 C   0  0  0  0  0  0  0  0  0  0  0  0
   10.1780   11.9520    2.4180 C   0  0  1  0  0  0  0  0  0  0  0  0
    9.2990   11.4160    1.2410 C   0  0  2  0  0  0  0  0  0  0  0  0
    9.5610   12.2880   -0.0400 C   0  0  2  0  0  0  0  0  0  0  0  0
    7.8490   11.2310    1.7110 N   0  0  0  0  0  0  0  0  0  0  0  0
    7.7110   11.4590    2.6580 H   0  0  0  0  0  0  0  0  0  0  0  0
    6.6250   10.7810    1.0280 C   0  0  0  0  0  0  0  0  0  0  0  0
    5.5730   10.8850    1.6690 O   0  0  0  0  0  0  0  0  0  0  0  0
    6.5100   10.1530   -0.3260 C   0  0  0  0  0  0  0  0  0  0  0  0
    9.5240   15.7140    1.6680 C   0  0  0  0  0  0  0  0  0  0  0  0
    9.6900   16.5290    0.5980 O   0  0  0  0  0  0  0  0  0  0  0  0
    9.3070   16.1940    2.7860 O   0  0  0  0  0  0  0  0  0  0  0  0
   11.6520   11.9490    2.1540 N   0  0  0  0  0  0  0  0  0  0  0  0
   11.9900   11.7590    1.2490 H   0  0  0  0  0  0  0  0  0  0  0  0
   12.5760   12.2220    3.2230 C   0  0  0  0  0  0  0  0  0  0  0  0
   13.4030   13.1760    3.1370 N   0  0  0  0  0  0  0  0  0  0  0  0
   14.0290   13.3530    3.8770 H   0  0  0  0  0  0  0  0  0  0  0  0
   13.4210   13.7410    2.3320 H   0  0  0  0  0  0  0  0  0  0  0  0
   10.9100   12.0700   -0.5630 O   0  0  0  0  0  0  0  0  0  0  0  0
   11.2150   12.9750   -1.6460 C   0  0  0  0  0  0  0  0  0  0  0  0
   12.3790   13.9340   -1.2720 C   0  0  0  0  0  0  0  0  0  0  0  0
   12.0750   15.3820   -1.6880 C   0  0  0  0  0  0  0  0  0  0  0  0
  1  2  2  0  0  0  0
  2 12  1  0  0  0  0
  2  3  1  0  0  0  0
  4 15  1  6  0  0  0
  4  3  1  0  0  0  0
  5  7  1  1  0  0  0
  5  4  1  0  0  0  0
  6 21  1  1  0  0  0
  6  1  1  0  0  0  0
  6  5  1  0  0  0  0
  7  8  1  0  0  0  0
  9 10  2  0  0  0  0
  9  7  1  0  0  0  0
 11  9  1  0  0  0  0
 12 14  1  0  0  0  0
 13 12  2  0  0  0  0
 15 17  1  0  0  0  0
 16 15  1  0  0  0  0
 18 17  1  0  0  0  0
 18 19  1  0  0  0  0
 20 18  1  0  0  0  0
 22 23  1  0  0  0  0
 22 21  1  0  0  0  0
 24 23  1  0  0  0  0
M  END
>  <MODEL>
1

>  <REMARK>
 VINA RESULT:      -6.4      0.000      0.000
  Name = BDB5222
                            x       y       z     vdW  Elec       q    Type
                         _______ _______ _______ _____ _____    ______ ____

>  <TORSDO>
F 7

>  <vina_score>
-6.4

$$$$
BDB5233
 OpenBabel01041719563D

 24 24  0  0  1  0  0  0  0  0999 V2000
    8.2990   12.3610   -0.0390 C   0  0  0  0  0  0  0  0  0  0  0  0
    7.7700   11.7430    1.0430 C   0  0  0  0  0  0  0  0  0  0  0  0
    8.3950   11.8070    2.4660 C   0  0  0  0  0  0  0  0  0  0  0  0
    9.2510   13.0560    2.6630 C   0  0  1  0  0  0  0  0  0  0  0  0
   10.2280   13.1440    1.4260 C   0  0  2  0  0  0  0  0  0  0  0  0
    9.5290   13.2370    0.0100 C   0  0  2  0  0  0  0  0  0  0  0  0
   11.2050   11.9790    1.6060 N   0  0  0  0  0  0  0  0  0  0  0  0
   10.9280   11.1540    1.1440 H   0  0  0  0  0  0  0  0  0  0  0  0
   12.4790   11.8530    2.3350 C   0  0  0  0  0  0  0  0  0  0  0  0
   13.1020   10.8000    2.1660 O   0  0  0  0  0  0  0  0  0  0  0  0
   13.0820   12.8350    3.2980 C   0  0  0  0  0  0  0  0  0  0  0  0
    8.3370   14.1640    2.9320 N   0  0  0  0  0  0  0  0  0  0  0  0
    8.6040   14.6190    3.8050 H   0  0  0  0  0  0  0  0  0  0  0  0
    8.3850   14.8380    2.1680 H   0  0  0  0  0  0  0  0  0  0  0  0
    7.3850   13.8060    3.0110 H   0  0  0  0  0  0  0  0  0  0  0  0
    6.6130   10.8880    0.8150 C   0  0  0  0  0  0  0  0  0  0  0  0
    5.6030   10.8630    1.7210 O   0  0  0  0  0  0  0  0  0  0  0  0
    6.5750   10.1540   -0.1760 O   0  0  0  0  0  0  0  0  0  0  0  0
    9.1490   14.6380   -0.4770 N   0  0  0  0  0  0  0  0  0  0  0  0
    8.8650   14.5300   -1.4510 H   0  0  0  0  0  0  0  0  0  0  0  0
    8.4070   14.9910    0.1280 H   0  0  0  0  0  0  0  0  0  0  0  0
   10.2170   15.6020   -0.4800 C   0  0  0  0  0  0  0  0  0  0  0  0
   11.1700   15.4380   -1.6590 C   0  0  0  0  0  0  0  0  0  0  0  0
   12.4720   14.8040   -1.1260 C   0  0  0  0  0  0  0  0  0  0  0  0
  1  6  1  0  0  0  0
  1  2  2  0  0  0  0
  2  3  1  0  0  0  0
  3  4  1  0  0  0  0
  4 12  1  6  0  0  0
  5  7  1  6  0  0  0
  5  4  1  0  0  0  0
  6 19  1  1  0  0  0
  6  5  1  0  0  0  0
  7  9  1  0  0  0  0
  8  7  1  0  0  0  0
  9 11  1  0  0  0  0
 10  9  2  0  0  0  0
 12 15  1  0  0  0  0
 12 13  1  0  0  0  0
 14 12  1  0  0  0  0
 16  2  1  0  0  0  0
 16 17  1  0  0  0  0
 18 16  2  0  0  0  0
 19 21  1  0  0  0  0
 20 19  1  0  0  0  0
 22 19  1  0  0  0  0
 23 24  1  0  0  0  0
 23 22  1  0  0  0  0
M  END
>  <MODEL>
1

>  <REMARK>
 VINA RESULT:      -6.4      0.000      0.000
  Name = BDB5233
                            x       y       z     vdW  Elec       q    Type
                         _______ _______ _______ _____ _____    ______ ____

>  <TORSDO>
F 6

>  <vina_score>
-6.4

$$$$
BDB5199
 OpenBabel01041719543D

 26 27  0  0  1  0  0  0  0  0999 V2000
    8.7320   10.7770    2.2070 C   0  0  0  0  0  0  0  0  0  0  0  0
    9.9380   11.6760    2.1240 C   0  0  2  0  0  0  0  0  0  0  0  0
    9.9950   11.8350    0.6110 C   0  0  1  0  0  0  0  0  0  0  0  0
    8.5960   12.1640    0.2260 N   0  0  0  0  0  0  0  0  0  0  0  0
    8.3310   11.7590   -0.6720 H   0  0  0  0  0  0  0  0  0  0  0  0
    8.4750   13.1720    0.1280 H   0  0  0  0  0  0  0  0  0  0  0  0
    7.7720   11.6360    1.3630 C   0  0  1  0  0  0  0  0  0  0  0  0
   11.1830   11.0270    2.6650 C   0  0  0  0  0  0  0  0  0  0  0  0
   12.2320   10.7260    1.9260 N   0  0  0  0  0  0  0  0  0  0  0  0
   13.1180   10.1730    2.7430 C   0  0  0  0  0  0  0  0  0  0  0  0
   12.5590   10.1530    4.0160 C   0  0  0  0  0  0  0  0  0  0  0  0
   11.3510   10.6940    3.9280 N   0  0  0  0  0  0  0  0  0  0  0  0
   10.7070   10.8220    4.6610 H   0  0  0  0  0  0  0  0  0  0  0  0
    6.5710   10.8600    0.9030 C   0  0  0  0  0  0  0  0  0  0  0  0
    5.4540   10.8190    1.6740 O   0  0  0  0  0  0  0  0  0  0  0  0
    6.6030   10.2560   -0.1750 O   0  0  0  0  0  0  0  0  0  0  0  0
   10.0280   13.1960   -0.2190 C   0  0  1  0  0  0  0  0  0  0  0  0
   10.1790   14.2710    0.8470 N   0  0  0  0  0  0  0  0  0  0  0  0
   10.9050   13.9720    1.4410 H   0  0  0  0  0  0  0  0  0  0  0  0
    9.7350   15.5090    1.3550 C   0  0  0  0  0  0  0  0  0  0  0  0
    9.3660   15.5860    2.5280 O   0  0  0  0  0  0  0  0  0  0  0  0
    9.7180   16.7400    0.4860 C   0  0  0  0  0  0  0  0  0  0  0  0
   11.4850   13.2020   -1.0130 C   0  0  0  0  0  0  0  0  0  0  0  0
   10.5500   14.0650   -1.9120 C   0  0  0  0  0  0  0  0  0  0  0  0
   11.2640   15.3290   -2.4390 C   0  0  0  0  0  0  0  0  0  0  0  0
   10.1100   13.2190   -3.1200 C   0  0  0  0  0  0  0  0  0  0  0  0
  2  1  1  0  0  0  0
  2  8  1  6  0  0  0
  3  4  1  6  0  0  0
  3  2  1  0  0  0  0
  4  7  1  0  0  0  0
  5  4  1  0  0  0  0
  6  4  1  0  0  0  0
  7 14  1  6  0  0  0
  7  1  1  0  0  0  0
  8 12  1  0  0  0  0
  9  8  2  0  0  0  0
  9 10  1  0  0  0  0
 10 11  2  0  0  0  0
 12 11  1  0  0  0  0
 12 13  1  0  0  0  0
 14 15  1  0  0  0  0
 16 14  2  0  0  0  0
 17 23  1  6  0  0  0
 17  3  1  0  0  0  0
 17 18  1  0  0  0  0
 18 20  1  0  0  0  0
 18 19  1  0  0  0  0
 20 21  2  0  0  0  0
 22 20  1  0  0  0  0
 24 23  1  0  0  0  0
 25 24  1  0  0  0  0
 26 24  1  0  0  0  0
M  END
>  <MODEL>
1

>  <REMARK>
 VINA RESULT:      -6.4      0.000      0.000
  Name = BDB5199
                            x       y       z     vdW  Elec       q    Type
                         _______ _______ _______ _____ _____    ______ ____

>  <TORSDO>
F 6

>  <vina_score>
-6.4

$$$$
BDB5200
 OpenBabel01041719543D

 26 27  0  0  1  0  0  0  0  0999 V2000
    7.4330   11.6420   -1.1600 C   0  0  0  0  0  0  0  0  0  0  0  0
    8.7340   12.4010   -1.1900 C   0  0  2  0  0  0  0  0  0  0  0  0
    8.5030   13.2890    0.0260 C   0  0  1  0  0  0  0  0  0  0  0  0
    8.0290   12.3510    1.0780 N   0  0  0  0  0  0  0  0  0  0  0  0
    7.3310   12.7690    1.6920 H   0  0  0  0  0  0  0  0  0  0  0  0
    8.8000   12.0650    1.6820 H   0  0  0  0  0  0  0  0  0  0  0  0
    7.4940   11.1800    0.3080 C   0  0  1  0  0  0  0  0  0  0  0  0
    8.9050   13.2110   -2.4500 C   0  0  0  0  0  0  0  0  0  0  0  0
    9.2960   12.7240   -3.6090 N   0  0  0  0  0  0  0  0  0  0  0  0
    9.3290   13.6790   -4.4470 N   0  0  0  0  0  0  0  0  0  0  0  0
    9.5890   13.5840   -5.3930 H   0  0  0  0  0  0  0  0  0  0  0  0
    8.9610   14.8250   -3.8740 C   0  0  0  0  0  0  0  0  0  0  0  0
    8.6720   14.5590   -2.5460 C   0  0  0  0  0  0  0  0  0  0  0  0
    6.1590   10.7110    0.8120 C   0  0  0  0  0  0  0  0  0  0  0  0
    5.9710   10.4950    2.1390 O   0  0  0  0  0  0  0  0  0  0  0  0
    5.2330   10.5170    0.0150 O   0  0  0  0  0  0  0  0  0  0  0  0
    9.4540   13.4620    1.2930 C   0  0  1  0  0  0  0  0  0  0  0  0
   10.1070   12.0970    1.4500 N   0  0  0  0  0  0  0  0  0  0  0  0
    9.6680   11.5030    0.7990 H   0  0  0  0  0  0  0  0  0  0  0  0
   11.0670   11.3110    2.1190 C   0  0  0  0  0  0  0  0  0  0  0  0
   10.7150   10.2710    2.6810 O   0  0  0  0  0  0  0  0  0  0  0  0
   12.5180   11.7190    2.1480 C   0  0  0  0  0  0  0  0  0  0  0  0
   10.6910   14.4500    0.7930 C   0  0  0  0  0  0  0  0  0  0  0  0
    9.5090   15.4240    1.0810 C   0  0  0  0  0  0  0  0  0  0  0  0
    9.3870   15.7530    2.5840 C   0  0  0  0  0  0  0  0  0  0  0  0
    9.7560   16.7360    0.3170 C   0  0  0  0  0  0  0  0  0  0  0  0
  1  7  1  0  0  0  0
  2  8  1  6  0  0  0
  2  1  1  0  0  0  0
  2  3  1  0  0  0  0
  3  4  1  1  0  0  0
  3 17  1  0  0  0  0
  4  6  1  0  0  0  0
  4  5  1  0  0  0  0
  7 14  1  1  0  0  0
  7  4  1  0  0  0  0
  9  8  2  0  0  0  0
 10 12  1  0  0  0  0
 10  9  1  0  0  0  0
 11 10  1  0  0  0  0
 12 13  2  0  0  0  0
 13  8  1  0  0  0  0
 14 15  1  0  0  0  0
 16 14  2  0  0  0  0
 17 23  1  6  0  0  0
 17 18  1  0  0  0  0
 18 20  1  0  0  0  0
 19 18  1  0  0  0  0
 20 22  1  0  0  0  0
 20 21  2  0  0  0  0
 23 24  1  0  0  0  0
 24 25  1  0  0  0  0
 26 24  1  0  0  0  0
M  END
>  <MODEL>
1

>  <REMARK>
 VINA RESULT:      -6.3      0.000      0.000
  Name = BDB5200
                            x       y       z     vdW  Elec       q    Type
                         _______ _______ _______ _____ _____    ______ ____

>  <TORSDO>
F 6

>  <vina_score>
-6.3

$$$$
BDB4986
 OpenBabel01041719573D

 25 25  0  0  1  0  0  0  0  0999 V2000
    9.4330   12.3450    0.3540 C   0  0  0  0  0  0  0  0  0  0  0  0
    8.4470   12.2560    1.2900 C   0  0  0  0  0  0  0  0  0  0  0  0
    8.6070   12.8110    2.7010 C   0  0  0  0  0  0  0  0  0  0  0  0
    9.7390   13.8390    2.7990 C   0  0  1  0  0  0  0  0  0  0  0  0
   11.0260   13.2410    2.1360 C   0  0  2  0  0  0  0  0  0  0  0  0
   10.7250   13.0540    0.6220 C   0  0  2  0  0  0  0  0  0  0  0  0
   11.5350   12.0830    2.9940 N   0  0  0  0  0  0  0  0  0  0  0  0
   10.8940   11.3410    3.0830 H   0  0  0  0  0  0  0  0  0  0  0  0
   12.7900   11.8690    3.7100 C   0  0  0  0  0  0  0  0  0  0  0  0
   12.9620   10.7410    4.1900 O   0  0  0  0  0  0  0  0  0  0  0  0
   13.8590   12.8790    3.9720 C   0  0  0  0  0  0  0  0  0  0  0  0
    9.2640   15.0930    2.1660 N   0  0  0  0  0  0  0  0  0  0  0  0
    8.2560   15.1790    2.2970 H   0  0  0  0  0  0  0  0  0  0  0  0
    9.7330   15.8900    2.5940 H   0  0  0  0  0  0  0  0  0  0  0  0
    9.4750   15.0710    1.1680 H   0  0  0  0  0  0  0  0  0  0  0  0
    7.2510   11.5130    0.9090 C   0  0  0  0  0  0  0  0  0  0  0  0
    7.0350   11.2510   -0.4130 O   0  0  0  0  0  0  0  0  0  0  0  0
    6.4410   11.1560    1.7470 O   0  0  0  0  0  0  0  0  0  0  0  0
   10.5860   14.4060    0.1140 O   0  0  0  0  0  0  0  0  0  0  0  0
   11.7060   14.8810   -0.6320 C   0  0  0  0  0  0  0  0  0  0  0  0
   11.3310   14.9140   -2.1550 C   0  0  0  0  0  0  0  0  0  0  0  0
   11.3110   13.4970   -2.8230 C   0  0  0  0  0  0  0  0  0  0  0  0
    9.8380   13.1480   -3.2010 C   0  0  0  0  0  0  0  0  0  0  0  0
    8.9380   14.4090   -3.2390 C   0  0  0  0  0  0  0  0  0  0  0  0
    7.7870   14.2520   -2.2140 C   0  0  0  0  0  0  0  0  0  0  0  0
  1  6  1  0  0  0  0
  1  2  2  0  0  0  0
  2  3  1  0  0  0  0
  3  4  1  0  0  0  0
  4 12  1  6  0  0  0
  5  4  1  0  0  0  0
  5  7  1  1  0  0  0
  6 19  1  6  0  0  0
  6  5  1  0  0  0  0
  7  8  1  0  0  0  0
  7  9  1  0  0  0  0
  9 11  1  0  0  0  0
  9 10  2  0  0  0  0
 12 13  1  0  0  0  0
 12 14  1  0  0  0  0
 15 12  1  0  0  0  0
 16  2  1  0  0  0  0
 16 18  1  0  0  0  0
 17 16  2  0  0  0  0
 20 19  1  0  0  0  0
 21 20  1  0  0  0  0
 22 21  1  0  0  0  0
 23 22  1  0  0  0  0
 24 23  1  0  0  0  0
 24 25  1  0  0  0  0
M  END
>  <MODEL>
1

>  <REMARK>
 VINA RESULT:      -6.3      0.000      0.000
  Name = BDB4986
                            x       y       z     vdW  Elec       q    Type
                         _______ _______ _______ _____ _____    ______ ____

>  <TORSDO>
F 9

>  <vina_score>
-6.3

$$$$
BDB5257
 OpenBabel01041719573D

 25 26  0  0  1  0  0  0  0  0999 V2000
    9.4620   11.8810    0.9800 C   0  0  0  0  0  0  0  0  0  0  0  0
    8.8070   11.7980    2.1620 C   0  0  0  0  0  0  0  0  0  0  0  0
    9.4000   12.2910    3.5010 C   0  0  0  0  0  0  0  0  0  0  0  0
   10.4450   13.3890    3.2920 C   0  0  1  0  0  0  0  0  0  0  0  0
   11.4710   12.8530    2.2210 C   0  0  2  0  0  0  0  0  0  0  0  0
   10.8310   12.4960    0.8170 C   0  0  2  0  0  0  0  0  0  0  0  0
   10.7460   13.6230   -0.2270 N   0  0  0  0  0  0  0  0  0  0  0  0
   10.0650   14.2780    0.1590 H   0  0  0  0  0  0  0  0  0  0  0  0
   12.1030   14.1680   -0.4100 C   0  0  0  0  0  0  0  0  0  0  0  0
   12.0660   15.3820   -1.3660 C   0  0  0  0  0  0  0  0  0  0  0  0
   11.5420   14.9890   -2.6360 O   0  0  0  0  0  0  0  0  0  0  0  0
   10.2110   14.5080   -2.4670 C   0  0  0  0  0  0  0  0  0  0  0  0
   10.2300   13.2820   -1.5440 C   0  0  0  0  0  0  0  0  0  0  0  0
   12.2060   11.7190    2.9390 N   0  0  0  0  0  0  0  0  0  0  0  0
   11.7960   10.8340    2.8100 H   0  0  0  0  0  0  0  0  0  0  0  0
   13.4080   11.7040    3.7860 C   0  0  0  0  0  0  0  0  0  0  0  0
   13.8420   10.5890    4.1010 O   0  0  0  0  0  0  0  0  0  0  0  0
   14.1390   12.8890    4.3500 C   0  0  0  0  0  0  0  0  0  0  0  0
    9.7170   14.6150    3.0040 N   0  0  0  0  0  0  0  0  0  0  0  0
    9.1820   14.8930    3.8270 H   0  0  0  0  0  0  0  0  0  0  0  0
   10.3770   15.3530    2.7620 H   0  0  0  0  0  0  0  0  0  0  0  0
    9.0820   14.4580    2.2210 H   0  0  0  0  0  0  0  0  0  0  0  0
    7.5220   11.1140    2.1500 C   0  0  0  0  0  0  0  0  0  0  0  0
    6.5240   11.5710    1.3510 O   0  0  0  0  0  0  0  0  0  0  0  0
    7.3280   10.1550    2.8960 O   0  0  0  0  0  0  0  0  0  0  0  0
  1  2  2  0  0  0  0
  2  3  1  0  0  0  0
  4 19  1  6  0  0  0
  4  3  1  0  0  0  0
  5 14  1  1  0  0  0
  5  4  1  0  0  0  0
  6  7  1  6  0  0  0
  6  1  1  0  0  0  0
  6  5  1  0  0  0  0
  7  8  1  0  0  0  0
  9  7  1  0  0  0  0
 10  9  1  0  0  0  0
 11 12  1  0  0  0  0
 11 10  1  0  0  0  0
 12 13  1  0  0  0  0
 13  7  1  0  0  0  0
 14 16  1  0  0  0  0
 15 14  1  0  0  0  0
 16 17  2  0  0  0  0
 16 18  1  0  0  0  0
 19 20  1  0  0  0  0
 21 19  1  0  0  0  0
 22 19  1  0  0  0  0
 23  2  1  0  0  0  0
 23 25  1  0  0  0  0
 24 23  2  0  0  0  0
M  END
>  <MODEL>
1

>  <REMARK>
 VINA RESULT:      -6.3      0.000      0.000
  Name = BDB5257
                            x       y       z     vdW  Elec       q    Type
                         _______ _______ _______ _____ _____    ______ ____

>  <TORSDO>
F 4

>  <vina_score>
-6.3

$$$$
BDB5204
 OpenBabel01041719533D

 23 23  0  0  1  0  0  0  0  0999 V2000
    8.8560   10.6580    2.1890 C   0  0  0  0  0  0  0  0  0  0  0  0
   10.0850   11.5270    2.1180 C   0  0  2  0  0  0  0  0  0  0  0  0
   10.1290   11.7310    0.6100 C   0  0  1  0  0  0  0  0  0  0  0  0
    8.7360   12.1090    0.2520 N   0  0  0  0  0  0  0  0  0  0  0  0
    8.4490   11.7390   -0.6540 H   0  0  0  0  0  0  0  0  0  0  0  0
    8.6410   13.1220    0.1870 H   0  0  0  0  0  0  0  0  0  0  0  0
    7.9100   11.5690    1.3830 C   0  0  1  0  0  0  0  0  0  0  0  0
   11.3170   10.8320    2.6250 C   0  0  0  0  0  0  0  0  0  0  0  0
   12.2150   11.5080    3.3390 C   0  0  0  0  0  0  0  0  0  0  0  0
   11.9940   12.9620    3.6370 C   0  0  0  0  0  0  0  0  0  0  0  0
    6.6840   10.8400    0.9140 C   0  0  0  0  0  0  0  0  0  0  0  0
    5.5540   10.8600    1.6670 O   0  0  0  0  0  0  0  0  0  0  0  0
    6.7060   10.2190   -0.1540 O   0  0  0  0  0  0  0  0  0  0  0  0
   10.1890   13.1150   -0.1780 C   0  0  1  0  0  0  0  0  0  0  0  0
   10.2100   14.1630    0.9240 N   0  0  0  0  0  0  0  0  0  0  0  0
   10.9000   13.8780    1.5660 H   0  0  0  0  0  0  0  0  0  0  0  0
    9.6730   15.3650    1.4290 C   0  0  0  0  0  0  0  0  0  0  0  0
    9.2110   15.3920    2.5720 O   0  0  0  0  0  0  0  0  0  0  0  0
    9.6680   16.6210    0.5940 C   0  0  0  0  0  0  0  0  0  0  0  0
   11.7100   13.1890   -0.8380 C   0  0  0  0  0  0  0  0  0  0  0  0
   10.8460   14.1120   -1.7500 C   0  0  0  0  0  0  0  0  0  0  0  0
   11.6400   15.3430   -2.2390 C   0  0  0  0  0  0  0  0  0  0  0  0
   10.3970   13.3060   -2.9810 C   0  0  0  0  0  0  0  0  0  0  0  0
  2  1  1  0  0  0  0
  2  8  1  6  0  0  0
  3  4  1  6  0  0  0
  3  2  1  0  0  0  0
  4  7  1  0  0  0  0
  5  4  1  0  0  0  0
  6  4  1  0  0  0  0
  7 11  1  6  0  0  0
  7  1  1  0  0  0  0
  8  9  2  0  0  0  0
  9 10  1  0  0  0  0
 11 12  1  0  0  0  0
 13 11  2  0  0  0  0
 14 20  1  1  0  0  0
 14  3  1  0  0  0  0
 14 15  1  0  0  0  0
 15 17  1  0  0  0  0
 15 16  1  0  0  0  0
 17 18  2  0  0  0  0
 19 17  1  0  0  0  0
 21 20  1  0  0  0  0
 22 21  1  0  0  0  0
 23 21  1  0  0  0  0
M  END
>  <MODEL>
1

>  <REMARK>
 VINA RESULT:      -6.2      0.000      0.000
  Name = BDB5204
                            x       y       z     vdW  Elec       q    Type
                         _______ _______ _______ _____ _____    ______ ____

>  <TORSDO>
F 6

>  <vina_score>
-6.2

$$$$
BDB4937
 OpenBabel01041719553D

 25 25  0  0  1  0  0  0  0  0999 V2000
    7.4280   11.0760    0.6460 C   0  0  0  0  0  0  0  0  0  0  0  0
    8.1270   10.3040    1.4840 C   0  0  0  0  0  0  0  0  0  0  0  0
    9.5790   10.5230    1.7090 C   0  0  1  0  0  0  0  0  0  0  0  0
    9.8980   11.9850    1.4490 C   0  0  2  0  0  0  0  0  0  0  0  0
    9.4460   12.2580    0.0270 C   0  0  1  0  0  0  0  0  0  0  0  0
    8.0100   12.1420   -0.0910 O   0  0  0  0  0  0  0  0  0  0  0  0
   11.3520   12.1720    1.5530 N   0  0  0  0  0  0  0  0  0  0  0  0
   11.8970   11.8410    0.8030 H   0  0  0  0  0  0  0  0  0  0  0  0
   12.0580   12.7920    2.6420 C   0  0  0  0  0  0  0  0  0  0  0  0
   13.2890   12.8710    2.5720 O   0  0  0  0  0  0  0  0  0  0  0  0
   11.3700   13.3550    3.8710 C   0  0  0  0  0  0  0  0  0  0  0  0
    9.9490   10.1540    3.0830 N   0  0  0  0  0  0  0  0  0  0  0  0
   10.7330   10.7310    3.3900 H   0  0  0  0  0  0  0  0  0  0  0  0
    9.1540   10.3050    3.7020 H   0  0  0  0  0  0  0  0  0  0  0  0
   10.2200    9.1710    3.1090 H   0  0  0  0  0  0  0  0  0  0  0  0
    5.9890   10.8370    0.5090 C   0  0  0  0  0  0  0  0  0  0  0  0
    5.4360   10.7150   -0.7260 O   0  0  0  0  0  0  0  0  0  0  0  0
    5.2790   10.7470    1.5170 O   0  0  0  0  0  0  0  0  0  0  0  0
    9.8650   13.6670   -0.4070 C   0  0  0  0  0  0  0  0  0  0  0  0
    9.7300   14.5880    0.4080 O   0  0  0  0  0  0  0  0  0  0  0  0
   10.3800   13.9890   -1.6990 N   0  0  0  0  0  0  0  0  0  0  0  0
   10.4670   13.0180   -2.7670 C   0  0  0  0  0  0  0  0  0  0  0  0
    9.2580   13.1710   -3.7160 C   0  0  0  0  0  0  0  0  0  0  0  0
   10.7740   15.3510   -1.9570 C   0  0  0  0  0  0  0  0  0  0  0  0
   12.2760   15.5440   -1.6580 C   0  0  0  0  0  0  0  0  0  0  0  0
  1  2  2  0  0  0  0
  2  3  1  0  0  0  0
  3 12  1  1  0  0  0
  4  7  1  6  0  0  0
  4  3  1  0  0  0  0
  5 19  1  1  0  0  0
  5  4  1  0  0  0  0
  6  5  1  0  0  0  0
  6  1  1  0  0  0  0
  7  9  1  0  0  0  0
  8  7  1  0  0  0  0
  9 11  1  0  0  0  0
 10  9  2  0  0  0  0
 12 15  1  0  0  0  0
 12 13  1  0  0  0  0
 12 14  1  0  0  0  0
 16  1  1  0  0  0  0
 16 18  1  0  0  0  0
 17 16  2  0  0  0  0
 19 20  2  0  0  0  0
 21 19  1  0  0  0  0
 22 21  1  0  0  0  0
 23 22  1  0  0  0  0
 24 21  1  0  0  0  0
 24 25  1  0  0  0  0
M  END
>  <MODEL>
1

>  <REMARK>
 VINA RESULT:      -6.2      0.000      0.000
  Name = BDB4937
                            x       y       z     vdW  Elec       q    Type
                         _______ _______ _______ _____ _____    ______ ____

>  <TORSDO>
F 6

>  <vina_score>
-6.2

$$$$
BDB5195
 OpenBabel01041719533D

 24 24  0  0  1  0  0  0  0  0999 V2000
    8.6620   11.1150    2.5140 C   0  0  0  0  0  0  0  0  0  0  0  0
    9.8990   11.9740    2.5330 C   0  0  2  0  0  0  0  0  0  0  0  0
   10.1440   12.0480    1.0320 C   0  0  1  0  0  0  0  0  0  0  0  0
    8.8150   12.3920    0.4610 N   0  0  0  0  0  0  0  0  0  0  0  0
    8.6460   11.9450   -0.4400 H   0  0  0  0  0  0  0  0  0  0  0  0
    8.7410   13.3960    0.2970 H   0  0  0  0  0  0  0  0  0  0  0  0
    7.8410   11.9510    1.5140 C   0  0  1  0  0  0  0  0  0  0  0  0
    6.6790   11.1850    0.9510 C   0  0  0  0  0  0  0  0  0  0  0  0
    6.6450   10.8780   -0.3710 O   0  0  0  0  0  0  0  0  0  0  0  0
    5.7530   10.8370    1.6920 O   0  0  0  0  0  0  0  0  0  0  0  0
   11.0440   11.3290    3.2570 C   0  0  0  0  0  0  0  0  0  0  0  0
   10.8220   10.5270    4.1720 O   0  0  0  0  0  0  0  0  0  0  0  0
   12.3530   11.6330    2.8940 O   0  0  0  0  0  0  0  0  0  0  0  0
   12.7530   12.8580    3.5120 C   0  0  0  0  0  0  0  0  0  0  0  0
   10.3240   13.3580    0.1430 C   0  0  1  0  0  0  0  0  0  0  0  0
   10.2670   14.4950    1.1520 N   0  0  0  0  0  0  0  0  0  0  0  0
   10.9510   14.2970    1.8320 H   0  0  0  0  0  0  0  0  0  0  0  0
    9.6640   15.7090    1.5390 C   0  0  0  0  0  0  0  0  0  0  0  0
    9.1690   15.8110    2.6630 O   0  0  0  0  0  0  0  0  0  0  0  0
    9.6270   16.8880    0.6000 C   0  0  0  0  0  0  0  0  0  0  0  0
   11.9040   13.3430   -0.3640 C   0  0  0  0  0  0  0  0  0  0  0  0
   11.1540   14.1650   -1.4560 C   0  0  0  0  0  0  0  0  0  0  0  0
   11.9410   15.4280   -1.8670 C   0  0  0  0  0  0  0  0  0  0  0  0
   10.9750   13.2800   -2.7020 C   0  0  0  0  0  0  0  0  0  0  0  0
  1  2  1  0  0  0  0
  2 11  1  1  0  0  0
  3  4  1  6  0  0  0
  3  2  1  0  0  0  0
  4  7  1  0  0  0  0
  5  4  1  0  0  0  0
  6  4  1  0  0  0  0
  7  8  1  6  0  0  0
  7  1  1  0  0  0  0
  8 10  1  0  0  0  0
  9  8  2  0  0  0  0
 11 12  2  0  0  0  0
 13 11  1  0  0  0  0
 13 14  1  0  0  0  0
 15 21  1  1  0  0  0
 15  3  1  0  0  0  0
 15 16  1  0  0  0  0
 16 18  1  0  0  0  0
 16 17  1  0  0  0  0
 18 19  2  0  0  0  0
 20 18  1  0  0  0  0
 22 21  1  0  0  0  0
 23 22  1  0  0  0  0
 24 22  1  0  0  0  0
M  END
>  <MODEL>
1

>  <REMARK>
 VINA RESULT:      -6.2      0.000      0.000
  Name = BDB5195
                            x       y       z     vdW  Elec       q    Type
                         _______ _______ _______ _____ _____    ______ ____

>  <TORSDO>
F 7

>  <vina_score>
-6.2

$$$$
BDB5228
 OpenBabel01041719563D

 29 30  0  0  1  0  0  0  0  0999 V2000
    8.7660   12.9900    2.7350 C   0  0  0  0  0  0  0  0  0  0  0  0
    9.4290   11.8930    3.1600 C   0  0  0  0  0  0  0  0  0  0  0  0
   10.2500   10.9430    2.2230 C   0  0  0  0  0  0  0  0  0  0  0  0
   10.6130   11.5960    0.8970 C   0  0  1  0  0  0  0  0  0  0  0  0
    9.3570   12.3310    0.3550 C   0  0  2  0  0  0  0  0  0  0  0  0
    8.8080   13.4840    1.3210 C   0  0  2  0  0  0  0  0  0  0  0  0
    8.3240   11.2670   -0.0750 N   0  0  0  0  0  0  0  0  0  0  0  0
    8.5170   10.3700    0.2820 H   0  0  0  0  0  0  0  0  0  0  0  0
    7.0980   11.3130   -0.9140 C   0  0  0  0  0  0  0  0  0  0  0  0
    6.4090   10.2880   -0.9210 O   0  0  0  0  0  0  0  0  0  0  0  0
    6.6240   12.4200   -1.8080 C   0  0  0  0  0  0  0  0  0  0  0  0
   11.7290   12.4270    1.1460 N   0  0  0  0  0  0  0  0  0  0  0  0
   12.5670   11.8540    1.2360 H   0  0  0  0  0  0  0  0  0  0  0  0
   11.8450   13.0810    0.3720 H   0  0  0  0  0  0  0  0  0  0  0  0
   11.5790   12.9470    2.0110 H   0  0  0  0  0  0  0  0  0  0  0  0
    9.2470   11.5040    4.5460 C   0  0  0  0  0  0  0  0  0  0  0  0
    8.4750   10.4330    4.8510 O   0  0  0  0  0  0  0  0  0  0  0  0
    9.7310   12.1990    5.4450 O   0  0  0  0  0  0  0  0  0  0  0  0
    9.5520   14.8630    1.3450 N   0  0  0  0  0  0  0  0  0  0  0  0
   10.5200   14.5440    1.3140 H   0  0  0  0  0  0  0  0  0  0  0  0
    9.3600   15.6100    2.6050 C   0  0  0  0  0  0  0  0  0  0  0  0
    9.5380   15.7250    0.1200 C   0  0  0  0  0  0  0  0  0  0  0  0
   10.8050   15.5690   -0.7710 C   0  0  0  0  0  0  0  0  0  0  0  0
   10.4760   14.6880   -1.9810 C   0  0  0  0  0  0  0  0  0  0  0  0
    9.2310   14.7880   -2.6090 C   0  0  0  0  0  0  0  0  0  0  0  0
    8.9290   13.9690   -3.6870 C   0  0  0  0  0  0  0  0  0  0  0  0
    9.8570   13.0340   -4.1450 C   0  0  0  0  0  0  0  0  0  0  0  0
   11.0900   12.9300   -3.5240 C   0  0  0  0  0  0  0  0  0  0  0  0
   11.3930   13.7630   -2.4480 C   0  0  0  0  0  0  0  0  0  0  0  0
  1  2  2  0  0  0  0
  2 16  1  0  0  0  0
  3  2  1  0  0  0  0
  4 12  1  1  0  0  0
  4  3  1  0  0  0  0
  5  7  1  1  0  0  0
  5  4  1  0  0  0  0
  5  6  1  0  0  0  0
  6 19  1  1  0  0  0
  6  1  1  0  0  0  0
  7  8  1  0  0  0  0
  9  7  1  0  0  0  0
 10  9  2  0  0  0  0
 11  9  1  0  0  0  0
 12 13  1  0  0  0  0
 12 15  1  0  0  0  0
 14 12  1  0  0  0  0
 16 17  2  0  0  0  0
 16 18  1  0  0  0  0
 19 21  1  0  0  0  0
 20 19  1  0  0  0  0
 22 19  1  0  0  0  0
 23 22  1  0  0  0  0
 24 23  1  0  0  0  0
 25 24  2  0  0  0  0
 26 25  1  0  0  0  0
 27 26  2  0  0  0  0
 27 28  1  0  0  0  0
 28 29  2  0  0  0  0
 29 24  1  0  0  0  0
M  END
>  <MODEL>
1

>  <REMARK>
 VINA RESULT:      -6.2      0.000      0.000
  Name = BDB5228
                            x       y       z     vdW  Elec       q    Type
                         _______ _______ _______ _____ _____    ______ ____

>  <TORSDO>
F 7

>  <vina_score>
-6.2

$$$$
BDB5219
 OpenBabel01041719573D

 24 24  0  0  1  0  0  0  0  0999 V2000
    9.8080   11.8540    1.0660 C   0  0  0  0  0  0  0  0  0  0  0  0
    8.8190   12.2590    1.8980 C   0  0  0  0  0  0  0  0  0  0  0  0
    8.8730   13.5730    2.7030 C   0  0  0  0  0  0  0  0  0  0  0  0
    9.8700   14.5930    2.1290 C   0  0  1  0  0  0  0  0  0  0  0  0
   11.1960   13.8260    1.8770 C   0  0  2  0  0  0  0  0  0  0  0  0
   11.0550   12.6660    0.8240 C   0  0  2  0  0  0  0  0  0  0  0  0
    9.2630   15.2480    0.9770 N   0  0  0  0  0  0  0  0  0  0  0  0
    9.1720   16.2470    1.1640 H   0  0  0  0  0  0  0  0  0  0  0  0
    9.8530   15.1080    0.1570 H   0  0  0  0  0  0  0  0  0  0  0  0
    8.3400   14.8490    0.8070 H   0  0  0  0  0  0  0  0  0  0  0  0
    7.7040   11.3480    2.1040 C   0  0  0  0  0  0  0  0  0  0  0  0
    7.8590   10.2790    2.9300 O   0  0  0  0  0  0  0  0  0  0  0  0
    6.6480   11.5110    1.4970 O   0  0  0  0  0  0  0  0  0  0  0  0
   11.6400   13.3770    3.2280 N   0  0  0  0  0  0  0  0  0  0  0  0
   12.8910   12.8270    3.6500 C   0  0  0  0  0  0  0  0  0  0  0  0
   13.8380   13.5190    4.0240 O   0  0  0  0  0  0  0  0  0  0  0  0
   13.0700   11.3430    3.5950 C   0  0  0  0  0  0  0  0  0  0  0  0
   11.9030   10.7220    3.9930 F   0  0  0  0  0  0  0  0  0  0  0  0
   14.0940   10.9800    4.4410 F   0  0  0  0  0  0  0  0  0  0  0  0
   13.3840   10.9620    2.3050 F   0  0  0  0  0  0  0  0  0  0  0  0
   11.0980   13.1420   -0.5690 O   0  0  0  0  0  0  0  0  0  0  0  0
   12.2680   13.8670   -0.9500 C   0  0  0  0  0  0  0  0  0  0  0  0
   11.8050   15.1600   -1.6600 C   0  0  0  0  0  0  0  0  0  0  0  0
   10.4890   14.9020   -2.4130 C   0  0  0  0  0  0  0  0  0  0  0  0
  1  2  2  0  0  0  0
  2 11  1  0  0  0  0
  2  3  1  0  0  0  0
  4  7  1  6  0  0  0
  4  3  1  0  0  0  0
  5  4  1  0  0  0  0
  5 14  1  1  0  0  0
  6 21  1  6  0  0  0
  6  1  1  0  0  0  0
  6  5  1  0  0  0  0
  7  8  1  0  0  0  0
  9  7  1  0  0  0  0
 10  7  1  0  0  0  0
 11 12  1  0  0  0  0
 13 11  2  0  0  0  0
 14 15  1  0  0  0  0
 15 16  2  0  0  0  0
 17 15  1  0  0  0  0
 17 18  1  0  0  0  0
 17 19  1  0  0  0  0
 20 17  1  0  0  0  0
 22 21  1  0  0  0  0
 23 22  1  0  0  0  0
 24 23  1  0  0  0  0
M  END
>  <MODEL>
1

>  <REMARK>
 VINA RESULT:      -6.2      0.000      0.000
  Name = BDB5219
                            x       y       z     vdW  Elec       q    Type
                         _______ _______ _______ _____ _____    ______ ____

>  <TORSDO>
F 8

>  <vina_score>
-6.2

$$$$
BDB4983
 OpenBabel01041719563D

 22 22  0  0  1  0  0  0  0  0999 V2000
    8.3870   12.4160   -0.0990 C   0  0  0  0  0  0  0  0  0  0  0  0
    7.8570   11.7840    0.9780 C   0  0  0  0  0  0  0  0  0  0  0  0
    8.4680   11.8720    2.3900 C   0  0  0  0  0  0  0  0  0  0  0  0
    9.3500   13.1140    2.5700 C   0  0  1  0  0  0  0  0  0  0  0  0
   10.3480   13.1640    1.3660 C   0  0  2  0  0  0  0  0  0  0  0  0
    9.6070   13.3020   -0.0120 C   0  0  2  0  0  0  0  0  0  0  0  0
   11.3110   12.0040    1.5470 N   0  0  0  0  0  0  0  0  0  0  0  0
   11.0440   11.1870    1.0670 H   0  0  0  0  0  0  0  0  0  0  0  0
   12.5570   11.8690    2.3000 C   0  0  0  0  0  0  0  0  0  0  0  0
   13.1590   10.7970    2.1710 O   0  0  0  0  0  0  0  0  0  0  0  0
   13.1650   12.8700    3.2350 C   0  0  0  0  0  0  0  0  0  0  0  0
    8.4720   14.2700    2.7270 N   0  0  0  0  0  0  0  0  0  0  0  0
    8.9870   15.0290    3.1730 H   0  0  0  0  0  0  0  0  0  0  0  0
    8.1430   14.5740    1.8120 H   0  0  0  0  0  0  0  0  0  0  0  0
    7.6740   14.0140    3.3080 H   0  0  0  0  0  0  0  0  0  0  0  0
    6.7170   10.9060    0.7370 C   0  0  0  0  0  0  0  0  0  0  0  0
    5.6890   10.8870    1.6290 O   0  0  0  0  0  0  0  0  0  0  0  0
    6.7050   10.1540   -0.2330 O   0  0  0  0  0  0  0  0  0  0  0  0
    9.2360   14.7010   -0.2490 O   0  0  0  0  0  0  0  0  0  0  0  0
   10.3060   15.6510   -0.2360 C   0  0  0  0  0  0  0  0  0  0  0  0
   11.1130   15.4170   -1.5380 C   0  0  0  0  0  0  0  0  0  0  0  0
   12.5310   14.9260   -1.2070 C   0  0  0  0  0  0  0  0  0  0  0  0
  1  6  1  0  0  0  0
  1  2  2  0  0  0  0
  2  3  1  0  0  0  0
  3  4  1  0  0  0  0
  4 12  1  6  0  0  0
  5  7  1  6  0  0  0
  5  4  1  0  0  0  0
  6 19  1  1  0  0  0
  6  5  1  0  0  0  0
  7  9  1  0  0  0  0
  8  7  1  0  0  0  0
  9 11  1  0  0  0  0
 10  9  2  0  0  0  0
 12 13  1  0  0  0  0
 12 15  1  0  0  0  0
 14 12  1  0  0  0  0
 16  2  1  0  0  0  0
 16 17  1  0  0  0  0
 18 16  2  0  0  0  0
 19 20  1  0  0  0  0
 21 22  1  0  0  0  0
 21 20  1  0  0  0  0
M  END
>  <MODEL>
1

>  <REMARK>
 VINA RESULT:      -6.2      0.000      0.000
  Name = BDB4983
                            x       y       z     vdW  Elec       q    Type
                         _______ _______ _______ _____ _____    ______ ____

>  <TORSDO>
F 6

>  <vina_score>
-6.2

$$$$
BDB4948
 OpenBabel01041720013D

 33 33  0  0  1  0  0  0  0  0999 V2000
    8.7730   11.1430    2.0830 C   0  0  0  0  0  0  0  0  0  0  0  0
    8.8650   11.2190    3.4150 C   0  0  0  0  0  0  0  0  0  0  0  0
   10.0180   11.8840    4.0750 C   0  0  1  0  0  0  0  0  0  0  0  0
   10.5800   12.9340    3.1330 C   0  0  2  0  0  0  0  0  0  0  0  0
   10.9410   12.1920    1.8600 C   0  0  1  0  0  0  0  0  0  0  0  0
    9.7590   11.6740    1.2090 O   0  0  0  0  0  0  0  0  0  0  0  0
   11.7920   13.5030    3.7370 N   0  0  0  0  0  0  0  0  0  0  0  0
   11.7630   14.4590    3.9740 H   0  0  0  0  0  0  0  0  0  0  0  0
   13.0170   12.8050    4.0160 C   0  0  0  0  0  0  0  0  0  0  0  0
   13.9480   13.4360    4.5290 O   0  0  0  0  0  0  0  0  0  0  0  0
   13.2280   11.3340    3.7130 C   0  0  0  0  0  0  0  0  0  0  0  0
    9.6010   12.5020    5.3410 N   0  0  0  0  0  0  0  0  0  0  0  0
    9.2660   13.4490    5.1630 H   0  0  0  0  0  0  0  0  0  0  0  0
    8.8510   11.9510    5.7580 H   0  0  0  0  0  0  0  0  0  0  0  0
   10.3950   12.5360    5.9810 H   0  0  0  0  0  0  0  0  0  0  0  0
    7.5850   10.5170    1.4980 C   0  0  0  0  0  0  0  0  0  0  0  0
    7.5840   10.1530    0.1890 O   0  0  0  0  0  0  0  0  0  0  0  0
    6.5830   10.3220    2.1950 O   0  0  0  0  0  0  0  0  0  0  0  0
   11.6710   13.1250    0.8850 C   0  0  0  0  0  0  0  0  0  0  0  0
   12.8500   12.8740    0.6180 O   0  0  0  0  0  0  0  0  0  0  0  0
   11.0800   14.2800    0.2840 N   0  0  0  0  0  0  0  0  0  0  0  0
    9.7460   14.7360    0.6090 C   0  0  0  0  0  0  0  0  0  0  0  0
    9.7620   16.2480    0.9420 C   0  0  0  0  0  0  0  0  0  0  0  0
    9.4130   16.4470    2.4270 C   0  0  0  0  0  0  0  0  0  0  0  0
   11.8730   15.0340   -0.6610 C   0  0  0  0  0  0  0  0  0  0  0  0
   12.4670   14.1010   -1.7340 C   0  0  0  0  0  0  0  0  0  0  0  0
   11.5670   14.0890   -2.9780 C   0  0  0  0  0  0  0  0  0  0  0  0
   10.5970   12.9020   -2.8720 C   0  0  0  0  0  0  0  0  0  0  0  0
    9.4650   13.0600   -3.8990 C   0  0  0  0  0  0  0  0  0  0  0  0
    8.7060   14.3670   -3.6130 C   0  0  0  0  0  0  0  0  0  0  0  0
    8.0640   14.2970   -2.2190 C   0  0  0  0  0  0  0  0  0  0  0  0
    7.9530   12.8250   -1.7840 C   0  0  0  0  0  0  0  0  0  0  0  0
    6.4910   12.3610   -1.9090 C   0  0  0  0  0  0  0  0  0  0  0  0
  1  2  2  0  0  0  0
  2  3  1  0  0  0  0
  3 12  1  1  0  0  0
  4  7  1  1  0  0  0
  4  3  1  0  0  0  0
  5 19  1  6  0  0  0
  5  4  1  0  0  0  0
  6  5  1  0  0  0  0
  6  1  1  0  0  0  0
  7  8  1  0  0  0  0
  7  9  1  0  0  0  0
  9 10  2  0  0  0  0
 11  9  1  0  0  0  0
 12 14  1  0  0  0  0
 12 15  1  0  0  0  0
 13 12  1  0  0  0  0
 16  1  1  0  0  0  0
 16 18  1  0  0  0  0
 17 16  2  0  0  0  0
 20 19  2  0  0  0  0
 21 22  1  0  0  0  0
 21 19  1  0  0  0  0
 22 23  1  0  0  0  0
 23 24  1  0  0  0  0
 25 21  1  0  0  0  0
 26 25  1  0  0  0  0
 27 28  1  0  0  0  0
 27 26  1  0  0  0  0
 29 30  1  0  0  0  0
 29 28  1  0  0  0  0
 30 31  1  0  0  0  0
 31 32  1  0  0  0  0
 33 32  1  0  0  0  0
M  END
>  <MODEL>
1

>  <REMARK>
 VINA RESULT:      -6.1      0.000      0.000
  Name = BDB4948
                            x       y       z     vdW  Elec       q    Type
                         _______ _______ _______ _____ _____    ______ ____

>  <TORSDO>
F 14

>  <vina_score>
-6.1

$$$$
BDB5242
 OpenBabel01041719573D

 22 22  0  0  1  0  0  0  0  0999 V2000
    8.4070   12.2730   -0.1800 C   0  0  0  0  0  0  0  0  0  0  0  0
    7.8690   11.7090    0.9280 C   0  0  0  0  0  0  0  0  0  0  0  0
    8.4970   11.8280    2.3410 C   0  0  0  0  0  0  0  0  0  0  0  0
    9.3870   13.0680    2.4800 C   0  0  1  0  0  0  0  0  0  0  0  0
   10.3650   13.0660    1.2580 C   0  0  2  0  0  0  0  0  0  0  0  0
    9.6520   13.1250   -0.1510 C   0  0  2  0  0  0  0  0  0  0  0  0
   11.3050   11.8890    1.4970 N   0  0  0  0  0  0  0  0  0  0  0  0
   11.0620   11.0770    0.9980 H   0  0  0  0  0  0  0  0  0  0  0  0
   12.5030   11.7370    2.3310 C   0  0  0  0  0  0  0  0  0  0  0  0
   13.0940   10.6540    2.2470 O   0  0  0  0  0  0  0  0  0  0  0  0
   13.0730   12.7320    3.2990 C   0  0  0  0  0  0  0  0  0  0  0  0
    8.5180   14.2220    2.6530 N   0  0  0  0  0  0  0  0  0  0  0  0
    8.4530   14.4520    3.6450 H   0  0  0  0  0  0  0  0  0  0  0  0
    8.9040   15.0170    2.1440 H   0  0  0  0  0  0  0  0  0  0  0  0
    7.5890   14.0040    2.2930 H   0  0  0  0  0  0  0  0  0  0  0  0
    6.6920   10.8700    0.7410 C   0  0  0  0  0  0  0  0  0  0  0  0
    5.7220   10.8500    1.6910 O   0  0  0  0  0  0  0  0  0  0  0  0
    6.5970   10.1540   -0.2570 O   0  0  0  0  0  0  0  0  0  0  0  0
    9.2820   14.5860   -0.6580 C   0  0  0  0  0  0  0  0  0  0  0  0
   10.3910   15.6290   -0.5610 C   0  0  0  0  0  0  0  0  0  0  0  0
   11.4110   15.4550   -1.6900 C   0  0  0  0  0  0  0  0  0  0  0  0
   12.6630   14.7630   -1.1160 C   0  0  0  0  0  0  0  0  0  0  0  0
  1  6  1  0  0  0  0
  1  2  2  0  0  0  0
  2  3  1  0  0  0  0
  3  4  1  0  0  0  0
  4 12  1  6  0  0  0
  5  7  1  6  0  0  0
  5  4  1  0  0  0  0
  6 19  1  1  0  0  0
  6  5  1  0  0  0  0
  7  9  1  0  0  0  0
  8  7  1  0  0  0  0
  9 11  1  0  0  0  0
 10  9  2  0  0  0  0
 12 13  1  0  0  0  0
 14 12  1  0  0  0  0
 15 12  1  0  0  0  0
 16  2  1  0  0  0  0
 16 17  1  0  0  0  0
 18 16  2  0  0  0  0
 19 20  1  0  0  0  0
 21 22  1  0  0  0  0
 21 20  1  0  0  0  0
M  END
>  <MODEL>
1

>  <REMARK>
 VINA RESULT:      -6.1      0.000      0.000
  Name = BDB5242
                            x       y       z     vdW  Elec       q    Type
                         _______ _______ _______ _____ _____    ______ ____

>  <TORSDO>
F 6

>  <vina_score>
-6.1

$$$$
BDB4997
 OpenBabel01041719563D

 29 29  0  0  1  0  0  0  0  0999 V2000
   10.8680   12.5560    1.2540 C   0  0  0  0  0  0  0  0  0  0  0  0
   11.3170   12.3090    2.5030 C   0  0  0  0  0  0  0  0  0  0  0  0
   10.4470   12.4620    3.7770 C   0  0  0  0  0  0  0  0  0  0  0  0
    8.9450   12.3830    3.4910 C   0  0  1  0  0  0  0  0  0  0  0  0
    8.6260   13.2920    2.2520 C   0  0  2  0  0  0  0  0  0  0  0  0
    9.4480   12.9250    0.9260 C   0  0  2  0  0  0  0  0  0  0  0  0
    8.7660   14.7380    2.7460 N   0  0  0  0  0  0  0  0  0  0  0  0
    8.3730   14.8930    3.6370 H   0  0  0  0  0  0  0  0  0  0  0  0
    9.3730   15.9390    2.1520 C   0  0  0  0  0  0  0  0  0  0  0  0
    9.5330   16.9030    2.9090 O   0  0  0  0  0  0  0  0  0  0  0  0
    9.7400   16.1560    0.7130 C   0  0  0  0  0  0  0  0  0  0  0  0
    8.6030   11.0070    3.3720 N   0  0  0  0  0  0  0  0  0  0  0  0
    9.1340   10.5900    2.6070 H   0  0  0  0  0  0  0  0  0  0  0  0
    8.8250   10.5250    4.2430 H   0  0  0  0  0  0  0  0  0  0  0  0
    7.6050   10.9200    3.1800 H   0  0  0  0  0  0  0  0  0  0  0  0
   12.7300   11.9850    2.6390 C   0  0  0  0  0  0  0  0  0  0  0  0
   13.2100   10.8210    2.1360 O   0  0  0  0  0  0  0  0  0  0  0  0
   13.4840   12.7580    3.2360 O   0  0  0  0  0  0  0  0  0  0  0  0
    8.9240   11.8640   -0.0420 O   0  0  0  0  0  0  0  0  0  0  0  0
    8.2000   12.2360   -1.2460 C   0  0  1  0  0  0  0  0  0  0  0  0
    6.7630   11.6410   -1.2340 C   0  0  0  0  0  0  0  0  0  0  0  0
    6.6440   10.5260   -0.1770 C   0  0  0  0  0  0  0  0  0  0  0  0
    8.0240   13.7590   -1.3680 C   0  0  0  0  0  0  0  0  0  0  0  0
    8.5930   14.1000   -2.7660 C   0  0  0  0  0  0  0  0  0  0  0  0
    9.5320   13.0300   -3.3300 C   0  0  0  0  0  0  0  0  0  0  0  0
   10.9570   13.6180   -3.2400 C   0  0  0  0  0  0  0  0  0  0  0  0
   11.6990   13.1060   -1.9980 C   0  0  0  0  0  0  0  0  0  0  0  0
   12.3410   14.3120   -1.2830 C   0  0  0  0  0  0  0  0  0  0  0  0
   11.9270   15.6160   -1.9860 C   0  0  0  0  0  0  0  0  0  0  0  0
  1  2  2  0  0  0  0
  2 16  1  0  0  0  0
  2  3  1  0  0  0  0
  4 12  1  6  0  0  0
  4  3  1  0  0  0  0
  5  7  1  1  0  0  0
  5  4  1  0  0  0  0
  6 19  1  1  0  0  0
  6  1  1  0  0  0  0
  6  5  1  0  0  0  0
  7  8  1  0  0  0  0
  9  7  1  0  0  0  0
  9 10  2  0  0  0  0
 11  9  1  0  0  0  0
 12 14  1  0  0  0  0
 13 12  1  0  0  0  0
 15 12  1  0  0  0  0
 16 18  1  0  0  0  0
 17 16  2  0  0  0  0
 20 23  1  1  0  0  0
 20 21  1  0  0  0  0
 20 19  1  0  0  0  0
 21 22  1  0  0  0  0
 24 23  1  0  0  0  0
 25 26  1  0  0  0  0
 25 24  1  0  0  0  0
 26 27  1  0  0  0  0
 27 28  1  0  0  0  0
 29 28  1  0  0  0  0
M  END
>  <MODEL>
1

>  <REMARK>
 VINA RESULT:      -6.1      0.000      0.000
  Name = BDB4997
                            x       y       z     vdW  Elec       q    Type
                         _______ _______ _______ _____ _____    ______ ____

>  <TORSDO>
F 12

>  <vina_score>
-6.1

$$$$
BDB5025
 OpenBabel01041719543D

 26 26  0  0  1  0  0  0  0  0999 V2000
    9.0510   12.7550    1.4860 C   0  0  0  0  0  0  0  0  0  0  0  0
    9.0490   13.7410    0.3520 C   0  0  2  0  0  0  0  0  0  0  0  0
    8.6690   13.0750   -0.9720 C   0  0  1  0  0  0  0  0  0  0  0  0
    7.3370   12.3780   -0.7500 C   0  0  2  0  0  0  0  0  0  0  0  0
    7.5570   11.2070    0.2230 C   0  0  0  0  0  0  0  0  0  0  0  0
    8.3650   11.6110    1.4390 C   0  0  0  0  0  0  0  0  0  0  0  0
    8.5200   14.1230   -1.9920 N   0  0  0  0  0  0  0  0  0  0  0  0
    8.0460   14.9410   -1.7210 H   0  0  0  0  0  0  0  0  0  0  0  0
    8.9980   14.0680   -3.3470 C   0  0  0  0  0  0  0  0  0  0  0  0
    8.7890   15.0400   -4.0810 O   0  0  0  0  0  0  0  0  0  0  0  0
    9.7470   12.8820   -3.9230 C   0  0  0  0  0  0  0  0  0  0  0  0
    6.8230   11.8450   -2.0200 N   0  0  0  0  0  0  0  0  0  0  0  0
    7.3720   11.0290   -2.2930 H   0  0  0  0  0  0  0  0  0  0  0  0
    5.8460   11.5740   -1.9030 H   0  0  0  0  0  0  0  0  0  0  0  0
    6.8930   12.5610   -2.7430 H   0  0  0  0  0  0  0  0  0  0  0  0
    8.4260   10.6990    2.5790 C   0  0  0  0  0  0  0  0  0  0  0  0
    7.3960   10.1540    2.9920 O   0  0  0  0  0  0  0  0  0  0  0  0
    9.6480   10.4470    3.1960 O   0  0  0  0  0  0  0  0  0  0  0  0
    9.5690   10.7740    4.5860 C   0  0  0  0  0  0  0  0  0  0  0  0
    9.7910   12.2870    4.7650 C   0  0  0  0  0  0  0  0  0  0  0  0
   10.3460   14.4010    0.2400 O   0  0  0  0  0  0  0  0  0  0  0  0
   11.4420   13.4990   -0.0800 C   0  0  0  0  0  0  0  0  0  0  0  0
   12.2450   13.9800   -1.3240 C   0  0  0  0  0  0  0  0  0  0  0  0
   11.8610   15.4370   -1.6710 C   0  0  0  0  0  0  0  0  0  0  0  0
   12.4010   13.4340    1.1300 C   0  0  0  0  0  0  0  0  0  0  0  0
   12.2730   12.0660    1.8340 C   0  0  0  0  0  0  0  0  0  0  0  0
  2 21  1  6  0  0  0
  2  1  1  0  0  0  0
  3  7  1  6  0  0  0
  3  4  1  0  0  0  0
  3  2  1  0  0  0  0
  4 12  1  6  0  0  0
  4  5  1  0  0  0  0
  5  6  1  0  0  0  0
  6  1  2  0  0  0  0
  6 16  1  0  0  0  0
  7  8  1  0  0  0  0
  9  7  1  0  0  0  0
 10  9  2  0  0  0  0
 11  9  1  0  0  0  0
 12 14  1  0  0  0  0
 13 12  1  0  0  0  0
 15 12  1  0  0  0  0
 16 17  2  0  0  0  0
 16 18  1  0  0  0  0
 18 19  1  0  0  0  0
 19 20  1  0  0  0  0
 22 21  1  0  0  0  0
 22 25  1  0  0  0  0
 23 22  1  0  0  0  0
 24 23  1  0  0  0  0
 25 26  1  0  0  0  0
M  END
>  <MODEL>
1

>  <REMARK>
 VINA RESULT:      -6.0      0.000      0.000
  Name = BDB5025
                            x       y       z     vdW  Elec       q    Type
                         _______ _______ _______ _____ _____    ______ ____

>  <TORSDO>
F 9

>  <vina_score>
-6.0

$$$$
BDB4952
 OpenBabel01041719563D

 31 32  0  0  1  0  0  0  0  0999 V2000
    8.0840   10.7790    1.6720 C   0  0  0  0  0  0  0  0  0  0  0  0
    8.3650   10.2610    2.8720 C   0  0  0  0  0  0  0  0  0  0  0  0
    9.6520   10.5470    3.5570 C   0  0  1  0  0  0  0  0  0  0  0  0
   10.1700   11.8930    3.0810 C   0  0  2  0  0  0  0  0  0  0  0  0
   10.2850   11.7790    1.5730 C   0  0  1  0  0  0  0  0  0  0  0  0
    8.9840   11.6200    0.9640 O   0  0  0  0  0  0  0  0  0  0  0  0
   11.4990   12.1170    3.6650 N   0  0  0  0  0  0  0  0  0  0  0  0
   11.5860   12.8720    4.2930 H   0  0  0  0  0  0  0  0  0  0  0  0
   12.6850   11.3450    3.4120 C   0  0  0  0  0  0  0  0  0  0  0  0
   13.7290   11.6690    3.9890 O   0  0  0  0  0  0  0  0  0  0  0  0
   12.7210   10.1530    2.4750 C   0  0  0  0  0  0  0  0  0  0  0  0
    9.4690   10.5550    5.0160 N   0  0  0  0  0  0  0  0  0  0  0  0
    8.9910    9.7010    5.3030 H   0  0  0  0  0  0  0  0  0  0  0  0
   10.3800   10.6050    5.4720 H   0  0  0  0  0  0  0  0  0  0  0  0
    8.9100   11.3650    5.2840 H   0  0  0  0  0  0  0  0  0  0  0  0
    6.7770   10.4960    1.0760 C   0  0  0  0  0  0  0  0  0  0  0  0
    6.6860   10.1730   -0.2410 O   0  0  0  0  0  0  0  0  0  0  0  0
    5.7560   10.5520    1.7710 O   0  0  0  0  0  0  0  0  0  0  0  0
   10.9530   13.0290    0.9910 C   0  0  0  0  0  0  0  0  0  0  0  0
   12.0320   12.8880    0.4060 O   0  0  0  0  0  0  0  0  0  0  0  0
   10.4140   14.3510    1.0880 N   0  0  0  0  0  0  0  0  0  0  0  0
    9.2170   14.6600    1.8480 C   0  0  0  0  0  0  0  0  0  0  0  0
    9.3710   16.0190    2.5780 C   0  0  0  0  0  0  0  0  0  0  0  0
   11.1170   15.4140    0.4050 C   0  0  0  0  0  0  0  0  0  0  0  0
   10.2920   15.9670   -0.7770 C   0  0  0  0  0  0  0  0  0  0  0  0
   10.0650   14.8810   -1.7880 C   0  0  0  0  0  0  0  0  0  0  0  0
   11.1470   14.3350   -2.4710 C   0  0  0  0  0  0  0  0  0  0  0  0
   10.9410   13.3270   -3.4040 C   0  0  0  0  0  0  0  0  0  0  0  0
    9.6550   12.8640   -3.6550 C   0  0  0  0  0  0  0  0  0  0  0  0
    8.5740   13.4100   -2.9740 C   0  0  0  0  0  0  0  0  0  0  0  0
    8.7800   14.4190   -2.0390 C   0  0  0  0  0  0  0  0  0  0  0  0
  1  2  2  0  0  0  0
  2  3  1  0  0  0  0
  3 12  1  1  0  0  0
  4  3  1  0  0  0  0
  4  7  1  1  0  0  0
  5 19  1  6  0  0  0
  5  4  1  0  0  0  0
  6  5  1  0  0  0  0
  6  1  1  0  0  0  0
  7  8  1  0  0  0  0
  9  7  1  0  0  0  0
  9 10  2  0  0  0  0
 11  9  1  0  0  0  0
 12 15  1  0  0  0  0
 12 13  1  0  0  0  0
 12 14  1  0  0  0  0
 16  1  1  0  0  0  0
 16 18  1  0  0  0  0
 17 16  2  0  0  0  0
 19 21  1  0  0  0  0
 20 19  2  0  0  0  0
 21 22  1  0  0  0  0
 22 23  1  0  0  0  0
 24 21  1  0  0  0  0
 25 24  1  0  0  0  0
 26 25  1  0  0  0  0
 27 26  2  0  0  0  0
 28 27  1  0  0  0  0
 29 28  2  0  0  0  0
 29 30  1  0  0  0  0
 30 31  2  0  0  0  0
 31 26  1  0  0  0  0
M  END
>  <MODEL>
1

>  <REMARK>
 VINA RESULT:      -5.8      0.000      0.000
  Name = BDB4952
                            x       y       z     vdW  Elec       q    Type
                         _______ _______ _______ _____ _____    ______ ____

>  <TORSDO>
F 8

>  <vina_score>
-5.8

$$$$
BDB4945
 OpenBabel01041719563D

 32 33  0  0  1  0  0  0  0  0999 V2000
   13.0090   12.8850    3.7680 C   0  0  0  0  0  0  0  0  0  0  0  0
   11.9320   13.0300    4.5470 C   0  0  0  0  0  0  0  0  0  0  0  0
   10.5730   13.1880    3.9690 C   0  0  1  0  0  0  0  0  0  0  0  0
   10.5400   12.5140    2.6090 C   0  0  2  0  0  0  0  0  0  0  0  0
   11.6370   13.1740    1.7960 C   0  0  1  0  0  0  0  0  0  0  0  0
   12.9400   12.8810    2.3490 O   0  0  0  0  0  0  0  0  0  0  0  0
    9.2350   12.7760    1.9870 N   0  0  0  0  0  0  0  0  0  0  0  0
    9.0910   13.6790    1.6200 H   0  0  0  0  0  0  0  0  0  0  0  0
    8.1460   11.8460    1.8620 C   0  0  0  0  0  0  0  0  0  0  0  0
    7.1090   12.2290    1.3090 O   0  0  0  0  0  0  0  0  0  0  0  0
    8.2030   10.4190    2.3730 C   0  0  0  0  0  0  0  0  0  0  0  0
    9.5620   12.5970    4.8580 N   0  0  0  0  0  0  0  0  0  0  0  0
    9.8520   11.6560    5.1240 H   0  0  0  0  0  0  0  0  0  0  0  0
    9.4680   13.1720    5.6950 H   0  0  0  0  0  0  0  0  0  0  0  0
    8.6660   12.5530    4.3720 H   0  0  0  0  0  0  0  0  0  0  0  0
   14.3120   12.6840    4.4050 C   0  0  0  0  0  0  0  0  0  0  0  0
   14.6420   11.4650    4.9050 O   0  0  0  0  0  0  0  0  0  0  0  0
   15.1110   13.6240    4.4880 O   0  0  0  0  0  0  0  0  0  0  0  0
   11.5960   12.6870    0.3460 C   0  0  0  0  0  0  0  0  0  0  0  0
   11.2860   11.5090    0.1380 O   0  0  0  0  0  0  0  0  0  0  0  0
   11.9100   13.5050   -0.7830 N   0  0  0  0  0  0  0  0  0  0  0  0
   12.3720   14.8730   -0.6580 C   0  0  0  0  0  0  0  0  0  0  0  0
   11.2170   15.8630   -0.9400 C   0  0  0  0  0  0  0  0  0  0  0  0
   10.2320   15.8460    0.2430 C   0  0  0  0  0  0  0  0  0  0  0  0
   11.7710   12.9220   -2.0970 C   0  0  0  0  0  0  0  0  0  0  0  0
   10.9100   13.8160   -3.0150 C   0  0  0  0  0  0  0  0  0  0  0  0
    9.4650   13.6980   -2.6280 C   0  0  0  0  0  0  0  0  0  0  0  0
    8.9830   12.5030   -2.1050 C   0  0  0  0  0  0  0  0  0  0  0  0
    7.6470   12.3940   -1.7410 C   0  0  0  0  0  0  0  0  0  0  0  0
    6.7930   13.4790   -1.8990 C   0  0  0  0  0  0  0  0  0  0  0  0
    7.2740   14.6730   -2.4210 C   0  0  0  0  0  0  0  0  0  0  0  0
    8.6120   14.7810   -2.7860 C   0  0  0  0  0  0  0  0  0  0  0  0
  1 16  1  0  0  0  0
  1  2  2  0  0  0  0
  3  2  1  0  0  0  0
  3 12  1  1  0  0  0
  4  7  1  6  0  0  0
  4  3  1  0  0  0  0
  5 19  1  6  0  0  0
  5  6  1  0  0  0  0
  5  4  1  0  0  0  0
  6  1  1  0  0  0  0
  8  7  1  0  0  0  0
  9  7  1  0  0  0  0
  9 11  1  0  0  0  0
 10  9  2  0  0  0  0
 12 13  1  0  0  0  0
 12 14  1  0  0  0  0
 15 12  1  0  0  0  0
 16 18  2  0  0  0  0
 16 17  1  0  0  0  0
 20 19  2  0  0  0  0
 21 22  1  0  0  0  0
 21 19  1  0  0  0  0
 23 22  1  0  0  0  0
 23 24  1  0  0  0  0
 25 21  1  0  0  0  0
 26 27  1  0  0  0  0
 26 25  1  0  0  0  0
 27 28  1  0  0  0  0
 28 29  2  0  0  0  0
 30 29  1  0  0  0  0
 31 30  2  0  0  0  0
 32 27  2  0  0  0  0
 32 31  1  0  0  0  0
M  END
>  <MODEL>
1

>  <REMARK>
 VINA RESULT:      -5.6      0.000      0.000
  Name = BDB4945
                            x       y       z     vdW  Elec       q    Type
                         _______ _______ _______ _____ _____    ______ ____

>  <TORSDO>
F 9

>  <vina_score>
-5.6

$$$$
BDB4965
 OpenBabel01041719573D

 34 35  0  0  1  0  0  0  0  0999 V2000
   13.2370   12.9180    3.8380 C   0  0  0  0  0  0  0  0  0  0  0  0
   12.1570   13.0110    4.6210 C   0  0  0  0  0  0  0  0  0  0  0  0
   10.8080   13.2630    4.0540 C   0  0  1  0  0  0  0  0  0  0  0  0
   10.7690   12.7330    2.6320 C   0  0  2  0  0  0  0  0  0  0  0  0
   11.8900   13.4440    1.8980 C   0  0  1  0  0  0  0  0  0  0  0  0
   13.1800   13.0610    2.4250 O   0  0  0  0  0  0  0  0  0  0  0  0
    9.4770   13.0920    2.0330 N   0  0  0  0  0  0  0  0  0  0  0  0
    9.3910   14.0070    1.6780 H   0  0  0  0  0  0  0  0  0  0  0  0
    8.3250   12.2400    1.9130 C   0  0  0  0  0  0  0  0  0  0  0  0
    7.3090   12.7000    1.3800 O   0  0  0  0  0  0  0  0  0  0  0  0
    8.2900   10.8070    2.4060 C   0  0  0  0  0  0  0  0  0  0  0  0
    9.7750   12.6120    4.8720 N   0  0  0  0  0  0  0  0  0  0  0  0
    9.4260   11.7860    4.3850 H   0  0  0  0  0  0  0  0  0  0  0  0
   10.1750   12.3330    5.7670 H   0  0  0  0  0  0  0  0  0  0  0  0
    9.0050   13.2630    5.0300 H   0  0  0  0  0  0  0  0  0  0  0  0
   14.5290   12.6190    4.4580 C   0  0  0  0  0  0  0  0  0  0  0  0
   14.8300   11.3440    4.8180 O   0  0  0  0  0  0  0  0  0  0  0  0
   15.3450   13.5270    4.6550 O   0  0  0  0  0  0  0  0  0  0  0  0
   11.8490   13.1090    0.4050 C   0  0  0  0  0  0  0  0  0  0  0  0
   11.7330   11.9220    0.0790 O   0  0  0  0  0  0  0  0  0  0  0  0
   11.9530   14.0810   -0.6380 N   0  0  0  0  0  0  0  0  0  0  0  0
   12.1800   15.4890   -0.3790 C   0  0  0  0  0  0  0  0  0  0  0  0
   10.9360   16.3200   -0.7730 C   0  0  0  0  0  0  0  0  0  0  0  0
    9.8950   16.2460    0.3580 C   0  0  0  0  0  0  0  0  0  0  0  0
   11.8400   13.6210   -2.0020 C   0  0  0  0  0  0  0  0  0  0  0  0
   10.8490   12.4430   -2.1130 C   0  0  0  0  0  0  0  0  0  0  0  0
    9.4420   12.9640   -2.1380 C   0  0  0  0  0  0  0  0  0  0  0  0
    9.1970   14.2780   -2.5200 C   0  0  0  0  0  0  0  0  0  0  0  0
    7.8930   14.7610   -2.5490 C   0  0  0  0  0  0  0  0  0  0  0  0
    6.8370   13.9290   -2.1970 C   0  0  0  0  0  0  0  0  0  0  0  0
    7.0820   12.6150   -1.8160 C   0  0  0  0  0  0  0  0  0  0  0  0
    8.3860   12.1330   -1.7860 C   0  0  0  0  0  0  0  0  0  0  0  0
    6.0170   11.7790   -1.4630 O   0  0  0  0  0  0  0  0  0  0  0  0
    6.4940   10.5720   -0.8540 C   0  0  0  0  0  0  0  0  0  0  0  0
  1 16  1  0  0  0  0
  1  2  2  0  0  0  0
  3  2  1  0  0  0  0
  3 12  1  1  0  0  0
  4  7  1  6  0  0  0
  4  3  1  0  0  0  0
  5 19  1  6  0  0  0
  5  6  1  0  0  0  0
  5  4  1  0  0  0  0
  6  1  1  0  0  0  0
  8  7  1  0  0  0  0
  9  7  1  0  0  0  0
  9 11  1  0  0  0  0
 10  9  2  0  0  0  0
 12 15  1  0  0  0  0
 12 14  1  0  0  0  0
 13 12  1  0  0  0  0
 16 18  2  0  0  0  0
 16 17  1  0  0  0  0
 20 19  2  0  0  0  0
 21 22  1  0  0  0  0
 21 19  1  0  0  0  0
 23 22  1  0  0  0  0
 23 24  1  0  0  0  0
 25 21  1  0  0  0  0
 26 25  1  0  0  0  0
 27 26  1  0  0  0  0
 27 32  2  0  0  0  0
 28 27  1  0  0  0  0
 29 28  2  0  0  0  0
 29 30  1  0  0  0  0
 30 31  2  0  0  0  0
 31 32  1  0  0  0  0
 31 33  1  0  0  0  0
 33 34  1  0  0  0  0
M  END
>  <MODEL>
1

>  <REMARK>
 VINA RESULT:      -4.9      0.000      0.000
  Name = BDB4965
                            x       y       z     vdW  Elec       q    Type
                         _______ _______ _______ _____ _____    ______ ____

>  <TORSDO>
F 10

>  <vina_score>
-4.9

$$$$
BDB4968
 OpenBabel01041719583D

 34 35  0  0  1  0  0  0  0  0999 V2000
    7.3000   11.9670   -0.9120 C   0  0  0  0  0  0  0  0  0  0  0  0
    6.9930   12.9750   -1.7360 C   0  0  0  0  0  0  0  0  0  0  0  0
    7.9010   14.1370   -1.9110 C   0  0  1  0  0  0  0  0  0  0  0  0
    9.3240   13.6920   -1.6240 C   0  0  2  0  0  0  0  0  0  0  0  0
    9.3030   13.1310   -0.2150 C   0  0  1  0  0  0  0  0  0  0  0  0
    8.4960   11.9350   -0.1440 O   0  0  0  0  0  0  0  0  0  0  0  0
   10.2030   14.8680   -1.6780 N   0  0  0  0  0  0  0  0  0  0  0  0
    9.8720   15.6890   -1.2470 H   0  0  0  0  0  0  0  0  0  0  0  0
   11.4980   14.9390   -2.2990 C   0  0  0  0  0  0  0  0  0  0  0  0
   12.1110   16.0110   -2.2550 O   0  0  0  0  0  0  0  0  0  0  0  0
   12.1520   13.7660   -3.0040 C   0  0  0  0  0  0  0  0  0  0  0  0
    7.7970   14.6720   -3.2760 N   0  0  0  0  0  0  0  0  0  0  0  0
    8.5760   14.3260   -3.8370 H   0  0  0  0  0  0  0  0  0  0  0  0
    6.9180   14.3690   -3.6940 H   0  0  0  0  0  0  0  0  0  0  0  0
    7.8270   15.6910   -3.2450 H   0  0  0  0  0  0  0  0  0  0  0  0
    6.3830   10.8290   -0.8250 C   0  0  0  0  0  0  0  0  0  0  0  0
    5.8040   10.5140    0.3630 O   0  0  0  0  0  0  0  0  0  0  0  0
    6.1370   10.1550   -1.8320 O   0  0  0  0  0  0  0  0  0  0  0  0
   10.7200   12.7970    0.2490 C   0  0  0  0  0  0  0  0  0  0  0  0
   11.1170   11.6350    0.1110 O   0  0  0  0  0  0  0  0  0  0  0  0
   11.6060   13.7400    0.8530 N   0  0  0  0  0  0  0  0  0  0  0  0
   11.2490   15.1330    1.0690 C   0  0  0  0  0  0  0  0  0  0  0  0
    9.8200   15.2650    1.6510 C   0  0  0  0  0  0  0  0  0  0  0  0
    9.4270   16.7540    1.6970 C   0  0  0  0  0  0  0  0  0  0  0  0
   12.9220   13.2710    1.2280 C   0  0  0  0  0  0  0  0  0  0  0  0
   13.0680   13.1280    2.7580 C   0  0  0  0  0  0  0  0  0  0  0  0
   11.8920   12.3800    3.3160 C   0  0  0  0  0  0  0  0  0  0  0  0
   10.7340   13.0700    3.6560 C   0  0  0  0  0  0  0  0  0  0  0  0
    9.6460   12.3820    4.1790 C   0  0  0  0  0  0  0  0  0  0  0  0
    9.7160   11.0050    4.3630 C   0  0  0  0  0  0  0  0  0  0  0  0
    8.3720   10.1540    5.0080 Cl  0  0  0  0  0  0  0  0  0  0  0  0
   10.8750   10.3170    4.0230 C   0  0  0  0  0  0  0  0  0  0  0  0
   11.9620   11.0050    3.5000 C   0  0  0  0  0  0  0  0  0  0  0  0
   13.3930   10.1550    3.0810 Cl  0  0  0  0  0  0  0  0  0  0  0  0
  1 16  1  0  0  0  0
  1  6  1  0  0  0  0
  2  1  2  0  0  0  0
  3 12  1  6  0  0  0
  3  2  1  0  0  0  0
  3  4  1  0  0  0  0
  4  7  1  1  0  0  0
  4  5  1  0  0  0  0
  5  6  1  0  0  0  0
  5 19  1  6  0  0  0
  7  8  1  0  0  0  0
  9 10  2  0  0  0  0
  9  7  1  0  0  0  0
 11  9  1  0  0  0  0
 12 15  1  0  0  0  0
 13 12  1  0  0  0  0
 14 12  1  0  0  0  0
 16 17  1  0  0  0  0
 18 16  2  0  0  0  0
 19 21  1  0  0  0  0
 20 19  2  0  0  0  0
 21 22  1  0  0  0  0
 21 25  1  0  0  0  0
 22 23  1  0  0  0  0
 23 24  1  0  0  0  0
 25 26  1  0  0  0  0
 26 27  1  0  0  0  0
 27 33  2  0  0  0  0
 27 28  1  0  0  0  0
 28 29  2  0  0  0  0
 29 30  1  0  0  0  0
 30 31  1  0  0  0  0
 32 30  2  0  0  0  0
 33 32  1  0  0  0  0
 34 33  1  0  0  0  0
M  END
>  <MODEL>
1

>  <REMARK>
 VINA RESULT:      -4.5      0.000      0.000
  Name = BDB4968
                            x       y       z     vdW  Elec       q    Type
                         _______ _______ _______ _____ _____    ______ ____

>  <TORSDO>
F 9

>  <vina_score>
-4.5

$$$$
BDB4946
 OpenBabel01041719573D

 37 38  0  0  1  0  0  0  0  0999 V2000
   11.4400   13.9290   -1.0560 C   0  0  0  0  0  0  0  0  0  0  0  0
   10.7110   13.8340   -2.1730 C   0  0  0  0  0  0  0  0  0  0  0  0
    9.6610   12.7950   -2.3270 C   0  0  1  0  0  0  0  0  0  0  0  0
    9.1410   12.4190   -0.9510 C   0  0  2  0  0  0  0  0  0  0  0  0
   10.3540   11.9590   -0.1650 C   0  0  1  0  0  0  0  0  0  0  0  0
   11.2770   13.0500    0.0490 O   0  0  0  0  0  0  0  0  0  0  0  0
    8.1920   11.3060   -1.0970 N   0  0  0  0  0  0  0  0  0  0  0  0
    8.4410   10.5900   -1.7260 H   0  0  0  0  0  0  0  0  0  0  0  0
    6.9360   11.1590   -0.4130 C   0  0  0  0  0  0  0  0  0  0  0  0
    6.2530   10.1570   -0.6510 O   0  0  0  0  0  0  0  0  0  0  0  0
    6.4060   12.1690    0.5860 C   0  0  0  0  0  0  0  0  0  0  0  0
   12.4230   15.0080   -0.9510 C   0  0  0  0  0  0  0  0  0  0  0  0
   12.4330   16.0090   -1.8700 O   0  0  0  0  0  0  0  0  0  0  0  0
   13.2460   15.0080   -0.0280 O   0  0  0  0  0  0  0  0  0  0  0  0
    9.9290   11.4000    1.1950 C   0  0  0  0  0  0  0  0  0  0  0  0
   10.1840   10.2150    1.4410 O   0  0  0  0  0  0  0  0  0  0  0  0
    9.2390   12.1560    2.1920 N   0  0  0  0  0  0  0  0  0  0  0  0
    8.8080   13.5240    1.9820 C   0  0  0  0  0  0  0  0  0  0  0  0
    9.9640   14.5080    2.2820 C   0  0  0  0  0  0  0  0  0  0  0  0
    9.3820   15.9020    2.5730 C   0  0  0  0  0  0  0  0  0  0  0  0
    8.9530   11.5090    3.4510 C   0  0  0  0  0  0  0  0  0  0  0  0
    9.8530   12.0590    4.5780 C   0  0  0  0  0  0  0  0  0  0  0  0
   11.2940   11.7970    4.2500 C   0  0  0  0  0  0  0  0  0  0  0  0
   11.7590   10.4890    4.1640 C   0  0  0  0  0  0  0  0  0  0  0  0
   13.0910   10.2450    3.8550 C   0  0  0  0  0  0  0  0  0  0  0  0
   13.9580   11.3080    3.6320 C   0  0  0  0  0  0  0  0  0  0  0  0
   13.4940   12.6150    3.7180 C   0  0  0  0  0  0  0  0  0  0  0  0
   12.1600   12.8590    4.0280 C   0  0  0  0  0  0  0  0  0  0  0  0
    8.5790   13.2850   -3.1600 N   0  0  0  0  0  0  0  0  0  0  0  0
    8.1060   12.6470   -3.7420 H   0  0  0  0  0  0  0  0  0  0  0  0
    8.1760   14.6400   -3.1710 C   0  0  0  0  0  0  0  0  0  0  0  0
    8.5670   15.3970   -4.1120 N   0  0  0  0  0  0  0  0  0  0  0  0
    8.2930   16.3420   -4.1310 H   0  0  0  0  0  0  0  0  0  0  0  0
    9.1460   15.0390   -4.8240 H   0  0  0  0  0  0  0  0  0  0  0  0
    7.3530   15.1660   -2.1650 N   0  0  0  0  0  0  0  0  0  0  0  0
    6.4510   15.4920   -2.3870 H   0  0  0  0  0  0  0  0  0  0  0  0
    7.6770   15.2090   -1.2370 H   0  0  0  0  0  0  0  0  0  0  0  0
  1 12  1  0  0  0  0
  1  6  1  0  0  0  0
  2  1  2  0  0  0  0
  3 29  1  6  0  0  0
  3  2  1  0  0  0  0
  3  4  1  0  0  0  0
  4  7  1  6  0  0  0
  4  5  1  0  0  0  0
  5  6  1  0  0  0  0
  5 15  1  1  0  0  0
  7  9  1  0  0  0  0
  8  7  1  0  0  0  0
  9 11  1  0  0  0  0
 10  9  2  0  0  0  0
 12 14  1  0  0  0  0
 13 12  2  0  0  0  0
 15 16  2  0  0  0  0
 15 17  1  0  0  0  0
 17 21  1  0  0  0  0
 18 17  1  0  0  0  0
 18 19  1  0  0  0  0
 19 20  1  0  0  0  0
 21 22  1  0  0  0  0
 23 22  1  0  0  0  0
 24 23  1  0  0  0  0
 25 24  2  0  0  0  0
 26 27  2  0  0  0  0
 26 25  1  0  0  0  0
 27 28  1  0  0  0  0
 28 23  2  0  0  0  0
 30 29  1  0  0  0  0
 31 29  1  0  0  0  0
 31 35  1  0  0  0  0
 32 31  2  0  0  0  0
 33 32  1  0  0  0  0
 34 32  1  0  0  0  0
 35 37  1  0  0  0  0
 36 35  1  0  0  0  0
M  END
>  <MODEL>
1

>  <REMARK>
 VINA RESULT:      -3.5      0.000      0.000
  Name = BDB4946
                            x       y       z     vdW  Elec       q    Type
                         _______ _______ _______ _____ _____    ______ ____

>  <TORSDO>
F 11

>  <vina_score>
-3.5

$$$$
BDB5007
 OpenBabel01041719583D

 34 36  0  0  1  0  0  0  0  0999 V2000
   12.5780   10.7640    4.1870 C   0  0  0  0  0  0  0  0  0  0  0  0
   13.5070   11.7260    4.2420 C   0  0  0  0  0  0  0  0  0  0  0  0
   13.2930   13.1280    3.6340 C   0  0  0  0  0  0  0  0  0  0  0  0
   11.8130   13.4190    3.3870 C   0  0  1  0  0  0  0  0  0  0  0  0
   11.1610   12.1900    2.6480 C   0  0  2  0  0  0  0  0  0  0  0  0
   11.2200   10.9750    3.5990 C   0  0  2  0  0  0  0  0  0  0  0  0
   11.7040   12.0780    1.2340 N   0  0  0  0  0  0  0  0  0  0  0  0
   12.1290   11.2110    1.0420 H   0  0  0  0  0  0  0  0  0  0  0  0
   11.7210   13.0050    0.0980 C   0  0  0  0  0  0  0  0  0  0  0  0
   12.0980   12.5360   -0.9810 O   0  0  0  0  0  0  0  0  0  0  0  0
   11.3970   14.4670    0.1060 C   0  0  0  0  0  0  0  0  0  0  0  0
   11.2240   13.7370    4.7000 N   0  0  0  0  0  0  0  0  0  0  0  0
   10.5730   14.5160    4.6000 H   0  0  0  0  0  0  0  0  0  0  0  0
   10.7250   12.9210    5.0550 H   0  0  0  0  0  0  0  0  0  0  0  0
   11.9650   13.9930    5.3520 H   0  0  0  0  0  0  0  0  0  0  0  0
   14.8100   11.3740    4.7810 C   0  0  0  0  0  0  0  0  0  0  0  0
   15.6140   12.3360    5.2860 O   0  0  0  0  0  0  0  0  0  0  0  0
   15.2100   10.2050    4.7060 O   0  0  0  0  0  0  0  0  0  0  0  0
   10.3180   11.3740    4.6720 O   0  0  0  0  0  0  0  0  0  0  0  0
    9.0750   10.6720    4.7240 C   0  0  0  0  0  0  0  0  0  0  0  0
    8.6880   10.1560    3.2810 C   0  0  0  0  0  0  0  0  0  0  0  0
    7.2430   10.5250    2.7540 C   0  0  0  0  0  0  0  0  0  0  0  0
    7.4570   11.2420    1.4260 C   0  0  0  0  0  0  0  0  0  0  0  0
    7.0480   10.7080    0.2050 C   0  0  0  0  0  0  0  0  0  0  0  0
    7.3370   11.3780   -0.9800 C   0  0  0  0  0  0  0  0  0  0  0  0
    8.0390   12.5920   -0.9380 C   0  0  0  0  0  0  0  0  0  0  0  0
    8.4250   13.1200    0.2720 C   0  0  0  0  0  0  0  0  0  0  0  0
    8.1390   12.4490    1.4540 C   0  0  0  0  0  0  0  0  0  0  0  0
    8.3990   13.2970   -2.1680 C   0  0  0  0  0  0  0  0  0  0  0  0
    7.9390   14.5680   -2.4370 C   0  0  0  0  0  0  0  0  0  0  0  0
    8.2810   15.1950   -3.6350 C   0  0  0  0  0  0  0  0  0  0  0  0
    9.0870   14.5380   -4.5570 C   0  0  0  0  0  0  0  0  0  0  0  0
    9.5530   13.2570   -4.2850 C   0  0  0  0  0  0  0  0  0  0  0  0
    9.2110   12.6320   -3.0970 C   0  0  0  0  0  0  0  0  0  0  0  0
  1  2  2  0  0  0  0
  2 16  1  0  0  0  0
  3  2  1  0  0  0  0
  4  3  1  0  0  0  0
  4 12  1  1  0  0  0
  5  7  1  6  0  0  0
  5  4  1  0  0  0  0
  5  6  1  0  0  0  0
  6  1  1  0  0  0  0
  6 19  1  1  0  0  0
  8  7  1  0  0  0  0
  9 11  1  0  0  0  0
  9  7  1  0  0  0  0
 10  9  2  0  0  0  0
 12 14  1  0  0  0  0
 12 15  1  0  0  0  0
 13 12  1  0  0  0  0
 16 17  1  0  0  0  0
 18 16  2  0  0  0  0
 19 20  1  0  0  0  0
 21 20  1  0  0  0  0
 22 21  1  0  0  0  0
 23 28  1  0  0  0  0
 23 22  1  0  0  0  0
 24 23  2  0  0  0  0
 25 26  2  0  0  0  0
 25 24  1  0  0  0  0
 26 27  1  0  0  0  0
 27 28  2  0  0  0  0
 29 26  1  0  0  0  0
 30 29  1  0  0  0  0
 31 30  2  0  0  0  0
 32 33  2  0  0  0  0
 32 31  1  0  0  0  0
 33 34  1  0  0  0  0
 34 29  2  0  0  0  0
M  END
>  <MODEL>
1

>  <REMARK>
 VINA RESULT:      -3.5      0.000      0.000
  Name = BDB5007
                            x       y       z     vdW  Elec       q    Type
                         _______ _______ _______ _____ _____    ______ ____

>  <TORSDO>
F 9

>  <vina_score>
-3.5

$$$$
BDB4972
 OpenBabel01041719583D

 38 40  0  0  1  0  0  0  0  0999 V2000
   12.1980   13.3050    0.9520 C   0  0  0  0  0  0  0  0  0  0  0  0
   12.6550   12.6120    0.0350 O   0  0  0  0  0  0  0  0  0  0  0  0
   11.8600   14.6620    0.6600 N   0  0  0  0  0  0  0  0  0  0  0  0
   13.2250   11.0820    3.7360 C   0  0  0  0  0  0  0  0  0  0  0  0
   12.0640   10.6600    4.2500 C   0  0  0  0  0  0  0  0  0  0  0  0
   10.7640   11.1850    3.7590 C   0  0  1  0  0  0  0  0  0  0  0  0
   10.9310   11.6310    2.3170 C   0  0  2  0  0  0  0  0  0  0  0  0
   12.0460   12.6600    2.3320 C   0  0  1  0  0  0  0  0  0  0  0  0
   13.3050   12.0560    2.7040 O   0  0  0  0  0  0  0  0  0  0  0  0
    9.6800   12.2600    1.8730 N   0  0  0  0  0  0  0  0  0  0  0  0
    9.4850   12.2280    0.9080 H   0  0  0  0  0  0  0  0  0  0  0  0
    8.7120   12.9190    2.7080 C   0  0  0  0  0  0  0  0  0  0  0  0
    7.7070   13.3990    2.1730 O   0  0  0  0  0  0  0  0  0  0  0  0
    8.8600   13.0550    4.2110 C   0  0  0  0  0  0  0  0  0  0  0  0
    9.7220   10.1530    3.8580 N   0  0  0  0  0  0  0  0  0  0  0  0
    9.9620    9.3670    3.2540 H   0  0  0  0  0  0  0  0  0  0  0  0
    9.6530    9.8310    4.8230 H   0  0  0  0  0  0  0  0  0  0  0  0
    8.8270   10.5450    3.5650 H   0  0  0  0  0  0  0  0  0  0  0  0
   14.4670   10.4870    4.2320 C   0  0  0  0  0  0  0  0  0  0  0  0
   14.6460   10.3020    5.5660 O   0  0  0  0  0  0  0  0  0  0  0  0
   15.3540   10.1540    3.4370 O   0  0  0  0  0  0  0  0  0  0  0  0
   11.4000   15.5920    1.6720 C   0  0  0  0  0  0  0  0  0  0  0  0
   10.0290   16.1900    1.2760 C   0  0  0  0  0  0  0  0  0  0  0  0
    9.3670   16.8120    2.5180 C   0  0  0  0  0  0  0  0  0  0  0  0
   12.0040   15.1140   -0.7040 C   0  0  0  0  0  0  0  0  0  0  0  0
   11.9490   13.9300   -1.6920 C   0  0  0  0  0  0  0  0  0  0  0  0
   10.5380   13.7180   -2.1550 C   0  0  0  0  0  0  0  0  0  0  0  0
   10.0860   14.3470   -3.3090 C   0  0  0  0  0  0  0  0  0  0  0  0
    8.7800   14.1480   -3.7420 C   0  0  0  0  0  0  0  0  0  0  0  0
    7.9280   13.3190   -3.0220 C   0  0  0  0  0  0  0  0  0  0  0  0
    8.3810   12.6910   -1.8680 C   0  0  0  0  0  0  0  0  0  0  0  0
    9.6860   12.8900   -1.4350 C   0  0  0  0  0  0  0  0  0  0  0  0
    7.4810   11.8170   -1.1090 C   0  0  0  0  0  0  0  0  0  0  0  0
    7.9580   11.1170   -0.0050 C   0  0  0  0  0  0  0  0  0  0  0  0
    7.1040   10.2890    0.7140 C   0  0  0  0  0  0  0  0  0  0  0  0
    5.7740   10.1610    0.3300 C   0  0  0  0  0  0  0  0  0  0  0  0
    5.2980   10.8600   -0.7720 C   0  0  0  0  0  0  0  0  0  0  0  0
    6.1530   11.6880   -1.4920 C   0  0  0  0  0  0  0  0  0  0  0  0
  2  1  2  0  0  0  0
  3  1  1  0  0  0  0
  3 22  1  0  0  0  0
  4 19  1  0  0  0  0
  4  5  2  0  0  0  0
  6 15  1  6  0  0  0
  6  5  1  0  0  0  0
  7 10  1  1  0  0  0
  7  8  1  0  0  0  0
  7  6  1  0  0  0  0
  8  1  1  6  0  0  0
  8  9  1  0  0  0  0
  9  4  1  0  0  0  0
 10 12  1  0  0  0  0
 11 10  1  0  0  0  0
 12 14  1  0  0  0  0
 13 12  2  0  0  0  0
 15 17  1  0  0  0  0
 16 15  1  0  0  0  0
 18 15  1  0  0  0  0
 19 20  1  0  0  0  0
 21 19  2  0  0  0  0
 23 22  1  0  0  0  0
 23 24  1  0  0  0  0
 25  3  1  0  0  0  0
 26 25  1  0  0  0  0
 27 26  1  0  0  0  0
 27 32  2  0  0  0  0
 28 27  1  0  0  0  0
 29 28  2  0  0  0  0
 29 30  1  0  0  0  0
 30 31  2  0  0  0  0
 31 32  1  0  0  0  0
 31 33  1  0  0  0  0
 33 34  1  0  0  0  0
 34 35  2  0  0  0  0
 36 35  1  0  0  0  0
 37 36  2  0  0  0  0
 38 33  2  0  0  0  0
 38 37  1  0  0  0  0
M  END
>  <MODEL>
1

>  <REMARK>
 VINA RESULT:      -0.9      0.000      0.000
  Name = BDB4972
                            x       y       z     vdW  Elec       q    Type
                         _______ _______ _______ _____ _____    ______ ____

>  <TORSDO>
F 10

>  <vina_score>
-0.9

$$$$
