BDB5244
      BALL 1.4.0 (Jan  4 2012, 23:22:29)

 48 48  0999  0  0  0  0  0  0999 V2000
  -29.0752   12.4796  -19.8645 C   0  0  0  0  0  0  0  0  0  0  0  0
  -29.2066   13.1540  -21.2150 C   0  0  0  0  0  0  0  0  0  0  0  0
  -29.3592   12.0685  -22.2718 C   0  0  0  0  0  0  0  0  0  0  0  0
  -30.4946   11.1642  -21.8780 C   0  0  0  0  0  0  0  0  0  0  0  0
  -30.8530   11.0371  -20.6588 N   0  0  0  0  0  0  0  0  0  0  0  0
  -30.2400   11.6741  -19.6399 N   0  0  0  0  0  0  0  0  0  0  0  0
  -31.1954   10.4062  -22.9138 C   0  0  0  0  0  0  0  0  0  0  0  0
  -31.5351    9.2370  -22.7004 O   0  0  0  0  0  0  0  0  0  0  0  0
  -31.4728   10.9870  -24.1099 O   0  5  0  0  0  0  0  0  0  0  0  0
  -30.7210   11.5095  -18.3366 C   0  0  0  0  0  0  0  0  0  0  0  0
  -30.1289   12.0435  -17.3918 O   0  0  0  0  0  0  0  0  0  0  0  0
  -31.9480   10.6800  -18.0766 C   0  0  0  0  0  0  0  0  0  0  0  0
  -32.9663   10.8869  -19.2227 C   0  0  0  0  0  0  0  0  0  0  0  0
  -32.5746   11.0980  -16.7295 C   0  0  0  0  0  0  0  0  0  0  0  0
  -32.5658   12.6361  -16.6017 C   0  0  0  0  0  0  0  0  0  0  0  0
  -33.8647   12.1048  -18.9182 C   0  0  0  0  0  0  0  0  0  0  0  0
  -28.9513   13.4830  -18.8100 N   0  0  0  0  0  0  0  0  0  0  0  0
  -27.8122   13.6378  -17.9642 C   0  0  0  0  0  0  0  0  0  0  0  0
  -26.6078   12.7284  -18.0434 C   0  0  0  0  0  0  0  0  0  0  0  0
  -27.8145   14.5487  -17.1269 O   0  0  0  0  0  0  0  0  0  0  0  0
  -28.0316   13.9575  -21.4933 N   0  0  0  0  0  0  0  0  0  0  0  0
  -26.7986   13.7645  -20.8293 C   0  0  0  0  0  0  0  0  0  0  0  0
  -26.3153   12.4811  -20.5428 N   0  0  0  0  0  0  0  0  0  0  0  0
  -26.1136   14.7776  -20.4847 N   0  3  0  0  0  0  0  0  0  0  0  0
  -28.1743   11.8487  -19.8504 H   0  0  0  0  0  0  0  0  0  0  0  0
  -30.0831   13.8186  -21.2208 H   0  0  0  0  0  0  0  0  0  0  0  0
  -29.5779   12.5308  -23.2457 H   0  0  0  0  0  0  0  0  0  0  0  0
  -28.4297   11.4840  -22.3378 H   0  0  0  0  0  0  0  0  0  0  0  0
  -31.6717    9.6162  -18.0311 H   0  0  0  0  0  0  0  0  0  0  0  0
  -33.5923    9.9881  -19.3232 H   0  0  0  0  0  0  0  0  0  0  0  0
  -32.4257   11.0590  -20.1652 H   0  0  0  0  0  0  0  0  0  0  0  0
  -31.9950   10.6599  -15.9038 H   0  0  0  0  0  0  0  0  0  0  0  0
  -33.6113   10.7334  -16.6795 H   0  0  0  0  0  0  0  0  0  0  0  0
  -31.8190   13.0549  -17.2922 H   0  0  0  0  0  0  0  0  0  0  0  0
  -32.3048   12.9146  -15.5701 H   0  0  0  0  0  0  0  0  0  0  0  0
  -33.5607   13.0343  -16.8500 H   0  0  0  0  0  0  0  0  0  0  0  0
  -33.9776   12.2096  -17.8291 H   0  0  0  0  0  0  0  0  0  0  0  0
  -34.8541   11.9490  -19.3731 H   0  0  0  0  0  0  0  0  0  0  0  0
  -33.4080   13.0163  -19.3313 H   0  0  0  0  0  0  0  0  0  0  0  0
  -29.7436   14.1254  -18.6665 H   0  0  0  0  0  0  0  0  0  0  0  0
  -25.7617   13.3929  -17.8141 H   0  0  0  0  0  0  0  0  0  0  0  0
  -26.5319   12.4861  -19.1137 H   0  0  0  0  0  0  0  0  0  0  0  0
  -26.6495   11.8386  -17.3979 H   0  0  0  0  0  0  0  0  0  0  0  0
  -28.0984   14.6997  -22.2045 H   0  0  0  0  0  0  0  0  0  0  0  0
  -25.4969   12.3834  -19.9251 H   0  0  0  0  0  0  0  0  0  0  0  0
  -26.7687   11.6466  -20.9416 H   0  0  0  0  0  0  0  0  0  0  0  0
  -26.4499   15.7303  -20.6854 H   0  0  0  0  0  0  0  0  0  0  0  0
  -25.2145   14.6429  -20.0007 H   0  0  0  0  0  0  0  0  0  0  0  0
  1  6  1  0  0  0  0
  1  2  1  0  0  0  0
  1 17  1  0  0  0  0
  1 25  1  0  0  0  0
  2  3  1  0  0  0  0
  2 21  1  0  0  0  0
  2 26  1  0  0  0  0
  3  4  1  0  0  0  0
  3 27  1  0  0  0  0
  3 28  1  0  0  0  0
  4  5  2  0  0  0  0
  4  7  1  0  0  0  0
  5  6  1  0  0  0  0
  6 10  1  0  0  0  0
  7  8  2  0  0  0  0
  7  9  1  0  0  0  0
 10 11  2  0  0  0  0
 10 12  1  0  0  0  0
 12 14  1  0  0  0  0
 12 13  1  0  0  0  0
 12 29  1  0  0  0  0
 13 16  1  0  0  0  0
 13 30  1  0  0  0  0
 13 31  1  0  0  0  0
 14 15  1  0  0  0  0
 14 32  1  0  0  0  0
 14 33  1  0  0  0  0
 15 34  1  0  0  0  0
 15 35  1  0  0  0  0
 15 36  1  0  0  0  0
 16 37  1  0  0  0  0
 16 38  1  0  0  0  0
 16 39  1  0  0  0  0
 17 18  1  0  0  0  0
 17 40  1  0  0  0  0
 18 19  1  0  0  0  0
 18 20  2  0  0  0  0
 19 41  1  0  0  0  0
 19 42  1  0  0  0  0
 19 43  1  0  0  0  0
 21 22  1  0  0  0  0
 21 44  1  0  0  0  0
 22 24  2  0  0  0  0
 22 23  1  0  0  0  0
 23 45  1  0  0  0  0
 23 46  1  0  0  0  0
 24 47  1  0  0  0  0
 24 48  1  0  0  0  0
M  END
> <Name>
BDB5244

> <Target>
Neuraminidase A

> <IC50_in_nM>
140

> <Kd_from_ITC>
false

> <source_organism>
Influenza A virus (A/Puerto Rico/8/34(H1N1))

> <SourceTag>
NA

> <atoms in reference ligand area>
32

> <score>
-40.4652

$$$$
BDB4934
      BALL 1.4.0 (Jan  4 2012, 23:22:29)

 43 43  0999  0  0  0  0  0  0999 V2000
  -32.4197   11.6466  -21.1506 C   0  0  0  0  0  0  0  0  0  0  0  0
  -31.1783   12.0623  -20.3849 C   0  0  0  0  0  0  0  0  0  0  0  0
  -31.4306   11.8711  -18.9343 C   0  0  0  0  0  0  0  0  0  0  0  0
  -32.2978   10.9543  -18.4921 C   0  0  0  0  0  0  0  0  0  0  0  0
  -32.5287   10.8479  -17.0507 C   0  0  0  0  0  0  0  0  0  0  0  0
  -33.4115   11.5268  -16.5139 O   0  0  0  0  0  0  0  0  0  0  0  0
  -31.7724   10.0028  -16.3024 O   0  5  0  0  0  0  0  0  0  0  0  0
  -33.0269   10.0960  -19.3601 O   0  0  0  0  0  0  0  0  0  0  0  0
  -31.8374   14.4554  -20.7825 C   0  0  0  0  0  0  0  0  0  0  0  0
  -30.8527   13.4479  -20.6640 N   0  0  0  0  0  0  0  0  0  0  0  0
  -31.9283   15.3440  -19.8790 N   0  3  0  0  0  0  0  0  0  0  0  0
  -32.7150   14.4956  -21.8738 N   0  0  0  0  0  0  0  0  0  0  0  0
  -32.1347   11.7279  -22.5897 N   0  0  0  0  0  0  0  0  0  0  0  0
  -31.3867   10.7765  -23.3666 C   0  0  0  0  0  0  0  0  0  0  0  0
  -30.7717    9.5195  -22.7830 C   0  0  0  0  0  0  0  0  0  0  0  0
  -31.2375   10.9952  -24.5738 O   0  0  0  0  0  0  0  0  0  0  0  0
  -33.8540    9.6334  -21.6008 C   0  0  0  0  0  0  0  0  0  0  0  0
  -35.0846    9.8591  -20.9093 O   0  0  0  0  0  0  0  0  0  0  0  0
  -33.6670    8.1156  -21.8192 C   0  0  0  0  0  0  0  0  0  0  0  0
  -34.9569    7.5273  -22.4167 C   0  0  0  0  0  0  0  0  0  0  0  0
  -32.5826    7.8783  -22.7201 O   0  0  0  0  0  0  0  0  0  0  0  0
  -35.9955    8.5082  -22.3655 O   0  0  0  0  0  0  0  0  0  0  0  0
  -32.6899   10.2044  -20.7617 C   0  0  0  0  0  0  0  0  0  0  0  0
  -33.2836   12.2889  -20.9247 H   0  0  0  0  0  0  0  0  0  0  0  0
  -30.3236   11.4445  -20.6976 H   0  0  0  0  0  0  0  0  0  0  0  0
  -30.8925   12.4973  -18.2074 H   0  0  0  0  0  0  0  0  0  0  0  0
  -29.8632   13.7086  -20.7809 H   0  0  0  0  0  0  0  0  0  0  0  0
  -31.2934   15.3336  -19.0680 H   0  0  0  0  0  0  0  0  0  0  0  0
  -32.6438   16.0805  -19.9601 H   0  0  0  0  0  0  0  0  0  0  0  0
  -32.3446   14.7445  -22.8021 H   0  0  0  0  0  0  0  0  0  0  0  0
  -33.7150   14.2803  -21.7533 H   0  0  0  0  0  0  0  0  0  0  0  0
  -32.5072   12.5468  -23.0914 H   0  0  0  0  0  0  0  0  0  0  0  0
  -29.7603    9.5056  -23.2152 H   0  0  0  0  0  0  0  0  0  0  0  0
  -31.3279    8.7096  -23.2778 H   0  0  0  0  0  0  0  0  0  0  0  0
  -30.7811    9.4515  -21.6852 H   0  0  0  0  0  0  0  0  0  0  0  0
  -33.8693   10.1359  -22.5791 H   0  0  0  0  0  0  0  0  0  0  0  0
  -35.6184   10.5393  -21.3917 H   0  0  0  0  0  0  0  0  0  0  0  0
  -33.4458    7.6377  -20.8535 H   0  0  0  0  0  0  0  0  0  0  0  0
  -34.7779    7.2377  -23.4626 H   0  0  0  0  0  0  0  0  0  0  0  0
  -35.2603    6.6425  -21.8378 H   0  0  0  0  0  0  0  0  0  0  0  0
  -32.6122    8.5473  -23.4493 H   0  0  0  0  0  0  0  0  0  0  0  0
  -36.8265    8.1310  -22.7492 H   0  0  0  0  0  0  0  0  0  0  0  0
  -31.7714    9.6306  -20.9548 H   0  0  0  0  0  0  0  0  0  0  0  0
  1 23  1  0  0  0  0
  1  2  1  0  0  0  0
  1 13  1  0  0  0  0
  1 24  1  0  0  0  0
  2  3  1  0  0  0  0
  2 10  1  0  0  0  0
  2 25  1  0  0  0  0
  3  4  2  0  0  0  0
  3 26  1  0  0  0  0
  4  8  1  0  0  0  0
  4  5  1  0  0  0  0
  5  6  2  0  0  0  0
  5  7  1  0  0  0  0
  8 23  1  0  0  0  0
  9 10  1  0  0  0  0
  9 12  1  0  0  0  0
  9 11  2  0  0  0  0
 10 27  1  0  0  0  0
 11 28  1  0  0  0  0
 11 29  1  0  0  0  0
 12 30  1  0  0  0  0
 12 31  1  0  0  0  0
 13 14  1  0  0  0  0
 13 32  1  0  0  0  0
 14 15  1  0  0  0  0
 14 16  2  0  0  0  0
 15 33  1  0  0  0  0
 15 34  1  0  0  0  0
 15 35  1  0  0  0  0
 17 23  1  0  0  0  0
 17 19  1  0  0  0  0
 17 18  1  0  0  0  0
 17 36  1  0  0  0  0
 18 37  1  0  0  0  0
 19 20  1  0  0  0  0
 19 21  1  0  0  0  0
 19 38  1  0  0  0  0
 20 22  1  0  0  0  0
 20 39  1  0  0  0  0
 20 40  1  0  0  0  0
 21 41  1  0  0  0  0
 22 42  1  0  0  0  0
 23 43  1  0  0  0  0
M  END
> <Name>
BDB4934

> <Target>
Neuraminidase A

> <Ki_in_nM>
1

> <IC50_in_nM>
2

> <Kd_from_ITC>
false

> <source_organism>
Influenza A virus (A/Singapore/1/57(H2N2))

> <SourceTag>
NA

> <atoms in reference ligand area>
19

> <score>
-39.6749

$$$$
BDB4932
      BALL 1.4.0 (Jan  4 2012, 23:22:29)

 41 41  0999  0  0  0  0  0  0999 V2000
  -31.9547   13.4432  -20.9334 C   0  0  0  0  0  0  0  0  0  0  0  0
  -31.8586   10.6944  -21.0360 C   0  0  0  0  0  0  0  0  0  0  0  0
  -31.2536   11.4526  -22.2040 C   0  0  0  0  0  0  0  0  0  0  0  0
  -31.6600   12.8787  -22.1094 C   0  0  0  0  0  0  0  0  0  0  0  0
  -31.8912   12.7387  -19.7009 O   0  0  0  0  0  0  0  0  0  0  0  0
  -32.3960   14.8388  -20.9183 C   0  0  0  0  0  0  0  0  0  0  0  0
  -33.1525   15.2580  -21.8016 O   0  0  0  0  0  0  0  0  0  0  0  0
  -31.9740   15.6736  -19.9329 O   0  5  0  0  0  0  0  0  0  0  0  0
  -31.7763   10.6219  -18.5366 C   0  0  0  0  0  0  0  0  0  0  0  0
  -30.8990   10.0482  -17.8850 O   0  0  0  0  0  0  0  0  0  0  0  0
  -31.3617   11.3971  -19.7874 C   0  0  0  0  0  0  0  0  0  0  0  0
  -33.1291   10.5211  -18.0910 N   0  0  0  0  0  0  0  0  0  0  0  0
  -31.3568    9.3138  -21.0633 N   0  0  0  0  0  0  0  0  0  0  0  0
  -31.9854    8.1897  -21.7033 C   0  0  0  0  0  0  0  0  0  0  0  0
  -33.2951    8.2840  -22.4613 C   0  0  0  0  0  0  0  0  0  0  0  0
  -31.4284    7.0889  -21.6318 O   0  0  0  0  0  0  0  0  0  0  0  0
  -33.4258   10.8289  -16.7217 C   0  0  0  0  0  0  0  0  0  0  0  0
  -31.6950   10.8811  -23.4619 N   0  0  0  0  0  0  0  0  0  0  0  0
  -30.8303   10.1655  -24.3215 C   0  0  0  0  0  0  0  0  0  0  0  0
  -30.7132    8.9085  -24.1786 N   0  3  0  0  0  0  0  0  0  0  0  0
  -30.0998   10.8118  -25.3273 N   0  0  0  0  0  0  0  0  0  0  0  0
  -34.2050   10.1022  -18.9564 C   0  0  0  0  0  0  0  0  0  0  0  0
  -32.9577   10.6708  -21.0727 H   0  0  0  0  0  0  0  0  0  0  0  0
  -30.1567   11.3783  -22.1656 H   0  0  0  0  0  0  0  0  0  0  0  0
  -31.7198   13.4831  -23.0264 H   0  0  0  0  0  0  0  0  0  0  0  0
  -30.2645   11.4447  -19.8494 H   0  0  0  0  0  0  0  0  0  0  0  0
  -30.4674    9.1332  -20.5761 H   0  0  0  0  0  0  0  0  0  0  0  0
  -32.9853    8.5978  -23.4690 H   0  0  0  0  0  0  0  0  0  0  0  0
  -33.7908    9.1549  -22.0075 H   0  0  0  0  0  0  0  0  0  0  0  0
  -33.9139    7.3745  -22.4557 H   0  0  0  0  0  0  0  0  0  0  0  0
  -33.3831    9.8680  -16.1881 H   0  0  0  0  0  0  0  0  0  0  0  0
  -34.4743   11.1615  -16.7153 H   0  0  0  0  0  0  0  0  0  0  0  0
  -32.7510   11.5778  -16.2813 H   0  0  0  0  0  0  0  0  0  0  0  0
  -32.6792   11.0017  -23.7405 H   0  0  0  0  0  0  0  0  0  0  0  0
  -31.2408    8.4132  -23.4457 H   0  0  0  0  0  0  0  0  0  0  0  0
  -30.0846    8.3822  -24.8021 H   0  0  0  0  0  0  0  0  0  0  0  0
  -29.8696   10.2933  -26.1870 H   0  0  0  0  0  0  0  0  0  0  0  0
  -29.7964   11.7892  -25.2123 H   0  0  0  0  0  0  0  0  0  0  0  0
  -34.6222   11.0485  -19.3311 H   0  0  0  0  0  0  0  0  0  0  0  0
  -34.9516    9.6875  -18.2629 H   0  0  0  0  0  0  0  0  0  0  0  0
  -33.9239    9.4044  -19.7588 H   0  0  0  0  0  0  0  0  0  0  0  0
  1  5  1  0  0  0  0
  1  4  2  0  0  0  0
  1  6  1  0  0  0  0
  2 11  1  0  0  0  0
  2  3  1  0  0  0  0
  2 13  1  0  0  0  0
  2 23  1  0  0  0  0
  3  4  1  0  0  0  0
  3 18  1  0  0  0  0
  3 24  1  0  0  0  0
  4 25  1  0  0  0  0
  5 11  1  0  0  0  0
  6  7  2  0  0  0  0
  6  8  1  0  0  0  0
  9 11  1  0  0  0  0
  9 12  1  0  0  0  0
  9 10  2  0  0  0  0
 11 26  1  0  0  0  0
 12 17  1  0  0  0  0
 12 22  1  0  0  0  0
 13 14  1  0  0  0  0
 13 27  1  0  0  0  0
 14 15  1  0  0  0  0
 14 16  2  0  0  0  0
 15 28  1  0  0  0  0
 15 29  1  0  0  0  0
 15 30  1  0  0  0  0
 17 31  1  0  0  0  0
 17 32  1  0  0  0  0
 17 33  1  0  0  0  0
 18 19  1  0  0  0  0
 18 34  1  0  0  0  0
 19 21  1  0  0  0  0
 19 20  2  0  0  0  0
 20 35  1  0  0  0  0
 20 36  1  0  0  0  0
 21 37  1  0  0  0  0
 21 38  1  0  0  0  0
 22 39  1  0  0  0  0
 22 40  1  0  0  0  0
 22 41  1  0  0  0  0
M  END
> <Name>
BDB4932

> <Target>
Neuraminidase A

> <IC50_in_nM>
25

> <Kd_from_ITC>
false

> <source_organism>
Influenza A virus (A/Singapore/1/57(H2N2))

> <SourceTag>
NA

> <atoms in reference ligand area>
16

> <score>
-37.8755

$$$$
BDB5008
      BALL 1.4.0 (Jan  4 2012, 23:22:29)

 34 34  0999  0  0  0  0  0  0999 V2000
  -30.5583   14.6693  -20.0945 C   0  0  0  0  0  0  0  0  0  0  0  0
  -29.1784   14.4123  -20.6719 C   0  0  0  0  0  0  0  0  0  0  0  0
  -28.9022   12.9097  -20.8138 C   0  0  0  0  0  0  0  0  0  0  0  0
  -29.3315   12.1154  -19.4959 C   0  0  0  0  0  0  0  0  0  0  0  0
  -30.8207   12.2960  -19.2785 C   0  0  0  0  0  0  0  0  0  0  0  0
  -31.2809   13.7306  -19.4462 C   0  0  0  0  0  0  0  0  0  0  0  0
  -32.5953   14.0794  -18.9279 C   0  0  0  0  0  0  0  0  0  0  0  0
  -33.0549   13.4824  -17.9497 O   0  0  0  0  0  0  0  0  0  0  0  0
  -33.3107   15.0709  -19.5217 O   0  5  0  0  0  0  0  0  0  0  0  0
  -28.2055   15.0064  -19.8190 O   0  0  0  0  0  0  0  0  0  0  0  0
  -29.4809   12.3070  -22.1057 N   0  0  0  0  0  0  0  0  0  0  0  0
  -30.4025   11.1792  -22.3684 C   0  0  0  0  0  0  0  0  0  0  0  0
  -30.8340   10.0971  -21.4301 C   0  0  0  0  0  0  0  0  0  0  0  0
  -30.8502   11.1000  -23.5171 O   0  0  0  0  0  0  0  0  0  0  0  0
  -28.5255   12.3339  -18.1715 N   0  0  0  0  0  0  0  0  0  0  0  0
  -27.3609   13.2340  -17.8265 C   0  0  0  0  0  0  0  0  0  0  0  0
  -27.6175   14.2945  -17.1722 N   0  3  0  0  0  0  0  0  0  0  0  0
  -25.9774   13.0269  -18.1500 N   0  0  0  0  0  0  0  0  0  0  0  0
  -30.9809   15.6457  -20.2073 H   0  0  0  0  0  0  0  0  0  0  0  0
  -29.0566   14.9015  -21.6473 H   0  0  0  0  0  0  0  0  0  0  0  0
  -27.8207   12.7837  -20.9622 H   0  0  0  0  0  0  0  0  0  0  0  0
  -29.1636   11.0492  -19.7082 H   0  0  0  0  0  0  0  0  0  0  0  0
  -31.0782   11.9560  -18.2802 H   0  0  0  0  0  0  0  0  0  0  0  0
  -31.3619   11.6650  -19.9810 H   0  0  0  0  0  0  0  0  0  0  0  0
  -27.8573   15.7866  -20.2050 H   0  0  0  0  0  0  0  0  0  0  0  0
  -29.2787   12.8437  -22.9153 H   0  0  0  0  0  0  0  0  0  0  0  0
  -30.3024   10.4259  -20.5034 H   0  0  0  0  0  0  0  0  0  0  0  0
  -30.1918    9.2593  -21.7980 H   0  0  0  0  0  0  0  0  0  0  0  0
  -31.7465    9.9247  -21.3528 H   0  0  0  0  0  0  0  0  0  0  0  0
  -28.7354   11.6462  -17.4365 H   0  0  0  0  0  0  0  0  0  0  0  0
  -28.5506   14.5082  -16.9174 H   0  0  0  0  0  0  0  0  0  0  0  0
  -26.8755   14.9125  -16.9251 H   0  0  0  0  0  0  0  0  0  0  0  0
  -25.5547   12.1542  -18.0757 H   0  0  0  0  0  0  0  0  0  0  0  0
  -25.4001   13.8353  -18.4156 H   0  0  0  0  0  0  0  0  0  0  0  0
  1  2  1  0  0  0  0
  1  6  2  0  0  0  0
  1 19  1  0  0  0  0
  2  3  1  0  0  0  0
  2 10  1  0  0  0  0
  2 20  1  0  0  0  0
  3  4  1  0  0  0  0
  3 11  1  0  0  0  0
  3 21  1  0  0  0  0
  4  5  1  0  0  0  0
  4 15  1  0  0  0  0
  4 22  1  0  0  0  0
  5  6  1  0  0  0  0
  5 23  1  0  0  0  0
  5 24  1  0  0  0  0
  6  7  1  0  0  0  0
  7  8  2  0  0  0  0
  7  9  1  0  0  0  0
 10 25  1  0  0  0  0
 11 12  1  0  0  0  0
 11 26  1  0  0  0  0
 12 13  1  0  0  0  0
 12 14  2  0  0  0  0
 13 27  1  0  0  0  0
 13 28  1  0  0  0  0
 13 29  1  0  0  0  0
 15 16  1  0  0  0  0
 15 30  1  0  0  0  0
 16 18  1  0  0  0  0
 16 17  2  0  0  0  0
 17 31  1  0  0  0  0
 17 32  1  0  0  0  0
 18 33  1  0  0  0  0
 18 34  1  0  0  0  0
M  END
> <Name>
BDB5008

> <Target>
Neuraminidase A

> <IC50_in_nM>
100

> <Kd_from_ITC>
false

> <source_organism>
Influenza A virus (A/Puerto Rico/8/34/Mount Sinai(H1N1))

> <SourceTag>
NA

> <atoms in reference ligand area>
23

> <score>
-37.5725

$$$$
BDB5009
      BALL 1.4.0 (Jan  4 2012, 23:22:29)

 43 43  0999  0  0  0  0  0  0999 V2000
  -30.3530   11.2538  -20.1004 C   0  0  0  0  0  0  0  0  0  0  0  0
  -29.6815   12.0826  -19.0376 C   0  0  0  0  0  0  0  0  0  0  0  0
  -30.3708   13.4483  -18.8873 C   0  0  0  0  0  0  0  0  0  0  0  0
  -30.4527   14.1176  -20.3208 C   0  0  0  0  0  0  0  0  0  0  0  0
  -31.2886   13.2862  -21.2506 C   0  0  0  0  0  0  0  0  0  0  0  0
  -31.0254   11.8041  -21.1305 C   0  0  0  0  0  0  0  0  0  0  0  0
  -31.5615   10.9535  -22.1720 C   0  0  0  0  0  0  0  0  0  0  0  0
  -31.8725    9.7855  -21.9229 O   0  0  0  0  0  0  0  0  0  0  0  0
  -31.6583   11.4343  -23.4388 O   0  5  0  0  0  0  0  0  0  0  0  0
  -31.7030   13.4017  -18.0836 N   0  0  0  0  0  0  0  0  0  0  0  0
  -33.1435   13.4109  -18.4629 C   0  0  0  0  0  0  0  0  0  0  0  0
  -33.7523   13.4897  -19.8262 C   0  0  0  0  0  0  0  0  0  0  0  0
  -33.9495   13.3330  -17.5292 O   0  0  0  0  0  0  0  0  0  0  0  0
  -29.1206   14.4947  -21.0152 N   0  0  0  0  0  0  0  0  0  0  0  0
  -28.0241   13.6517  -21.6394 C   0  0  0  0  0  0  0  0  0  0  0  0
  -28.1358   13.3937  -22.8697 N   0  3  0  0  0  0  0  0  0  0  0  0
  -26.8555   13.0915  -21.0035 N   0  0  0  0  0  0  0  0  0  0  0  0
  -28.3078   12.2594  -19.4928 O   0  0  0  0  0  0  0  0  0  0  0  0
  -27.5211   13.0575  -18.5795 C   0  0  0  0  0  0  0  0  0  0  0  0
  -27.6918   14.5801  -18.8707 C   0  0  0  0  0  0  0  0  0  0  0  0
  -27.9490   15.3850  -17.5795 C   0  0  0  0  0  0  0  0  0  0  0  0
  -30.2939   10.1874  -20.0353 H   0  0  0  0  0  0  0  0  0  0  0  0
  -29.6552   11.5519  -18.0731 H   0  0  0  0  0  0  0  0  0  0  0  0
  -29.7384   14.0833  -18.2555 H   0  0  0  0  0  0  0  0  0  0  0  0
  -30.9638   15.0821  -20.1935 H   0  0  0  0  0  0  0  0  0  0  0  0
  -31.0988   13.5975  -22.2736 H   0  0  0  0  0  0  0  0  0  0  0  0
  -32.3414   13.4772  -21.0490 H   0  0  0  0  0  0  0  0  0  0  0  0
  -31.5654   13.3205  -17.1035 H   0  0  0  0  0  0  0  0  0  0  0  0
  -33.7993   14.6023  -19.9437 H   0  0  0  0  0  0  0  0  0  0  0  0
  -34.8110   13.2286  -19.5711 H   0  0  0  0  0  0  0  0  0  0  0  0
  -33.3541   13.0101  -20.5133 H   0  0  0  0  0  0  0  0  0  0  0  0
  -28.8668   15.4875  -20.9286 H   0  0  0  0  0  0  0  0  0  0  0  0
  -28.9145   13.7311  -23.3831 H   0  0  0  0  0  0  0  0  0  0  0  0
  -27.4423   12.8410  -23.3260 H   0  0  0  0  0  0  0  0  0  0  0  0
  -26.7788   12.9856  -20.0475 H   0  0  0  0  0  0  0  0  0  0  0  0
  -26.0495   12.8380  -21.5906 H   0  0  0  0  0  0  0  0  0  0  0  0
  -26.4827   12.7910  -18.6773 H   0  0  0  0  0  0  0  0  0  0  0  0
  -27.8323   12.8508  -17.5669 H   0  0  0  0  0  0  0  0  0  0  0  0
  -26.7972   14.9543  -19.3511 H   0  0  0  0  0  0  0  0  0  0  0  0
  -28.5193   14.7234  -19.5489 H   0  0  0  0  0  0  0  0  0  0  0  0
  -26.9995   15.6782  -17.1699 H   0  0  0  0  0  0  0  0  0  0  0  0
  -28.4439   14.7425  -16.8743 H   0  0  0  0  0  0  0  0  0  0  0  0
  -28.5400   16.2326  -17.7843 H   0  0  0  0  0  0  0  0  0  0  0  0
  1  2  1  0  0  0  0
  1  6  2  0  0  0  0
  1 22  1  0  0  0  0
  2  3  1  0  0  0  0
  2 18  1  0  0  0  0
  2 23  1  0  0  0  0
  3  4  1  0  0  0  0
  3 10  1  0  0  0  0
  3 24  1  0  0  0  0
  4  5  1  0  0  0  0
  4 14  1  0  0  0  0
  4 25  1  0  0  0  0
  5  6  1  0  0  0  0
  5 26  1  0  0  0  0
  5 27  1  0  0  0  0
  6  7  1  0  0  0  0
  7  8  2  0  0  0  0
  7  9  1  0  0  0  0
 10 11  1  0  0  0  0
 10 28  1  0  0  0  0
 11 12  1  0  0  0  0
 11 13  2  0  0  0  0
 12 29  1  0  0  0  0
 12 30  1  0  0  0  0
 12 31  1  0  0  0  0
 14 15  1  0  0  0  0
 14 32  1  0  0  0  0
 15 17  1  0  0  0  0
 15 16  2  0  0  0  0
 16 33  1  0  0  0  0
 16 34  1  0  0  0  0
 17 35  1  0  0  0  0
 17 36  1  0  0  0  0
 18 19  1  0  0  0  0
 19 20  1  0  0  0  0
 19 37  1  0  0  0  0
 19 38  1  0  0  0  0
 20 21  1  0  0  0  0
 20 39  1  0  0  0  0
 20 40  1  0  0  0  0
 21 41  1  0  0  0  0
 21 42  1  0  0  0  0
 21 43  1  0  0  0  0
M  END
> <Name>
BDB5009

> <Target>
Neuraminidase A

> <IC50_in_nM>
2

> <Kd_from_ITC>
false

> <source_organism>
Influenza A virus (A/Puerto Rico/8/34/Mount Sinai(H1N1))

> <SourceTag>
NA

> <atoms in reference ligand area>
32

> <score>
-33.5898

$$$$
BDB5200
      BALL 1.4.0 (Jan  4 2012, 23:22:29)

 46 47  0999  0  0  0  0  0  0999 V2000
  -29.1977   13.0059  -21.1952 C   0  0  0  0  0  0  0  0  0  0  0  0
  -30.5822   12.4651  -21.4406 C   0  0  0  0  0  0  0  0  0  0  0  0
  -30.3474   12.6854  -19.0874 N   0  3  0  0  0  0  0  0  0  0  0  0
  -29.4649   13.6503  -19.8225 C   0  0  0  0  0  0  0  0  0  0  0  0
  -28.1948   13.9600  -19.0834 C   0  0  0  0  0  0  0  0  0  0  0  0
  -27.3653   14.7310  -19.5787 O   0  0  0  0  0  0  0  0  0  0  0  0
  -27.9605   13.3980  -17.8693 O   0  5  0  0  0  0  0  0  0  0  0  0
  -30.7639   11.7103  -20.1309 C   0  0  0  0  0  0  0  0  0  0  0  0
  -31.9633   11.8503  -19.0908 C   0  0  0  0  0  0  0  0  0  0  0  0
  -32.3399   10.3011  -18.6296 C   0  0  0  0  0  0  0  0  0  0  0  0
  -32.0700   11.0505  -17.2897 C   0  0  0  0  0  0  0  0  0  0  0  0
  -31.3956   10.0773  -16.3083 C   0  0  0  0  0  0  0  0  0  0  0  0
  -33.3763   11.5628  -16.6448 C   0  0  0  0  0  0  0  0  0  0  0  0
  -33.1442   12.2789  -19.9506 N   0  0  0  0  0  0  0  0  0  0  0  0
  -34.4600   12.0098  -20.3777 C   0  0  0  0  0  0  0  0  0  0  0  0
  -34.8125   10.6893  -21.0135 C   0  0  0  0  0  0  0  0  0  0  0  0
  -35.3324   12.8703  -20.2385 O   0  0  0  0  0  0  0  0  0  0  0  0
  -30.6430   11.5429  -22.6319 C   0  0  0  0  0  0  0  0  0  0  0  0
  -30.1481   10.0983  -24.1511 C   0  0  0  0  0  0  0  0  0  0  0  0
  -31.6845   11.4043  -23.4232 N   0  0  0  0  0  0  0  0  0  0  0  0
  -31.3905   10.5516  -24.3188 N   0  0  0  0  0  0  0  0  0  0  0  0
  -29.6142   10.7320  -23.0397 C   0  0  0  0  0  0  0  0  0  0  0  0
  -28.9394   13.7720  -21.9410 H   0  0  0  0  0  0  0  0  0  0  0  0
  -28.4686   12.1871  -21.1063 H   0  0  0  0  0  0  0  0  0  0  0  0
  -31.3474   13.2196  -21.6755 H   0  0  0  0  0  0  0  0  0  0  0  0
  -29.8124   12.2073  -18.3484 H   0  0  0  0  0  0  0  0  0  0  0  0
  -31.1716   13.1739  -18.7093 H   0  0  0  0  0  0  0  0  0  0  0  0
  -29.9574   14.6284  -19.9263 H   0  0  0  0  0  0  0  0  0  0  0  0
  -30.1608   10.7911  -20.0981 H   0  0  0  0  0  0  0  0  0  0  0  0
  -31.7179   12.5183  -18.2520 H   0  0  0  0  0  0  0  0  0  0  0  0
  -33.3531    9.8745  -18.5947 H   0  0  0  0  0  0  0  0  0  0  0  0
  -31.6408    9.4552  -18.7048 H   0  0  0  0  0  0  0  0  0  0  0  0
  -31.4272   11.9163  -17.5070 H   0  0  0  0  0  0  0  0  0  0  0  0
  -30.6572    9.4602  -16.8413 H   0  0  0  0  0  0  0  0  0  0  0  0
  -32.1532    9.4285  -15.8445 H   0  0  0  0  0  0  0  0  0  0  0  0
  -30.8845   10.6532  -15.5229 H   0  0  0  0  0  0  0  0  0  0  0  0
  -33.8541   12.2690  -17.3399 H   0  0  0  0  0  0  0  0  0  0  0  0
  -33.1209   12.0949  -15.7167 H   0  0  0  0  0  0  0  0  0  0  0  0
  -34.0550   10.7248  -16.4282 H   0  0  0  0  0  0  0  0  0  0  0  0
  -32.9196   13.2120  -19.5767 H   0  0  0  0  0  0  0  0  0  0  0  0
  -35.4116   10.9575  -21.8963 H   0  0  0  0  0  0  0  0  0  0  0  0
  -35.4956   10.2097  -20.2970 H   0  0  0  0  0  0  0  0  0  0  0  0
  -33.9455   10.0598  -21.2623 H   0  0  0  0  0  0  0  0  0  0  0  0
  -29.6382    9.3550  -24.7816 H   0  0  0  0  0  0  0  0  0  0  0  0
  -32.0259   10.2517  -25.0718 H   0  0  0  0  0  0  0  0  0  0  0  0
  -28.6149   10.6140  -22.5954 H   0  0  0  0  0  0  0  0  0  0  0  0
  1  4  1  0  0  0  0
  1  2  1  0  0  0  0
  1 23  1  0  0  0  0
  1 24  1  0  0  0  0
  2  8  1  0  0  0  0
  2 18  1  0  0  0  0
  2 25  1  0  0  0  0
  3  4  1  0  0  0  0
  3  8  1  0  0  0  0
  3 26  1  0  0  0  0
  3 27  1  0  0  0  0
  4  5  1  0  0  0  0
  4 28  1  0  0  0  0
  5  6  2  0  0  0  0
  5  7  1  0  0  0  0
  8  9  1  0  0  0  0
  8 29  1  0  0  0  0
  9 10  1  0  0  0  0
  9 14  1  0  0  0  0
  9 30  1  0  0  0  0
 10 11  1  0  0  0  0
 10 31  1  0  0  0  0
 10 32  1  0  0  0  0
 11 12  1  0  0  0  0
 11 13  1  0  0  0  0
 11 33  1  0  0  0  0
 12 34  1  0  0  0  0
 12 35  1  0  0  0  0
 12 36  1  0  0  0  0
 13 37  1  0  0  0  0
 13 38  1  0  0  0  0
 13 39  1  0  0  0  0
 14 15  1  0  0  0  0
 14 40  1  0  0  0  0
 15 16  1  0  0  0  0
 15 17  2  0  0  0  0
 16 41  1  0  0  0  0
 16 42  1  0  0  0  0
 16 43  1  0  0  0  0
 18 22  1  0  0  0  0
 18 20  2  0  0  0  0
 19 22  2  0  0  0  0
 19 21  1  0  0  0  0
 19 44  1  0  0  0  0
 20 21  1  0  0  0  0
 21 45  1  0  0  0  0
 22 46  1  0  0  0  0
M  END
> <Name>
BDB5200

> <Target>
Neuraminidase A

> <Ki_in_nM>
45

> <Kd_from_ITC>
false

> <Uniprot_ID>
P06820

> <source_organism>
Influenza A virus (A/Tokyo/3/67(H2N2))

> <SourceTag>
NA

> <atoms in reference ligand area>
25

> <score>
-33.3788

$$$$
BDB4942
      BALL 1.4.0 (Jan  4 2012, 23:22:29)

 47 47  0999  0  0  0  0  0  0999 V2000
  -30.1421   10.7391  -22.1121 C   0  0  0  0  0  0  0  0  0  0  0  0
  -31.8287   10.8132  -19.9383 C   0  0  0  0  0  0  0  0  0  0  0  0
  -31.8350    9.5476  -20.7770 C   0  0  0  0  0  0  0  0  0  0  0  0
  -31.1009    9.8095  -22.0419 C   0  0  0  0  0  0  0  0  0  0  0  0
  -29.7479   11.5279  -20.9977 O   0  0  0  0  0  0  0  0  0  0  0  0
  -29.4938   10.9796  -23.4023 C   0  0  0  0  0  0  0  0  0  0  0  0
  -28.7533   11.9586  -23.5495 O   0  0  0  0  0  0  0  0  0  0  0  0
  -29.7060   10.1266  -24.4382 O   0  5  0  0  0  0  0  0  0  0  0  0
  -30.2296   12.3470  -18.7710 C   0  0  0  0  0  0  0  0  0  0  0  0
  -31.1887   12.6050  -18.0333 O   0  0  0  0  0  0  0  0  0  0  0  0
  -30.3679   11.1701  -19.7425 C   0  0  0  0  0  0  0  0  0  0  0  0
  -29.0736   13.1814  -18.6799 N   0  0  0  0  0  0  0  0  0  0  0  0
  -32.4473   10.5173  -18.6389 N   0  0  0  0  0  0  0  0  0  0  0  0
  -33.3038   11.3908  -17.8828 C   0  0  0  0  0  0  0  0  0  0  0  0
  -33.6955   12.7815  -18.3426 C   0  0  0  0  0  0  0  0  0  0  0  0
  -33.7438   10.9864  -16.8010 O   0  0  0  0  0  0  0  0  0  0  0  0
  -33.1962    9.1321  -21.0564 N   0  0  0  0  0  0  0  0  0  0  0  0
  -34.2263   10.0486  -21.3688 C   0  0  0  0  0  0  0  0  0  0  0  0
  -35.3424    9.6094  -21.7879 N   0  3  0  0  0  0  0  0  0  0  0  0
  -34.0436   11.4304  -21.2264 N   0  0  0  0  0  0  0  0  0  0  0  0
  -27.8074   12.5622  -18.3803 C   0  0  0  0  0  0  0  0  0  0  0  0
  -26.6429   13.4543  -18.8609 C   0  0  0  0  0  0  0  0  0  0  0  0
  -29.1369   14.6189  -18.8219 C   0  0  0  0  0  0  0  0  0  0  0  0
  -28.3755   15.2959  -17.6607 C   0  0  0  0  0  0  0  0  0  0  0  0
  -32.3827   11.6364  -20.4131 H   0  0  0  0  0  0  0  0  0  0  0  0
  -31.3404    8.7349  -20.2248 H   0  0  0  0  0  0  0  0  0  0  0  0
  -31.3515    9.2261  -22.9401 H   0  0  0  0  0  0  0  0  0  0  0  0
  -29.8637   10.2840  -19.3295 H   0  0  0  0  0  0  0  0  0  0  0  0
  -32.2480    9.5935  -18.2292 H   0  0  0  0  0  0  0  0  0  0  0  0
  -33.6014   12.7247  -19.4371 H   0  0  0  0  0  0  0  0  0  0  0  0
  -32.8620   13.4097  -17.9952 H   0  0  0  0  0  0  0  0  0  0  0  0
  -34.6812   13.1338  -18.0046 H   0  0  0  0  0  0  0  0  0  0  0  0
  -33.4219    8.1275  -21.0259 H   0  0  0  0  0  0  0  0  0  0  0  0
  -35.4983    8.5975  -21.9001 H   0  0  0  0  0  0  0  0  0  0  0  0
  -36.0963   10.2727  -22.0170 H   0  0  0  0  0  0  0  0  0  0  0  0
  -34.1398   12.0336  -22.0557 H   0  0  0  0  0  0  0  0  0  0  0  0
  -33.8167   11.8397  -20.3089 H   0  0  0  0  0  0  0  0  0  0  0  0
  -27.7501   11.5864  -18.8847 H   0  0  0  0  0  0  0  0  0  0  0  0
  -27.7248   12.4100  -17.2940 H   0  0  0  0  0  0  0  0  0  0  0  0
  -26.8182   13.7415  -19.9081 H   0  0  0  0  0  0  0  0  0  0  0  0
  -25.7033   12.8865  -18.7933 H   0  0  0  0  0  0  0  0  0  0  0  0
  -26.5782   14.3560  -18.2341 H   0  0  0  0  0  0  0  0  0  0  0  0
  -28.6798   14.9124  -19.7785 H   0  0  0  0  0  0  0  0  0  0  0  0
  -30.1880   14.9429  -18.8071 H   0  0  0  0  0  0  0  0  0  0  0  0
  -28.5799   14.7536  -16.7257 H   0  0  0  0  0  0  0  0  0  0  0  0
  -28.7155   16.3372  -17.5598 H   0  0  0  0  0  0  0  0  0  0  0  0
  -27.2952   15.2798  -17.8668 H   0  0  0  0  0  0  0  0  0  0  0  0
  1  5  1  0  0  0  0
  1  4  2  0  0  0  0
  1  6  1  0  0  0  0
  2 11  1  0  0  0  0
  2  3  1  0  0  0  0
  2 13  1  0  0  0  0
  2 25  1  0  0  0  0
  3  4  1  0  0  0  0
  3 17  1  0  0  0  0
  3 26  1  0  0  0  0
  4 27  1  0  0  0  0
  5 11  1  0  0  0  0
  6  7  2  0  0  0  0
  6  8  1  0  0  0  0
  9 11  1  0  0  0  0
  9 12  1  0  0  0  0
  9 10  2  0  0  0  0
 11 28  1  0  0  0  0
 12 21  1  0  0  0  0
 12 23  1  0  0  0  0
 13 14  1  0  0  0  0
 13 29  1  0  0  0  0
 14 15  1  0  0  0  0
 14 16  2  0  0  0  0
 15 30  1  0  0  0  0
 15 31  1  0  0  0  0
 15 32  1  0  0  0  0
 17 18  1  0  0  0  0
 17 33  1  0  0  0  0
 18 20  1  0  0  0  0
 18 19  2  0  0  0  0
 19 34  1  0  0  0  0
 19 35  1  0  0  0  0
 20 36  1  0  0  0  0
 20 37  1  0  0  0  0
 21 22  1  0  0  0  0
 21 38  1  0  0  0  0
 21 39  1  0  0  0  0
 22 40  1  0  0  0  0
 22 41  1  0  0  0  0
 22 42  1  0  0  0  0
 23 24  1  0  0  0  0
 23 43  1  0  0  0  0
 23 44  1  0  0  0  0
 24 45  1  0  0  0  0
 24 46  1  0  0  0  0
 24 47  1  0  0  0  0
M  END
> <Name>
BDB4942

> <Target>
Neuraminidase A

> <IC50_in_nM>
1

> <Kd_from_ITC>
false

> <source_organism>
Influenza A virus (A/Singapore/1/57(H2N2))

> <SourceTag>
NA

> <atoms in reference ligand area>
27

> <score>
-33.1401

$$$$
BDB5257
      BALL 1.4.0 (Jan  4 2012, 23:22:29)

 41 42  0999  0  0  0  0  0  0999 V2000
  -29.2936   11.0391  -22.0413 C   0  0  0  0  0  0  0  0  0  0  0  0
  -29.6314   11.5718  -20.6705 C   0  0  0  0  0  0  0  0  0  0  0  0
  -31.2001   11.6581  -20.4596 C   0  0  0  0  0  0  0  0  0  0  0  0
  -32.0093   12.0935  -21.7403 C   0  0  0  0  0  0  0  0  0  0  0  0
  -31.7237   11.0550  -22.8266 C   0  0  0  0  0  0  0  0  0  0  0  0
  -30.2081   10.8207  -23.0144 C   0  0  0  0  0  0  0  0  0  0  0  0
  -29.7164   10.2423  -24.2564 C   0  0  0  0  0  0  0  0  0  0  0  0
  -29.8397   10.8588  -25.3143 O   0  0  0  0  0  0  0  0  0  0  0  0
  -29.0772    9.0445  -24.2347 O   0  5  0  0  0  0  0  0  0  0  0  0
  -31.7409   13.3985  -22.3224 N   0  3  0  0  0  0  0  0  0  0  0  0
  -31.8926   10.3768  -19.9938 N   0  0  0  0  0  0  0  0  0  0  0  0
  -33.2404    9.8400  -20.2361 C   0  0  0  0  0  0  0  0  0  0  0  0
  -34.2588   10.3474  -21.2167 C   0  0  0  0  0  0  0  0  0  0  0  0
  -33.5542    8.8345  -19.5883 O   0  0  0  0  0  0  0  0  0  0  0  0
  -29.0076   15.2413  -19.7975 C   0  0  0  0  0  0  0  0  0  0  0  0
  -27.0196   14.1308  -19.3133 C   0  0  0  0  0  0  0  0  0  0  0  0
  -27.7319   12.7783  -19.4525 C   0  0  0  0  0  0  0  0  0  0  0  0
  -29.7487   13.8951  -19.9603 C   0  0  0  0  0  0  0  0  0  0  0  0
  -27.9493   15.1048  -18.8461 O   0  0  0  0  0  0  0  0  0  0  0  0
  -28.8153   12.8515  -20.4199 N   0  0  0  0  0  0  0  0  0  0  0  0
  -28.2685   10.8210  -22.2570 H   0  0  0  0  0  0  0  0  0  0  0  0
  -29.2507   10.8991  -19.8881 H   0  0  0  0  0  0  0  0  0  0  0  0
  -31.3801   12.3605  -19.6348 H   0  0  0  0  0  0  0  0  0  0  0  0
  -33.0740   12.0870  -21.4729 H   0  0  0  0  0  0  0  0  0  0  0  0
  -32.1495   11.3895  -23.7606 H   0  0  0  0  0  0  0  0  0  0  0  0
  -32.1983   10.1196  -22.5594 H   0  0  0  0  0  0  0  0  0  0  0  0
  -30.9070   13.3670  -22.8635 H   0  0  0  0  0  0  0  0  0  0  0  0
  -31.6820   14.1118  -21.5805 H   0  0  0  0  0  0  0  0  0  0  0  0
  -32.5129   13.6336  -22.9588 H   0  0  0  0  0  0  0  0  0  0  0  0
  -31.3362    9.8127  -19.3958 H   0  0  0  0  0  0  0  0  0  0  0  0
  -33.8488   11.3626  -21.4239 H   0  0  0  0  0  0  0  0  0  0  0  0
  -35.1122   10.5534  -20.5305 H   0  0  0  0  0  0  0  0  0  0  0  0
  -34.4432    9.8095  -21.9646 H   0  0  0  0  0  0  0  0  0  0  0  0
  -29.6989   15.9903  -19.4580 H   0  0  0  0  0  0  0  0  0  0  0  0
  -28.6015   15.5402  -20.7430 H   0  0  0  0  0  0  0  0  0  0  0  0
  -26.2162   14.0394  -18.6152 H   0  0  0  0  0  0  0  0  0  0  0  0
  -26.6354   14.4315  -20.2669 H   0  0  0  0  0  0  0  0  0  0  0  0
  -27.0217   12.0336  -19.7683 H   0  0  0  0  0  0  0  0  0  0  0  0
  -28.1299   12.4847  -18.4932 H   0  0  0  0  0  0  0  0  0  0  0  0
  -30.5401   14.0083  -20.6795 H   0  0  0  0  0  0  0  0  0  0  0  0
  -30.1718   13.6060  -19.0181 H   0  0  0  0  0  0  0  0  0  0  0  0
  1  2  1  0  0  0  0
  1  6  2  0  0  0  0
  1 21  1  0  0  0  0
  2  3  1  0  0  0  0
  2 20  1  0  0  0  0
  2 22  1  0  0  0  0
  3  4  1  0  0  0  0
  3 11  1  0  0  0  0
  3 23  1  0  0  0  0
  4  5  1  0  0  0  0
  4 10  1  0  0  0  0
  4 24  1  0  0  0  0
  5  6  1  0  0  0  0
  5 25  1  0  0  0  0
  5 26  1  0  0  0  0
  6  7  1  0  0  0  0
  7  8  2  0  0  0  0
  7  9  1  0  0  0  0
 10 27  1  0  0  0  0
 10 28  1  0  0  0  0
 10 29  1  0  0  0  0
 11 12  1  0  0  0  0
 11 30  1  0  0  0  0
 12 13  1  0  0  0  0
 12 14  2  0  0  0  0
 13 31  1  0  0  0  0
 13 32  1  0  0  0  0
 13 33  1  0  0  0  0
 15 19  1  0  0  0  0
 15 18  1  0  0  0  0
 15 34  1  0  0  0  0
 15 35  1  0  0  0  0
 16 19  1  0  0  0  0
 16 17  1  0  0  0  0
 16 36  1  0  0  0  0
 16 37  1  0  0  0  0
 17 20  1  0  0  0  0
 17 38  1  0  0  0  0
 17 39  1  0  0  0  0
 18 20  1  0  0  0  0
 18 40  1  0  0  0  0
 18 41  1  0  0  0  0
M  END
> <Name>
BDB5257

> <Target>
Neuraminidase A

> <IC50_in_nM>
260

> <Kd_from_ITC>
false

> <source_organism>
Influenza A virus (A/Puerto Rico/8/34(H1N1))

> <SourceTag>
NA

> <atoms in reference ligand area>
30

> <score>
-31.2641

$$$$
BDB5242
      BALL 1.4.0 (Jan  4 2012, 23:22:29)

 40 40  0999  0  0  0  0  0  0999 V2000
  -32.5126   11.8668  -21.0454 C   0  0  0  0  0  0  0  0  0  0  0  0
  -32.3351   12.8334  -19.9005 C   0  0  0  0  0  0  0  0  0  0  0  0
  -30.8129   12.9969  -19.5075 C   0  0  0  0  0  0  0  0  0  0  0  0
  -29.9881   11.6671  -19.5448 C   0  0  0  0  0  0  0  0  0  0  0  0
  -30.0586   11.1379  -20.9815 C   0  0  0  0  0  0  0  0  0  0  0  0
  -31.5117   11.0880  -21.5209 C   0  0  0  0  0  0  0  0  0  0  0  0
  -31.8175   10.2373  -22.6632 C   0  0  0  0  0  0  0  0  0  0  0  0
  -32.4065    9.1686  -22.4970 O   0  0  0  0  0  0  0  0  0  0  0  0
  -31.4884   10.6475  -23.9154 O   0  5  0  0  0  0  0  0  0  0  0  0
  -30.3939   10.5907  -18.6545 N   0  3  0  0  0  0  0  0  0  0  0  0
  -30.0024   13.9958  -20.3264 N   0  0  0  0  0  0  0  0  0  0  0  0
  -28.7109   14.6518  -20.0859 C   0  0  0  0  0  0  0  0  0  0  0  0
  -27.7589   14.4023  -18.9536 C   0  0  0  0  0  0  0  0  0  0  0  0
  -28.3561   15.4846  -20.9277 O   0  0  0  0  0  0  0  0  0  0  0  0
  -32.9204   12.9125  -17.3234 C   0  0  0  0  0  0  0  0  0  0  0  0
  -34.1332   12.9107  -16.3896 C   0  0  0  0  0  0  0  0  0  0  0  0
  -33.6791   13.3911  -14.9968 C   0  0  0  0  0  0  0  0  0  0  0  0
  -33.2941   12.3968  -18.7107 C   0  0  0  0  0  0  0  0  0  0  0  0
  -33.4764   11.7929  -21.5041 H   0  0  0  0  0  0  0  0  0  0  0  0
  -32.6963   13.8401  -20.1564 H   0  0  0  0  0  0  0  0  0  0  0  0
  -30.7877   13.4219  -18.4951 H   0  0  0  0  0  0  0  0  0  0  0  0
  -28.9534   11.9131  -19.2755 H   0  0  0  0  0  0  0  0  0  0  0  0
  -29.6328   10.1440  -21.0165 H   0  0  0  0  0  0  0  0  0  0  0  0
  -29.4614   11.7743  -21.6254 H   0  0  0  0  0  0  0  0  0  0  0  0
  -31.3650   10.5435  -18.6102 H   0  0  0  0  0  0  0  0  0  0  0  0
  -29.9852   10.7299  -17.7187 H   0  0  0  0  0  0  0  0  0  0  0  0
  -30.0618    9.7009  -19.0437 H   0  0  0  0  0  0  0  0  0  0  0  0
  -30.4299   14.2516  -21.1850 H   0  0  0  0  0  0  0  0  0  0  0  0
  -27.6205   15.4421  -18.5770 H   0  0  0  0  0  0  0  0  0  0  0  0
  -26.8192   14.2114  -19.5219 H   0  0  0  0  0  0  0  0  0  0  0  0
  -28.0031   13.7556  -18.3183 H   0  0  0  0  0  0  0  0  0  0  0  0
  -32.1480   12.2853  -16.9055 H   0  0  0  0  0  0  0  0  0  0  0  0
  -32.5374   13.9149  -17.4063 H   0  0  0  0  0  0  0  0  0  0  0  0
  -34.5256   11.9232  -16.3148 H   0  0  0  0  0  0  0  0  0  0  0  0
  -34.8788   13.5741  -16.7703 H   0  0  0  0  0  0  0  0  0  0  0  0
  -33.0535   12.6555  -14.5418 H   0  0  0  0  0  0  0  0  0  0  0  0
  -34.5293   13.5743  -14.3777 H   0  0  0  0  0  0  0  0  0  0  0  0
  -33.1191   14.3098  -15.1044 H   0  0  0  0  0  0  0  0  0  0  0  0
  -33.3412   11.2994  -18.6762 H   0  0  0  0  0  0  0  0  0  0  0  0
  -34.3203   12.7235  -18.9430 H   0  0  0  0  0  0  0  0  0  0  0  0
  1  2  1  0  0  0  0
  1  6  2  0  0  0  0
  1 19  1  0  0  0  0
  2  3  1  0  0  0  0
  2 18  1  0  0  0  0
  2 20  1  0  0  0  0
  3  4  1  0  0  0  0
  3 11  1  0  0  0  0
  3 21  1  0  0  0  0
  4  5  1  0  0  0  0
  4 10  1  0  0  0  0
  4 22  1  0  0  0  0
  5  6  1  0  0  0  0
  5 23  1  0  0  0  0
  5 24  1  0  0  0  0
  6  7  1  0  0  0  0
  7  8  2  0  0  0  0
  7  9  1  0  0  0  0
 10 25  1  0  0  0  0
 10 26  1  0  0  0  0
 10 27  1  0  0  0  0
 11 12  1  0  0  0  0
 11 28  1  0  0  0  0
 12 13  1  0  0  0  0
 12 14  2  0  0  0  0
 13 29  1  0  0  0  0
 13 30  1  0  0  0  0
 13 31  1  0  0  0  0
 15 18  1  0  0  0  0
 15 16  1  0  0  0  0
 15 32  1  0  0  0  0
 15 33  1  0  0  0  0
 16 17  1  0  0  0  0
 16 34  1  0  0  0  0
 16 35  1  0  0  0  0
 17 36  1  0  0  0  0
 17 37  1  0  0  0  0
 17 38  1  0  0  0  0
 18 39  1  0  0  0  0
 18 40  1  0  0  0  0
M  END
> <Name>
BDB5242

> <Target>
Neuraminidase A

> <IC50_in_nM>
220

> <Kd_from_ITC>
false

> <source_organism>
Influenza A virus (A/Puerto Rico/8/34(H1N1))

> <SourceTag>
NA

> <atoms in reference ligand area>
26

> <score>
-30.8239

$$$$
BDB4946
      BALL 1.4.0 (Jan  4 2012, 23:22:29)

 60 61  0999  0  0  0  0  0  0999 V2000
  -33.7652    9.3689  -17.9519 C   0  0  0  0  0  0  0  0  0  0  0  0
  -33.0062   11.0357  -20.0066 C   0  0  0  0  0  0  0  0  0  0  0  0
  -32.2878   11.2011  -18.6793 C   0  0  0  0  0  0  0  0  0  0  0  0
  -33.0250   10.4379  -17.6391 C   0  0  0  0  0  0  0  0  0  0  0  0
  -33.8929    8.8796  -19.2800 O   0  0  0  0  0  0  0  0  0  0  0  0
  -34.5050    8.6936  -16.8846 C   0  0  0  0  0  0  0  0  0  0  0  0
  -34.5766    9.2058  -15.7617 O   0  0  0  0  0  0  0  0  0  0  0  0
  -35.1132    7.5034  -17.1282 O   0  5  0  0  0  0  0  0  0  0  0  0
  -33.6261    9.2569  -21.6552 C   0  0  0  0  0  0  0  0  0  0  0  0
  -34.8469    9.3587  -21.8198 O   0  0  0  0  0  0  0  0  0  0  0  0
  -33.0633    9.5417  -20.2604 C   0  0  0  0  0  0  0  0  0  0  0  0
  -32.8307    8.8628  -22.7749 N   0  0  0  0  0  0  0  0  0  0  0  0
  -32.2102   11.6886  -21.0548 N   0  0  0  0  0  0  0  0  0  0  0  0
  -32.2089   13.0902  -21.3770 C   0  0  0  0  0  0  0  0  0  0  0  0
  -33.0587   14.1155  -20.6522 C   0  0  0  0  0  0  0  0  0  0  0  0
  -31.4763   13.4794  -22.2930 O   0  0  0  0  0  0  0  0  0  0  0  0
  -32.2071   12.6036  -18.3185 N   0  0  0  0  0  0  0  0  0  0  0  0
  -32.7764   13.1218  -17.1328 C   0  0  0  0  0  0  0  0  0  0  0  0
  -32.0299   13.3348  -16.1270 N   0  3  0  0  0  0  0  0  0  0  0  0
  -34.1454   13.4056  -17.0423 N   0  0  0  0  0  0  0  0  0  0  0  0
  -33.4953    8.6838  -24.0440 C   0  0  0  0  0  0  0  0  0  0  0  0
  -31.4037    8.6255  -22.6792 C   0  0  0  0  0  0  0  0  0  0  0  0
  -30.6148    9.8957  -23.0773 C   0  0  0  0  0  0  0  0  0  0  0  0
  -29.6880    9.5690  -24.2612 C   0  0  0  0  0  0  0  0  0  0  0  0
  -33.1458    7.3158  -24.6680 C   0  0  0  0  0  0  0  0  0  0  0  0
  -33.8610    7.1558  -25.9771 C   0  0  0  0  0  0  0  0  0  0  0  0
  -35.0362    7.8593  -26.2159 C   0  0  0  0  0  0  0  0  0  0  0  0
  -35.6960    7.7166  -27.4302 C   0  0  0  0  0  0  0  0  0  0  0  0
  -35.1808    6.8705  -28.4058 C   0  0  0  0  0  0  0  0  0  0  0  0
  -34.0066    6.1677  -28.1670 C   0  0  0  0  0  0  0  0  0  0  0  0
  -33.3461    6.3105  -26.9515 C   0  0  0  0  0  0  0  0  0  0  0  0
  -34.0124   11.4803  -19.9997 H   0  0  0  0  0  0  0  0  0  0  0  0
  -31.2615   10.8141  -18.7629 H   0  0  0  0  0  0  0  0  0  0  0  0
  -32.9604   10.7591  -16.5891 H   0  0  0  0  0  0  0  0  0  0  0  0
  -32.0364    9.1544  -20.1863 H   0  0  0  0  0  0  0  0  0  0  0  0
  -31.5923   11.0830  -21.6137 H   0  0  0  0  0  0  0  0  0  0  0  0
  -34.0878   13.8135  -20.8969 H   0  0  0  0  0  0  0  0  0  0  0  0
  -32.8705   15.0443  -21.2109 H   0  0  0  0  0  0  0  0  0  0  0  0
  -32.8736   14.2081  -19.5718 H   0  0  0  0  0  0  0  0  0  0  0  0
  -31.7146   13.2488  -18.9526 H   0  0  0  0  0  0  0  0  0  0  0  0
  -31.0208   13.1333  -16.1716 H   0  0  0  0  0  0  0  0  0  0  0  0
  -32.4394   13.7123  -15.2606 H   0  0  0  0  0  0  0  0  0  0  0  0
  -34.4481   14.3890  -16.9938 H   0  0  0  0  0  0  0  0  0  0  0  0
  -34.8406   12.6459  -17.0244 H   0  0  0  0  0  0  0  0  0  0  0  0
  -33.1866    9.4849  -24.7316 H   0  0  0  0  0  0  0  0  0  0  0  0
  -34.5834    8.7464  -23.8947 H   0  0  0  0  0  0  0  0  0  0  0  0
  -31.1255    7.7996  -23.3502 H   0  0  0  0  0  0  0  0  0  0  0  0
  -31.1495    8.3485  -21.6454 H   0  0  0  0  0  0  0  0  0  0  0  0
  -30.0116   10.2372  -22.2232 H   0  0  0  0  0  0  0  0  0  0  0  0
  -31.3189   10.6882  -23.3708 H   0  0  0  0  0  0  0  0  0  0  0  0
  -29.2596   10.4995  -24.6622 H   0  0  0  0  0  0  0  0  0  0  0  0
  -30.2620    9.0601  -25.0496 H   0  0  0  0  0  0  0  0  0  0  0  0
  -28.8755    8.9112  -23.9194 H   0  0  0  0  0  0  0  0  0  0  0  0
  -33.4527    6.5112  -23.9836 H   0  0  0  0  0  0  0  0  0  0  0  0
  -32.0602    7.2567  -24.8354 H   0  0  0  0  0  0  0  0  0  0  0  0
  -35.4435    8.5285  -25.4437 H   0  0  0  0  0  0  0  0  0  0  0  0
  -36.6258    8.2729  -27.6196 H   0  0  0  0  0  0  0  0  0  0  0  0
  -35.7033    6.7576  -29.3672 H   0  0  0  0  0  0  0  0  0  0  0  0
  -33.5992    5.4983  -28.9390 H   0  0  0  0  0  0  0  0  0  0  0  0
  -32.4163    5.7542  -26.7620 H   0  0  0  0  0  0  0  0  0  0  0  0
  1  5  1  0  0  0  0
  1  4  2  0  0  0  0
  1  6  1  0  0  0  0
  2 11  1  0  0  0  0
  2  3  1  0  0  0  0
  2 13  1  0  0  0  0
  2 32  1  0  0  0  0
  3  4  1  0  0  0  0
  3 17  1  0  0  0  0
  3 33  1  0  0  0  0
  4 34  1  0  0  0  0
  5 11  1  0  0  0  0
  6  7  2  0  0  0  0
  6  8  1  0  0  0  0
  9 11  1  0  0  0  0
  9 12  1  0  0  0  0
  9 10  2  0  0  0  0
 11 35  1  0  0  0  0
 12 21  1  0  0  0  0
 12 22  1  0  0  0  0
 13 14  1  0  0  0  0
 13 36  1  0  0  0  0
 14 15  1  0  0  0  0
 14 16  2  0  0  0  0
 15 37  1  0  0  0  0
 15 38  1  0  0  0  0
 15 39  1  0  0  0  0
 17 18  1  0  0  0  0
 17 40  1  0  0  0  0
 18 20  1  0  0  0  0
 18 19  2  0  0  0  0
 19 41  1  0  0  0  0
 19 42  1  0  0  0  0
 20 43  1  0  0  0  0
 20 44  1  0  0  0  0
 21 25  1  0  0  0  0
 21 45  1  0  0  0  0
 21 46  1  0  0  0  0
 22 23  1  0  0  0  0
 22 47  1  0  0  0  0
 22 48  1  0  0  0  0
 23 24  1  0  0  0  0
 23 49  1  0  0  0  0
 23 50  1  0  0  0  0
 24 51  1  0  0  0  0
 24 52  1  0  0  0  0
 24 53  1  0  0  0  0
 25 26  1  0  0  0  0
 25 54  1  0  0  0  0
 25 55  1  0  0  0  0
 26 31  2  0  0  0  0
 26 27  1  0  0  0  0
 27 28  2  0  0  0  0
 27 56  1  0  0  0  0
 28 29  1  0  0  0  0
 28 57  1  0  0  0  0
 29 30  2  0  0  0  0
 29 58  1  0  0  0  0
 30 31  1  0  0  0  0
 30 59  1  0  0  0  0
 31 60  1  0  0  0  0
M  END
> <Name>
BDB4946

> <Target>
Neuraminidase A

> <IC50_in_nM>
5

> <Kd_from_ITC>
false

> <source_organism>
Influenza A virus (A/Singapore/1/57(H2N2))

> <SourceTag>
NA

> <atoms in reference ligand area>
17

> <score>
-30.467

$$$$
BDB4977
      BALL 1.4.0 (Jan  4 2012, 23:22:29)

 46 47  0999  0  0  0  0  0  0999 V2000
  -31.0382    9.8309  -21.0195 C   0  0  0  0  0  0  0  0  0  0  0  0
  -30.0886   10.4350  -22.1330 C   0  0  0  0  0  0  0  0  0  0  0  0
  -30.9003   11.3528  -23.0546 C   0  0  0  0  0  0  0  0  0  0  0  0
  -31.7113   12.3020  -22.2074 C   0  0  0  0  0  0  0  0  0  0  0  0
  -32.0453   12.0230  -20.9283 C   0  0  0  0  0  0  0  0  0  0  0  0
  -31.6617   10.8378  -20.2437 O   0  0  0  0  0  0  0  0  0  0  0  0
  -32.7967   13.0000  -20.1458 C   0  0  0  0  0  0  0  0  0  0  0  0
  -33.5194   12.6022  -19.2191 O   0  0  0  0  0  0  0  0  0  0  0  0
  -32.7152   14.3176  -20.4212 O   0  5  0  0  0  0  0  0  0  0  0  0
  -31.7813   10.5876  -23.9672 N   0  3  0  0  0  0  0  0  0  0  0  0
  -28.8106   11.1437  -21.6911 N   0  0  0  0  0  0  0  0  0  0  0  0
  -29.4620   13.6513  -21.1851 C   0  0  0  0  0  0  0  0  0  0  0  0
  -28.4993   12.5372  -21.3949 C   0  0  0  0  0  0  0  0  0  0  0  0
  -27.3028   12.8092  -21.2432 O   0  0  0  0  0  0  0  0  0  0  0  0
  -31.6366    7.7388  -21.9661 O   0  0  0  0  0  0  0  0  0  0  0  0
  -32.0856    8.8357  -21.6166 C   0  0  0  0  0  0  0  0  0  0  0  0
  -34.5541    9.4846  -20.7535 C   0  0  0  0  0  0  0  0  0  0  0  0
  -35.8391    8.8185  -21.2754 C   0  0  0  0  0  0  0  0  0  0  0  0
  -35.6408    9.0921  -22.7663 C   0  0  0  0  0  0  0  0  0  0  0  0
  -34.2202    8.5246  -22.9219 C   0  0  0  0  0  0  0  0  0  0  0  0
  -33.5596    9.0034  -21.7407 N   0  0  0  0  0  0  0  0  0  0  0  0
  -34.2906    6.9872  -22.8417 C   0  0  0  0  0  0  0  0  0  0  0  0
  -34.8245   11.0085  -20.8904 C   0  0  0  0  0  0  0  0  0  0  0  0
  -30.4070    9.2131  -20.3634 H   0  0  0  0  0  0  0  0  0  0  0  0
  -29.6984    9.6118  -22.7466 H   0  0  0  0  0  0  0  0  0  0  0  0
  -30.2126   11.9030  -23.7083 H   0  0  0  0  0  0  0  0  0  0  0  0
  -32.0333   13.2287  -22.6346 H   0  0  0  0  0  0  0  0  0  0  0  0
  -31.3257   10.3560  -24.8083 H   0  0  0  0  0  0  0  0  0  0  0  0
  -32.6091   11.1590  -24.1850 H   0  0  0  0  0  0  0  0  0  0  0  0
  -32.0798    9.7223  -23.5030 H   0  0  0  0  0  0  0  0  0  0  0  0
  -28.0184   10.5449  -21.6564 H   0  0  0  0  0  0  0  0  0  0  0  0
  -30.1417   13.4949  -22.0539 H   0  0  0  0  0  0  0  0  0  0  0  0
  -28.8380   14.5178  -21.5028 H   0  0  0  0  0  0  0  0  0  0  0  0
  -29.8703   13.7168  -20.3406 H   0  0  0  0  0  0  0  0  0  0  0  0
  -34.3353    9.2058  -19.7237 H   0  0  0  0  0  0  0  0  0  0  0  0
  -36.6635    9.3232  -20.9312 H   0  0  0  0  0  0  0  0  0  0  0  0
  -35.8102    7.8057  -21.0952 H   0  0  0  0  0  0  0  0  0  0  0  0
  -36.3067    8.5340  -23.3206 H   0  0  0  0  0  0  0  0  0  0  0  0
  -35.6366   10.1044  -22.9431 H   0  0  0  0  0  0  0  0  0  0  0  0
  -33.7329    8.8391  -23.8547 H   0  0  0  0  0  0  0  0  0  0  0  0
  -34.5268    6.6802  -21.8474 H   0  0  0  0  0  0  0  0  0  0  0  0
  -33.3599    6.5593  -23.1410 H   0  0  0  0  0  0  0  0  0  0  0  0
  -35.0677    6.6342  -23.5098 H   0  0  0  0  0  0  0  0  0  0  0  0
  -35.7780   11.2213  -20.4419 H   0  0  0  0  0  0  0  0  0  0  0  0
  -34.8770   11.2468  -21.9374 H   0  0  0  0  0  0  0  0  0  0  0  0
  -34.0631   11.5625  -20.4222 H   0  0  0  0  0  0  0  0  0  0  0  0
  1  6  1  0  0  0  0
  1  2  1  0  0  0  0
  1 16  1  0  0  0  0
  1 24  1  0  0  0  0
  2  3  1  0  0  0  0
  2 11  1  0  0  0  0
  2 25  1  0  0  0  0
  3  4  1  0  0  0  0
  3 10  1  0  0  0  0
  3 26  1  0  0  0  0
  4  5  2  0  0  0  0
  4 27  1  0  0  0  0
  5  6  1  0  0  0  0
  5  7  1  0  0  0  0
  7  8  2  0  0  0  0
  7  9  1  0  0  0  0
 10 28  1  0  0  0  0
 10 29  1  0  0  0  0
 10 30  1  0  0  0  0
 11 13  1  0  0  0  0
 11 31  1  0  0  0  0
 12 13  1  0  0  0  0
 12 32  1  0  0  0  0
 12 33  1  0  0  0  0
 12 34  1  0  0  0  0
 13 14  2  0  0  0  0
 15 16  2  0  0  0  0
 16 21  1  0  0  0  0
 17 21  1  0  0  0  0
 17 18  1  0  0  0  0
 17 23  1  0  0  0  0
 17 35  1  0  0  0  0
 18 19  1  0  0  0  0
 18 36  1  0  0  0  0
 18 37  1  0  0  0  0
 19 20  1  0  0  0  0
 19 38  1  0  0  0  0
 19 39  1  0  0  0  0
 20 21  1  0  0  0  0
 20 22  1  0  0  0  0
 20 40  1  0  0  0  0
 22 41  1  0  0  0  0
 22 42  1  0  0  0  0
 22 43  1  0  0  0  0
 23 44  1  0  0  0  0
 23 45  1  0  0  0  0
 23 46  1  0  0  0  0
M  END
> <Name>
BDB4977

> <Target>
Neuraminidase A

> <IC50_in_nM>
110

> <Kd_from_ITC>
false

> <source_organism>
Influenza A virus (A/Singapore/1/57(H2N2))

> <SourceTag>
NA

> <atoms in reference ligand area>
22

> <score>
-29.8196

$$$$
BDB5007
      BALL 1.4.0 (Jan  4 2012, 23:22:29)

 58 60  0999  0  0  0  0  0  0999 V2000
  -36.2622   10.5627  -12.0870 C   0  0  0  0  0  0  0  0  0  0  0  0
  -37.0553   11.0076  -13.2734 C   0  0  0  0  0  0  0  0  0  0  0  0
  -37.9706    9.8970  -13.8324 C   0  0  0  0  0  0  0  0  0  0  0  0
  -37.1035    8.5938  -14.0081 C   0  0  0  0  0  0  0  0  0  0  0  0
  -36.6283    8.1197  -12.6345 C   0  0  0  0  0  0  0  0  0  0  0  0
  -36.0315    9.2747  -11.8047 C   0  0  0  0  0  0  0  0  0  0  0  0
  -35.2986    8.9737  -10.5859 C   0  0  0  0  0  0  0  0  0  0  0  0
  -34.3228    8.2145  -10.6283 O   0  0  0  0  0  0  0  0  0  0  0  0
  -35.6315    9.5888   -9.4287 O   0  5  0  0  0  0  0  0  0  0  0  0
  -35.8948    8.7602  -14.8348 N   0  3  0  0  0  0  0  0  0  0  0  0
  -39.2812    9.5677  -13.1387 N   0  0  0  0  0  0  0  0  0  0  0  0
  -39.6604    9.4617  -11.7262 C   0  0  0  0  0  0  0  0  0  0  0  0
  -38.8706    9.9007  -10.5317 C   0  0  0  0  0  0  0  0  0  0  0  0
  -40.7859    9.0056  -11.4993 O   0  0  0  0  0  0  0  0  0  0  0  0
  -36.1325   11.2373  -14.3761 O   0  0  0  0  0  0  0  0  0  0  0  0
  -34.9096   11.8899  -14.0300 C   0  0  0  0  0  0  0  0  0  0  0  0
  -34.0356   12.1173  -15.3280 C   0  0  0  0  0  0  0  0  0  0  0  0
  -33.2788   10.8562  -15.9102 C   0  0  0  0  0  0  0  0  0  0  0  0
  -32.1471   11.4112  -16.7652 C   0  0  0  0  0  0  0  0  0  0  0  0
  -30.1535   12.3198  -18.4848 C   0  0  0  0  0  0  0  0  0  0  0  0
  -30.5085   10.9914  -18.4799 C   0  0  0  0  0  0  0  0  0  0  0  0
  -31.5051   10.5341  -17.6264 C   0  0  0  0  0  0  0  0  0  0  0  0
  -31.7806   12.7571  -16.7523 C   0  0  0  0  0  0  0  0  0  0  0  0
  -30.7860   13.2173  -17.6101 C   0  0  0  0  0  0  0  0  0  0  0  0
  -29.1383   12.7804  -19.4301 C   0  0  0  0  0  0  0  0  0  0  0  0
  -27.1309   13.6005  -21.1683 C   0  0  0  0  0  0  0  0  0  0  0  0
  -26.8303   13.3557  -19.8331 C   0  0  0  0  0  0  0  0  0  0  0  0
  -27.8266   12.9438  -18.9635 C   0  0  0  0  0  0  0  0  0  0  0  0
  -29.4351   13.0259  -20.7530 C   0  0  0  0  0  0  0  0  0  0  0  0
  -28.4314   13.4364  -21.6292 C   0  0  0  0  0  0  0  0  0  0  0  0
  -35.8603   11.3083  -11.4331 H   0  0  0  0  0  0  0  0  0  0  0  0
  -37.6266   11.9359  -13.0496 H   0  0  0  0  0  0  0  0  0  0  0  0
  -38.2852   10.2443  -14.8257 H   0  0  0  0  0  0  0  0  0  0  0  0
  -37.7208    7.8285  -14.4865 H   0  0  0  0  0  0  0  0  0  0  0  0
  -35.8814    7.3509  -12.7613 H   0  0  0  0  0  0  0  0  0  0  0  0
  -37.4631    7.6894  -12.0971 H   0  0  0  0  0  0  0  0  0  0  0  0
  -35.5526    7.8664  -15.1258 H   0  0  0  0  0  0  0  0  0  0  0  0
  -35.1695    9.2674  -14.3082 H   0  0  0  0  0  0  0  0  0  0  0  0
  -36.1397    9.2898  -15.6781 H   0  0  0  0  0  0  0  0  0  0  0  0
  -40.0118    9.3364  -13.7659 H   0  0  0  0  0  0  0  0  0  0  0  0
  -39.5981   10.6034  -10.0620 H   0  0  0  0  0  0  0  0  0  0  0  0
  -38.1386   10.5855  -11.0204 H   0  0  0  0  0  0  0  0  0  0  0  0
  -38.5154    9.2329   -9.9782 H   0  0  0  0  0  0  0  0  0  0  0  0
  -35.1268   12.8382  -13.5755 H   0  0  0  0  0  0  0  0  0  0  0  0
  -34.3646   11.2827  -13.3362 H   0  0  0  0  0  0  0  0  0  0  0  0
  -34.6818   12.5382  -16.1206 H   0  0  0  0  0  0  0  0  0  0  0  0
  -33.2948   12.9082  -15.1220 H   0  0  0  0  0  0  0  0  0  0  0  0
  -32.8796   10.2825  -15.1174 H   0  0  0  0  0  0  0  0  0  0  0  0
  -33.9357   10.2922  -16.5112 H   0  0  0  0  0  0  0  0  0  0  0  0
  -30.0147   10.3061  -19.1369 H   0  0  0  0  0  0  0  0  0  0  0  0
  -31.7786    9.4996  -17.6336 H   0  0  0  0  0  0  0  0  0  0  0  0
  -32.2648   13.4363  -16.0822 H   0  0  0  0  0  0  0  0  0  0  0  0
  -30.5048   14.2497  -17.6030 H   0  0  0  0  0  0  0  0  0  0  0  0
  -26.3606   13.9153  -21.8409 H   0  0  0  0  0  0  0  0  0  0  0  0
  -25.8296   13.4854  -19.4773 H   0  0  0  0  0  0  0  0  0  0  0  0
  -27.5954   12.7505  -17.9368 H   0  0  0  0  0  0  0  0  0  0  0  0
  -30.4368   12.9015  -21.1082 H   0  0  0  0  0  0  0  0  0  0  0  0
  -28.6624   13.6252  -22.6568 H   0  0  0  0  0  0  0  0  0  0  0  0
  1  2  1  0  0  0  0
  1  6  2  0  0  0  0
  1 31  1  0  0  0  0
  2  3  1  0  0  0  0
  2 15  1  0  0  0  0
  2 32  1  0  0  0  0
  3  4  1  0  0  0  0
  3 11  1  0  0  0  0
  3 33  1  0  0  0  0
  4  5  1  0  0  0  0
  4 10  1  0  0  0  0
  4 34  1  0  0  0  0
  5  6  1  0  0  0  0
  5 35  1  0  0  0  0
  5 36  1  0  0  0  0
  6  7  1  0  0  0  0
  7  8  2  0  0  0  0
  7  9  1  0  0  0  0
 10 37  1  0  0  0  0
 10 38  1  0  0  0  0
 10 39  1  0  0  0  0
 11 12  1  0  0  0  0
 11 40  1  0  0  0  0
 12 13  1  0  0  0  0
 12 14  2  0  0  0  0
 13 41  1  0  0  0  0
 13 42  1  0  0  0  0
 13 43  1  0  0  0  0
 15 16  1  0  0  0  0
 16 17  1  0  0  0  0
 16 44  1  0  0  0  0
 16 45  1  0  0  0  0
 17 18  1  0  0  0  0
 17 46  1  0  0  0  0
 17 47  1  0  0  0  0
 18 19  1  0  0  0  0
 18 48  1  0  0  0  0
 18 49  1  0  0  0  0
 19 22  2  0  0  0  0
 19 23  1  0  0  0  0
 20 21  2  0  0  0  0
 20 24  1  0  0  0  0
 20 25  1  0  0  0  0
 21 22  1  0  0  0  0
 21 50  1  0  0  0  0
 22 51  1  0  0  0  0
 23 24  2  0  0  0  0
 23 52  1  0  0  0  0
 24 53  1  0  0  0  0
 25 28  2  0  0  0  0
 25 29  1  0  0  0  0
 26 27  2  0  0  0  0
 26 30  1  0  0  0  0
 26 54  1  0  0  0  0
 27 28  1  0  0  0  0
 27 55  1  0  0  0  0
 28 56  1  0  0  0  0
 29 30  2  0  0  0  0
 29 57  1  0  0  0  0
 30 58  1  0  0  0  0
M  END
> <Name>
BDB5007

> <Target>
Neuraminidase A

> <IC50_in_nM>
90

> <Kd_from_ITC>
false

> <source_organism>
Influenza A virus (A/Puerto Rico/8/34/Mount Sinai(H1N1))

> <SourceTag>
NA

> <atoms in reference ligand area>
17

> <score>
-29.4343

$$$$
BDB5195
      BALL 1.4.0 (Jan  4 2012, 23:22:29)

 45 45  0999  0  0  0  0  0  0999 V2000
  -32.5048    8.0069  -23.5799 C   0  0  0  0  0  0  0  0  0  0  0  0
  -31.2684    8.6644  -23.0245 C   0  0  0  0  0  0  0  0  0  0  0  0
  -33.1249    9.8396  -22.1225 N   0  3  0  0  0  0  0  0  0  0  0  0
  -33.4822    8.4236  -22.4655 C   0  0  0  0  0  0  0  0  0  0  0  0
  -34.9170    8.2671  -22.8803 C   0  0  0  0  0  0  0  0  0  0  0  0
  -35.1947    7.6758  -23.9296 O   0  0  0  0  0  0  0  0  0  0  0  0
  -35.9088    8.7699  -22.1003 O   0  5  0  0  0  0  0  0  0  0  0  0
  -31.8307   10.0645  -22.8209 C   0  0  0  0  0  0  0  0  0  0  0  0
  -31.8164   10.9287  -21.4820 C   0  0  0  0  0  0  0  0  0  0  0  0
  -32.5071   12.3843  -21.8804 C   0  0  0  0  0  0  0  0  0  0  0  0
  -33.3432   11.8769  -20.6666 C   0  0  0  0  0  0  0  0  0  0  0  0
  -34.8359   12.0735  -20.9802 C   0  0  0  0  0  0  0  0  0  0  0  0
  -33.0117   12.6558  -19.3750 C   0  0  0  0  0  0  0  0  0  0  0  0
  -30.3449   11.2600  -21.2769 N   0  0  0  0  0  0  0  0  0  0  0  0
  -29.1621   11.7958  -21.8248 C   0  0  0  0  0  0  0  0  0  0  0  0
  -28.5915   11.2561  -23.1114 C   0  0  0  0  0  0  0  0  0  0  0  0
  -28.5807   12.7116  -21.2383 O   0  0  0  0  0  0  0  0  0  0  0  0
  -30.1213    8.6561  -23.9915 C   0  0  0  0  0  0  0  0  0  0  0  0
  -29.8027    9.6959  -24.5814 O   0  0  0  0  0  0  0  0  0  0  0  0
  -28.3285    7.3750  -23.3021 C   0  0  0  0  0  0  0  0  0  0  0  0
  -29.4183    7.4769  -24.2219 O   0  0  0  0  0  0  0  0  0  0  0  0
  -32.3878    6.9134  -23.6060 H   0  0  0  0  0  0  0  0  0  0  0  0
  -32.7913    8.4613  -24.5398 H   0  0  0  0  0  0  0  0  0  0  0  0
  -30.8381    8.1812  -22.1349 H   0  0  0  0  0  0  0  0  0  0  0  0
  -33.8411   10.4844  -22.4862 H   0  0  0  0  0  0  0  0  0  0  0  0
  -33.0006    9.9388  -21.1049 H   0  0  0  0  0  0  0  0  0  0  0  0
  -33.3878    7.7728  -21.5836 H   0  0  0  0  0  0  0  0  0  0  0  0
  -31.9656   10.5968  -23.7740 H   0  0  0  0  0  0  0  0  0  0  0  0
  -32.3101   10.4153  -20.6437 H   0  0  0  0  0  0  0  0  0  0  0  0
  -32.0960   13.3742  -21.6335 H   0  0  0  0  0  0  0  0  0  0  0  0
  -33.1828   12.5248  -22.7368 H   0  0  0  0  0  0  0  0  0  0  0  0
  -33.1000   10.8164  -20.5047 H   0  0  0  0  0  0  0  0  0  0  0  0
  -35.3934   12.2535  -20.0491 H   0  0  0  0  0  0  0  0  0  0  0  0
  -35.2339   11.1792  -21.4819 H   0  0  0  0  0  0  0  0  0  0  0  0
  -34.9538   12.9422  -21.6446 H   0  0  0  0  0  0  0  0  0  0  0  0
  -33.9540   13.0057  -18.9279 H   0  0  0  0  0  0  0  0  0  0  0  0
  -32.3990   13.5292  -19.6426 H   0  0  0  0  0  0  0  0  0  0  0  0
  -32.4694   12.0142  -18.6650 H   0  0  0  0  0  0  0  0  0  0  0  0
  -30.6767   11.6067  -20.3655 H   0  0  0  0  0  0  0  0  0  0  0  0
  -29.4554   11.1807  -23.7881 H   0  0  0  0  0  0  0  0  0  0  0  0
  -28.2842   10.2281  -22.8691 H   0  0  0  0  0  0  0  0  0  0  0  0
  -27.7721   11.8576  -23.5319 H   0  0  0  0  0  0  0  0  0  0  0  0
  -27.5653    8.1256  -23.5558 H   0  0  0  0  0  0  0  0  0  0  0  0
  -27.8874    6.3695  -23.3686 H   0  0  0  0  0  0  0  0  0  0  0  0
  -28.6907    7.5506  -22.2785 H   0  0  0  0  0  0  0  0  0  0  0  0
  1  4  1  0  0  0  0
  1  2  1  0  0  0  0
  1 22  1  0  0  0  0
  1 23  1  0  0  0  0
  2  8  1  0  0  0  0
  2 18  1  0  0  0  0
  2 24  1  0  0  0  0
  3  4  1  0  0  0  0
  3  8  1  0  0  0  0
  3 25  1  0  0  0  0
  3 26  1  0  0  0  0
  4  5  1  0  0  0  0
  4 27  1  0  0  0  0
  5  6  2  0  0  0  0
  5  7  1  0  0  0  0
  8  9  1  0  0  0  0
  8 28  1  0  0  0  0
  9 10  1  0  0  0  0
  9 14  1  0  0  0  0
  9 29  1  0  0  0  0
 10 11  1  0  0  0  0
 10 30  1  0  0  0  0
 10 31  1  0  0  0  0
 11 12  1  0  0  0  0
 11 13  1  0  0  0  0
 11 32  1  0  0  0  0
 12 33  1  0  0  0  0
 12 34  1  0  0  0  0
 12 35  1  0  0  0  0
 13 36  1  0  0  0  0
 13 37  1  0  0  0  0
 13 38  1  0  0  0  0
 14 15  1  0  0  0  0
 14 39  1  0  0  0  0
 15 16  1  0  0  0  0
 15 17  2  0  0  0  0
 16 40  1  0  0  0  0
 16 41  1  0  0  0  0
 16 42  1  0  0  0  0
 18 19  2  0  0  0  0
 18 21  1  0  0  0  0
 20 21  1  0  0  0  0
 20 43  1  0  0  0  0
 20 44  1  0  0  0  0
 20 45  1  0  0  0  0
M  END
> <Name>
BDB5195

> <Target>
Neuraminidase A

> <Ki_in_nM>
260

> <Kd_from_ITC>
false

> <Uniprot_ID>
P06820

> <source_organism>
Influenza A virus (A/Tokyo/3/67(H2N2))

> <SourceTag>
NA

> <atoms in reference ligand area>
21

> <score>
-29.1143

$$$$
BDB5219
      BALL 1.4.0 (Jan  4 2012, 23:22:29)

 37 37  0999  0  0  0  0  0  0999 V2000
  -30.5364   12.1183  -20.4761 C   0  0  0  0  0  0  0  0  0  0  0  0
  -30.9726   12.5136  -19.0878 C   0  0  0  0  0  0  0  0  0  0  0  0
  -32.5188   12.2980  -18.8911 C   0  0  0  0  0  0  0  0  0  0  0  0
  -33.3681   12.8033  -20.0883 C   0  0  0  0  0  0  0  0  0  0  0  0
  -32.9432   11.9728  -21.3109 C   0  0  0  0  0  0  0  0  0  0  0  0
  -31.4142   11.8855  -21.4816 C   0  0  0  0  0  0  0  0  0  0  0  0
  -30.8689   11.4356  -22.7536 C   0  0  0  0  0  0  0  0  0  0  0  0
  -31.5849   11.3797  -23.7512 O   0  0  0  0  0  0  0  0  0  0  0  0
  -32.9215   10.8738  -18.7112 N   0  5  0  0  0  0  0  0  0  0  0  0
  -32.2748    9.8185  -17.9930 C   0  0  0  0  0  0  0  0  0  0  0  0
  -31.2293    9.9769  -17.3623 O   0  0  0  0  0  0  0  0  0  0  0  0
  -30.5376   13.8864  -18.7827 O   0  0  0  0  0  0  0  0  0  0  0  0
  -33.2596   14.2178  -20.4184 N   0  3  0  0  0  0  0  0  0  0  0  0
  -29.5453   11.1354  -22.8441 O   0  5  0  0  0  0  0  0  0  0  0  0
  -29.2714   14.0146  -18.1338 C   0  0  0  0  0  0  0  0  0  0  0  0
  -28.8383   15.4956  -18.2431 C   0  0  0  0  0  0  0  0  0  0  0  0
  -27.9164   15.8612  -17.0678 C   0  0  0  0  0  0  0  0  0  0  0  0
  -32.8781    8.4501  -18.0438 C   0  0  0  0  0  0  0  0  0  0  0  0
  -32.6978    7.8319  -16.8259 F   0  0  0  0  0  0  0  0  0  0  0  0
  -34.2279    8.5506  -18.3135 F   0  0  0  0  0  0  0  0  0  0  0  0
  -32.2599    7.7087  -19.0304 F   0  0  0  0  0  0  0  0  0  0  0  0
  -29.4899   12.0174  -20.6755 H   0  0  0  0  0  0  0  0  0  0  0  0
  -30.4658   11.8961  -18.3312 H   0  0  0  0  0  0  0  0  0  0  0  0
  -32.8124   12.8128  -17.9656 H   0  0  0  0  0  0  0  0  0  0  0  0
  -34.4229   12.6130  -19.8571 H   0  0  0  0  0  0  0  0  0  0  0  0
  -33.3752   12.4093  -22.2056 H   0  0  0  0  0  0  0  0  0  0  0  0
  -33.3482   10.9674  -21.2166 H   0  0  0  0  0  0  0  0  0  0  0  0
  -33.0430   14.3249  -21.3631 H   0  0  0  0  0  0  0  0  0  0  0  0
  -32.5458   14.6660  -19.8288 H   0  0  0  0  0  0  0  0  0  0  0  0
  -34.1701   14.6644  -20.2542 H   0  0  0  0  0  0  0  0  0  0  0  0
  -29.3650   13.7453  -17.1080 H   0  0  0  0  0  0  0  0  0  0  0  0
  -28.5557   13.3983  -18.6188 H   0  0  0  0  0  0  0  0  0  0  0  0
  -29.7058   16.1241  -18.2233 H   0  0  0  0  0  0  0  0  0  0  0  0
  -28.3139   15.6473  -19.1683 H   0  0  0  0  0  0  0  0  0  0  0  0
  -28.5113   16.0570  -16.1995 H   0  0  0  0  0  0  0  0  0  0  0  0
  -27.3562   16.7386  -17.3177 H   0  0  0  0  0  0  0  0  0  0  0  0
  -27.2468   15.0519  -16.8693 H   0  0  0  0  0  0  0  0  0  0  0  0
  1  2  1  0  0  0  0
  1  6  2  0  0  0  0
  1 22  1  0  0  0  0
  2  3  1  0  0  0  0
  2 12  1  0  0  0  0
  2 23  1  0  0  0  0
  3  4  1  0  0  0  0
  3  9  1  0  0  0  0
  3 24  1  0  0  0  0
  4  5  1  0  0  0  0
  4 13  1  0  0  0  0
  4 25  1  0  0  0  0
  5  6  1  0  0  0  0
  5 26  1  0  0  0  0
  5 27  1  0  0  0  0
  6  7  1  0  0  0  0
  7  8  2  0  0  0  0
  7 14  1  0  0  0  0
  9 10  1  0  0  0  0
 10 18  1  0  0  0  0
 10 11  2  0  0  0  0
 12 15  1  0  0  0  0
 13 28  1  0  0  0  0
 13 29  1  0  0  0  0
 13 30  1  0  0  0  0
 15 16  1  0  0  0  0
 15 31  1  0  0  0  0
 15 32  1  0  0  0  0
 16 17  1  0  0  0  0
 16 33  1  0  0  0  0
 16 34  1  0  0  0  0
 17 35  1  0  0  0  0
 17 36  1  0  0  0  0
 17 37  1  0  0  0  0
 18 21  1  0  0  0  0
 18 19  1  0  0  0  0
 18 20  1  0  0  0  0
M  END
> <Name>
BDB5219

> <Target>
Neuraminidase A

> <IC50_in_nM>
100

> <Kd_from_ITC>
false

> <source_organism>
Influenza A virus (A/Puerto Rico/8/34(H1N1))

> <SourceTag>
NA

> <atoms in reference ligand area>
22

> <score>
-28.4526

$$$$
BDB5222
      BALL 1.4.0 (Jan  4 2012, 23:22:29)

 41 41  0999  0  0  0  0  0  0999 V2000
  -31.3388   13.0304  -21.0940 C   0  0  0  0  0  0  0  0  0  0  0  0
  -29.8824   12.6714  -21.2616 C   0  0  0  0  0  0  0  0  0  0  0  0
  -29.5538   11.2584  -20.6579 C   0  0  0  0  0  0  0  0  0  0  0  0
  -30.1557   11.1607  -19.2183 C   0  0  0  0  0  0  0  0  0  0  0  0
  -31.6845   11.2622  -19.3126 C   0  0  0  0  0  0  0  0  0  0  0  0
  -32.1460   12.4320  -20.2014 C   0  0  0  0  0  0  0  0  0  0  0  0
  -33.5332   12.8668  -20.1253 C   0  0  0  0  0  0  0  0  0  0  0  0
  -33.8049   13.9790  -19.6599 O   0  0  0  0  0  0  0  0  0  0  0  0
  -29.9349   10.0134  -21.4715 N   0  0  0  0  0  0  0  0  0  0  0  0
  -29.1472   13.7288  -20.5675 O   0  0  0  0  0  0  0  0  0  0  0  0
  -34.5232   12.0534  -20.5687 O   0  5  0  0  0  0  0  0  0  0  0  0
  -27.9275   14.0732  -21.2606 C   0  0  0  0  0  0  0  0  0  0  0  0
  -26.6969   13.9913  -20.3160 C   0  0  0  0  0  0  0  0  0  0  0  0
  -25.7166   12.8944  -20.7603 C   0  0  0  0  0  0  0  0  0  0  0  0
  -30.6891    9.8260  -22.7220 C   0  0  0  0  0  0  0  0  0  0  0  0
  -31.1287   10.8788  -23.6908 C   0  0  0  0  0  0  0  0  0  0  0  0
  -30.9433    8.6576  -23.0359 O   0  0  0  0  0  0  0  0  0  0  0  0
  -29.6598   12.1969  -18.2570 N   0  0  0  0  0  0  0  0  0  0  0  0
  -28.3251   12.7196  -18.3870 C   0  0  0  0  0  0  0  0  0  0  0  0
  -27.4736   12.5596  -17.4644 N   0  3  0  0  0  0  0  0  0  0  0  0
  -31.7485   13.7986  -21.7160 H   0  0  0  0  0  0  0  0  0  0  0  0
  -29.5771   12.7138  -22.3163 H   0  0  0  0  0  0  0  0  0  0  0  0
  -28.4652   11.1741  -20.5826 H   0  0  0  0  0  0  0  0  0  0  0  0
  -29.8779   10.1827  -18.8006 H   0  0  0  0  0  0  0  0  0  0  0  0
  -32.0953   11.3885  -18.3188 H   0  0  0  0  0  0  0  0  0  0  0  0
  -32.0793   10.3337  -19.7135 H   0  0  0  0  0  0  0  0  0  0  0  0
  -29.6273    9.1622  -21.0634 H   0  0  0  0  0  0  0  0  0  0  0  0
  -28.0101   15.0739  -21.6508 H   0  0  0  0  0  0  0  0  0  0  0  0
  -27.7861   13.3962  -22.0902 H   0  0  0  0  0  0  0  0  0  0  0  0
  -27.0306   13.7836  -19.3119 H   0  0  0  0  0  0  0  0  0  0  0  0
  -26.1865   14.9443  -20.3110 H   0  0  0  0  0  0  0  0  0  0  0  0
  -25.9809   11.9804  -20.2617 H   0  0  0  0  0  0  0  0  0  0  0  0
  -24.7268   13.1799  -20.4559 H   0  0  0  0  0  0  0  0  0  0  0  0
  -25.7567   12.7669  -21.8074 H   0  0  0  0  0  0  0  0  0  0  0  0
  -30.1570   11.3949  -23.8747 H   0  0  0  0  0  0  0  0  0  0  0  0
  -31.6561   11.5759  -22.9977 H   0  0  0  0  0  0  0  0  0  0  0  0
  -31.6052   10.5998  -24.4477 H   0  0  0  0  0  0  0  0  0  0  0  0
  -30.0684   12.2139  -17.3129 H   0  0  0  0  0  0  0  0  0  0  0  0
  -28.0494   13.2499  -19.2744 H   0  0  0  0  0  0  0  0  0  0  0  0
  -27.7273   12.0826  -16.6349 H   0  0  0  0  0  0  0  0  0  0  0  0
  -26.5518   12.9152  -17.5737 H   0  0  0  0  0  0  0  0  0  0  0  0
  1  2  1  0  0  0  0
  1  6  2  0  0  0  0
  1 21  1  0  0  0  0
  2  3  1  0  0  0  0
  2 10  1  0  0  0  0
  2 22  1  0  0  0  0
  3  4  1  0  0  0  0
  3  9  1  0  0  0  0
  3 23  1  0  0  0  0
  4  5  1  0  0  0  0
  4 18  1  0  0  0  0
  4 24  1  0  0  0  0
  5  6  1  0  0  0  0
  5 25  1  0  0  0  0
  5 26  1  0  0  0  0
  6  7  1  0  0  0  0
  7  8  2  0  0  0  0
  7 11  1  0  0  0  0
  9 15  1  0  0  0  0
  9 27  1  0  0  0  0
 10 12  1  0  0  0  0
 12 13  1  0  0  0  0
 12 28  1  0  0  0  0
 12 29  1  0  0  0  0
 13 14  1  0  0  0  0
 13 30  1  0  0  0  0
 13 31  1  0  0  0  0
 14 32  1  0  0  0  0
 14 33  1  0  0  0  0
 14 34  1  0  0  0  0
 15 16  1  0  0  0  0
 15 17  2  0  0  0  0
 16 35  1  0  0  0  0
 16 36  1  0  0  0  0
 16 37  1  0  0  0  0
 18 19  1  0  0  0  0
 18 38  1  0  0  0  0
 19 20  2  0  0  0  0
 19 39  1  0  0  0  0
 20 40  1  0  0  0  0
 20 41  1  0  0  0  0
M  END
> <Name>
BDB5222

> <Target>
Neuraminidase A

> <IC50_in_nM>
140

> <Kd_from_ITC>
false

> <source_organism>
Influenza A virus (A/Puerto Rico/8/34(H1N1))

> <SourceTag>
NA

> <atoms in reference ligand area>
30

> <score>
-28.0917

$$$$
BDB5025
      BALL 1.4.0 (Jan  4 2012, 23:22:29)

 51 51  0999  0  0  0  0  0  0999 V2000
  -34.8734    9.1934  -19.5842 C   0  0  0  0  0  0  0  0  0  0  0  0
  -33.5844    8.8911  -21.7150 C   0  0  0  0  0  0  0  0  0  0  0  0
  -35.2194    7.1677  -20.9990 C   0  0  0  0  0  0  0  0  0  0  0  0
  -35.3783    7.9647  -19.7209 C   0  0  0  0  0  0  0  0  0  0  0  0
  -36.0700    7.3518  -18.5891 C   0  0  0  0  0  0  0  0  0  0  0  0
  -35.4763    6.5428  -17.8654 O   0  0  0  0  0  0  0  0  0  0  0  0
  -37.3969    7.6810  -18.3295 O   0  0  0  0  0  0  0  0  0  0  0  0
  -38.1222    7.7864  -19.5560 C   0  0  0  0  0  0  0  0  0  0  0  0
  -39.0893    8.9820  -19.4742 C   0  0  0  0  0  0  0  0  0  0  0  0
  -34.1392    9.8889  -20.6958 C   0  0  0  0  0  0  0  0  0  0  0  0
  -33.0682   10.7245  -20.1618 O   0  0  0  0  0  0  0  0  0  0  0  0
  -33.4245   12.1294  -20.0285 C   0  0  0  0  0  0  0  0  0  0  0  0
  -32.3006   12.9870  -20.6504 C   0  0  0  0  0  0  0  0  0  0  0  0
  -32.8407   13.7642  -21.8697 C   0  0  0  0  0  0  0  0  0  0  0  0
  -33.6005   12.5444  -18.5385 C   0  0  0  0  0  0  0  0  0  0  0  0
  -32.2182   12.7362  -17.8756 C   0  0  0  0  0  0  0  0  0  0  0  0
  -33.0354    9.6459  -22.8498 N   0  0  0  0  0  0  0  0  0  0  0  0
  -31.6759   10.0894  -23.0021 C   0  0  0  0  0  0  0  0  0  0  0  0
  -30.5911    9.8274  -21.9757 C   0  0  0  0  0  0  0  0  0  0  0  0
  -31.3761   10.7171  -24.0235 O   0  0  0  0  0  0  0  0  0  0  0  0
  -34.7530    8.0388  -22.1790 C   0  0  0  0  0  0  0  0  0  0  0  0
  -34.3363    7.1570  -23.2789 N   0  3  0  0  0  0  0  0  0  0  0  0
  -34.9992    9.7149  -18.6238 H   0  0  0  0  0  0  0  0  0  0  0  0
  -32.7927    8.2599  -21.2851 H   0  0  0  0  0  0  0  0  0  0  0  0
  -36.1827    6.7026  -21.2554 H   0  0  0  0  0  0  0  0  0  0  0  0
  -34.4851    6.3656  -20.8329 H   0  0  0  0  0  0  0  0  0  0  0  0
  -38.6951    6.8628  -19.7255 H   0  0  0  0  0  0  0  0  0  0  0  0
  -37.4182    7.9407  -20.3870 H   0  0  0  0  0  0  0  0  0  0  0  0
  -38.8679    9.5749  -18.5745 H   0  0  0  0  0  0  0  0  0  0  0  0
  -40.1255    8.6159  -19.4261 H   0  0  0  0  0  0  0  0  0  0  0  0
  -38.9669    9.6136  -20.3664 H   0  0  0  0  0  0  0  0  0  0  0  0
  -34.8615   10.5332  -21.2184 H   0  0  0  0  0  0  0  0  0  0  0  0
  -34.3827   12.2892  -20.5446 H   0  0  0  0  0  0  0  0  0  0  0  0
  -31.9271   13.6995  -19.9001 H   0  0  0  0  0  0  0  0  0  0  0  0
  -31.4758   12.3335  -20.9709 H   0  0  0  0  0  0  0  0  0  0  0  0
  -33.2067   13.0501  -22.6222 H   0  0  0  0  0  0  0  0  0  0  0  0
  -32.0296   14.3667  -22.3044 H   0  0  0  0  0  0  0  0  0  0  0  0
  -33.6632   14.4237  -21.5560 H   0  0  0  0  0  0  0  0  0  0  0  0
  -34.1641   13.4877  -18.4860 H   0  0  0  0  0  0  0  0  0  0  0  0
  -34.1561   11.7606  -18.0029 H   0  0  0  0  0  0  0  0  0  0  0  0
  -31.6587   11.7902  -17.9222 H   0  0  0  0  0  0  0  0  0  0  0  0
  -32.3571   13.0251  -16.8233 H   0  0  0  0  0  0  0  0  0  0  0  0
  -31.6584   13.5224  -18.4034 H   0  0  0  0  0  0  0  0  0  0  0  0
  -33.6884    9.8804  -23.6110 H   0  0  0  0  0  0  0  0  0  0  0  0
  -30.4653   10.8025  -21.4823 H   0  0  0  0  0  0  0  0  0  0  0  0
  -29.6906    9.6753  -22.5887 H   0  0  0  0  0  0  0  0  0  0  0  0
  -30.7893    9.0032  -21.2747 H   0  0  0  0  0  0  0  0  0  0  0  0
  -35.5644    8.6935  -22.5296 H   0  0  0  0  0  0  0  0  0  0  0  0
  -33.4816    7.5363  -23.7107 H   0  0  0  0  0  0  0  0  0  0  0  0
  -35.0856    7.1198  -23.9846 H   0  0  0  0  0  0  0  0  0  0  0  0
  -34.1520    6.2100  -22.9182 H   0  0  0  0  0  0  0  0  0  0  0  0
  1  4  2  0  0  0  0
  1 10  1  0  0  0  0
  1 23  1  0  0  0  0
  2 10  1  0  0  0  0
  2 21  1  0  0  0  0
  2 17  1  0  0  0  0
  2 24  1  0  0  0  0
  3  4  1  0  0  0  0
  3 21  1  0  0  0  0
  3 25  1  0  0  0  0
  3 26  1  0  0  0  0
  4  5  1  0  0  0  0
  5  6  2  0  0  0  0
  5  7  1  0  0  0  0
  7  8  1  0  0  0  0
  8  9  1  0  0  0  0
  8 27  1  0  0  0  0
  8 28  1  0  0  0  0
  9 29  1  0  0  0  0
  9 30  1  0  0  0  0
  9 31  1  0  0  0  0
 10 11  1  0  0  0  0
 10 32  1  0  0  0  0
 11 12  1  0  0  0  0
 12 13  1  0  0  0  0
 12 15  1  0  0  0  0
 12 33  1  0  0  0  0
 13 14  1  0  0  0  0
 13 34  1  0  0  0  0
 13 35  1  0  0  0  0
 14 36  1  0  0  0  0
 14 37  1  0  0  0  0
 14 38  1  0  0  0  0
 15 16  1  0  0  0  0
 15 39  1  0  0  0  0
 15 40  1  0  0  0  0
 16 41  1  0  0  0  0
 16 42  1  0  0  0  0
 16 43  1  0  0  0  0
 17 18  1  0  0  0  0
 17 44  1  0  0  0  0
 18 19  1  0  0  0  0
 18 20  2  0  0  0  0
 19 45  1  0  0  0  0
 19 46  1  0  0  0  0
 19 47  1  0  0  0  0
 21 22  1  0  0  0  0
 21 48  1  0  0  0  0
 22 49  1  0  0  0  0
 22 50  1  0  0  0  0
 22 51  1  0  0  0  0
M  END
> <Name>
BDB5025

> <Target>
Neuraminidase A

> <IC50_in_nM>
1

> <Kd_from_ITC>
false

> <source_organism>
Influenza A virus (A/Singapore/1/57(H2N2))

> <SourceTag>
NA

> <atoms in reference ligand area>
17

> <score>
-27.8728

$$$$
BDB5198
      BALL 1.4.0 (Jan  4 2012, 23:22:29)

 45 46  0999  0  0  0  0  0  0999 V2000
  -28.4846   12.5279  -21.0120 C   0  0  0  0  0  0  0  0  0  0  0  0
  -29.9553   12.4102  -21.3169 C   0  0  0  0  0  0  0  0  0  0  0  0
  -29.7729   12.7390  -18.9717 N   0  3  0  0  0  0  0  0  0  0  0  0
  -28.6055   13.3314  -19.7042 C   0  0  0  0  0  0  0  0  0  0  0  0
  -27.3368   13.3039  -18.9011 C   0  0  0  0  0  0  0  0  0  0  0  0
  -26.2584   13.5721  -19.4422 O   0  0  0  0  0  0  0  0  0  0  0  0
  -27.3752   12.9902  -17.5801 O   0  5  0  0  0  0  0  0  0  0  0  0
  -30.4183   11.8533  -19.9777 C   0  0  0  0  0  0  0  0  0  0  0  0
  -31.5645   12.4306  -19.0328 C   0  0  0  0  0  0  0  0  0  0  0  0
  -32.7179   11.2402  -18.9483 C   0  0  0  0  0  0  0  0  0  0  0  0
  -32.3637   11.5441  -17.4611 C   0  0  0  0  0  0  0  0  0  0  0  0
  -32.4309   10.2324  -16.6610 C   0  0  0  0  0  0  0  0  0  0  0  0
  -33.3511   12.5493  -16.8292 C   0  0  0  0  0  0  0  0  0  0  0  0
  -32.2163   13.5199  -19.8730 N   0  0  0  0  0  0  0  0  0  0  0  0
  -32.0502   14.7146  -20.6020 C   0  0  0  0  0  0  0  0  0  0  0  0
  -31.4470   15.9367  -19.9579 C   0  0  0  0  0  0  0  0  0  0  0  0
  -32.4128   14.7637  -21.7796 O   0  0  0  0  0  0  0  0  0  0  0  0
  -30.2388   11.4585  -22.4461 C   0  0  0  0  0  0  0  0  0  0  0  0
  -30.1575    9.8471  -24.2142 C   0  0  0  0  0  0  0  0  0  0  0  0
  -31.4269   10.3581  -23.9469 C   0  0  0  0  0  0  0  0  0  0  0  0
  -31.4419   11.2536  -22.9573 N   0  0  0  0  0  0  0  0  0  0  0  0
  -29.0473   10.5503  -23.1722 S   0  0  0  0  0  0  0  0  0  0  0  0
  -27.9712   13.1182  -21.7853 H   0  0  0  0  0  0  0  0  0  0  0  0
  -28.0446   11.5379  -20.8222 H   0  0  0  0  0  0  0  0  0  0  0  0
  -30.4426   13.3382  -21.6505 H   0  0  0  0  0  0  0  0  0  0  0  0
  -29.4436   12.1835  -18.1692 H   0  0  0  0  0  0  0  0  0  0  0  0
  -30.4255   13.4815  -18.6823 H   0  0  0  0  0  0  0  0  0  0  0  0
  -28.7713   14.4006  -19.9027 H   0  0  0  0  0  0  0  0  0  0  0  0
  -30.1261   10.8010  -19.8459 H   0  0  0  0  0  0  0  0  0  0  0  0
  -31.1812   12.7507  -18.0527 H   0  0  0  0  0  0  0  0  0  0  0  0
  -33.7988   11.3883  -19.0885 H   0  0  0  0  0  0  0  0  0  0  0  0
  -32.5138   10.1778  -19.1469 H   0  0  0  0  0  0  0  0  0  0  0  0
  -31.3557   11.9836  -17.4338 H   0  0  0  0  0  0  0  0  0  0  0  0
  -32.1695    9.3840  -17.3105 H   0  0  0  0  0  0  0  0  0  0  0  0
  -33.4448   10.0909  -16.2587 H   0  0  0  0  0  0  0  0  0  0  0  0
  -31.7156   10.2815  -15.8268 H   0  0  0  0  0  0  0  0  0  0  0  0
  -33.0612   12.7097  -15.7803 H   0  0  0  0  0  0  0  0  0  0  0  0
  -34.3595   12.1108  -16.8566 H   0  0  0  0  0  0  0  0  0  0  0  0
  -33.3362   13.5027  -17.3777 H   0  0  0  0  0  0  0  0  0  0  0  0
  -32.6877   12.7211  -20.3208 H   0  0  0  0  0  0  0  0  0  0  0  0
  -31.0430   16.5219  -20.7972 H   0  0  0  0  0  0  0  0  0  0  0  0
  -30.5858   15.5548  -19.3902 H   0  0  0  0  0  0  0  0  0  0  0  0
  -32.1465   16.5130  -19.3345 H   0  0  0  0  0  0  0  0  0  0  0  0
  -29.9214    9.1003  -24.9867 H   0  0  0  0  0  0  0  0  0  0  0  0
  -32.3286   10.0530  -24.4982 H   0  0  0  0  0  0  0  0  0  0  0  0
  1  4  1  0  0  0  0
  1  2  1  0  0  0  0
  1 23  1  0  0  0  0
  1 24  1  0  0  0  0
  2  8  1  0  0  0  0
  2 18  1  0  0  0  0
  2 25  1  0  0  0  0
  3  4  1  0  0  0  0
  3  8  1  0  0  0  0
  3 26  1  0  0  0  0
  3 27  1  0  0  0  0
  4  5  1  0  0  0  0
  4 28  1  0  0  0  0
  5  6  2  0  0  0  0
  5  7  1  0  0  0  0
  8  9  1  0  0  0  0
  8 29  1  0  0  0  0
  9 10  1  0  0  0  0
  9 14  1  0  0  0  0
  9 30  1  0  0  0  0
 10 11  1  0  0  0  0
 10 31  1  0  0  0  0
 10 32  1  0  0  0  0
 11 12  1  0  0  0  0
 11 13  1  0  0  0  0
 11 33  1  0  0  0  0
 12 34  1  0  0  0  0
 12 35  1  0  0  0  0
 12 36  1  0  0  0  0
 13 37  1  0  0  0  0
 13 38  1  0  0  0  0
 13 39  1  0  0  0  0
 14 15  1  0  0  0  0
 14 40  1  0  0  0  0
 15 16  1  0  0  0  0
 15 17  2  0  0  0  0
 16 41  1  0  0  0  0
 16 42  1  0  0  0  0
 16 43  1  0  0  0  0
 18 21  2  0  0  0  0
 18 22  1  0  0  0  0
 19 20  2  0  0  0  0
 19 22  1  0  0  0  0
 19 44  1  0  0  0  0
 20 21  1  0  0  0  0
 20 45  1  0  0  0  0
M  END
> <Name>
BDB5198

> <Target>
Neuraminidase A

> <Ki_in_nM>
310

> <Kd_from_ITC>
false

> <Uniprot_ID>
P06820

> <source_organism>
Influenza A virus (A/Tokyo/3/67(H2N2))

> <SourceTag>
NA

> <atoms in reference ligand area>
26

> <score>
-27.8392

$$$$
BDB4965
      BALL 1.4.0 (Jan  4 2012, 23:22:29)

 59 60  0999  0  0  0  0  0  0999 V2000
  -34.3001    9.8239  -14.0307 C   0  0  0  0  0  0  0  0  0  0  0  0
  -31.8872    8.5181  -14.2504 C   0  0  0  0  0  0  0  0  0  0  0  0
  -32.7668    8.1536  -13.0678 C   0  0  0  0  0  0  0  0  0  0  0  0
  -33.8607    9.1534  -12.9603 C   0  0  0  0  0  0  0  0  0  0  0  0
  -33.7727    9.6272  -15.3355 O   0  0  0  0  0  0  0  0  0  0  0  0
  -35.3466   10.8304  -13.8447 C   0  0  0  0  0  0  0  0  0  0  0  0
  -36.5368   10.5108  -13.9427 O   0  0  0  0  0  0  0  0  0  0  0  0
  -35.0095   12.1164  -13.5643 O   0  5  0  0  0  0  0  0  0  0  0  0
  -32.0044    8.7570  -16.7395 C   0  0  0  0  0  0  0  0  0  0  0  0
  -30.7780    8.6137  -16.6840 O   0  0  0  0  0  0  0  0  0  0  0  0
  -32.8098    8.5563  -15.4533 C   0  0  0  0  0  0  0  0  0  0  0  0
  -30.8806    7.4628  -14.4286 N   0  0  0  0  0  0  0  0  0  0  0  0
  -31.1287    6.1078  -14.8417 C   0  0  0  0  0  0  0  0  0  0  0  0
  -32.5103    5.5701  -15.1592 C   0  0  0  0  0  0  0  0  0  0  0  0
  -30.1647    5.3412  -14.9434 O   0  0  0  0  0  0  0  0  0  0  0  0
  -31.9754    8.1202  -11.8297 N   0  3  0  0  0  0  0  0  0  0  0  0
  -32.2679   10.4224  -18.5309 C   0  0  0  0  0  0  0  0  0  0  0  0
  -30.9731   10.9853  -17.9068 C   0  0  0  0  0  0  0  0  0  0  0  0
  -30.8005   12.4223  -18.3020 C   0  0  0  0  0  0  0  0  0  0  0  0
  -29.7411   14.5598  -17.9843 C   0  0  0  0  0  0  0  0  0  0  0  0
  -29.8951   13.2273  -17.6209 C   0  0  0  0  0  0  0  0  0  0  0  0
  -31.5515   12.9490  -19.3457 C   0  0  0  0  0  0  0  0  0  0  0  0
  -31.3974   14.2816  -19.7090 C   0  0  0  0  0  0  0  0  0  0  0  0
  -32.5795    9.1178  -17.9968 N   0  0  0  0  0  0  0  0  0  0  0  0
  -33.4636    8.2386  -18.7365 C   0  0  0  0  0  0  0  0  0  0  0  0
  -34.9426    8.5650  -18.4196 C   0  0  0  0  0  0  0  0  0  0  0  0
  -35.5890    9.2369  -19.6436 C   0  0  0  0  0  0  0  0  0  0  0  0
  -30.4921   15.0868  -19.0283 C   0  0  0  0  0  0  0  0  0  0  0  0
  -28.8299   15.3715  -17.2996 O   0  0  0  0  0  0  0  0  0  0  0  0
  -27.6239   14.6532  -17.0056 C   0  0  0  0  0  0  0  0  0  0  0  0
  -31.3699    9.4788  -14.1109 H   0  0  0  0  0  0  0  0  0  0  0  0
  -33.1960    7.1524  -13.2203 H   0  0  0  0  0  0  0  0  0  0  0  0
  -34.3189    9.3462  -11.9791 H   0  0  0  0  0  0  0  0  0  0  0  0
  -33.3417    7.5942  -15.4926 H   0  0  0  0  0  0  0  0  0  0  0  0
  -29.9010    7.7185  -14.2390 H   0  0  0  0  0  0  0  0  0  0  0  0
  -33.1302    5.9564  -14.3367 H   0  0  0  0  0  0  0  0  0  0  0  0
  -32.4097    4.4885  -14.9856 H   0  0  0  0  0  0  0  0  0  0  0  0
  -32.8998    5.8200  -16.1571 H   0  0  0  0  0  0  0  0  0  0  0  0
  -31.8388    9.0835  -11.4914 H   0  0  0  0  0  0  0  0  0  0  0  0
  -31.0574    7.6974  -12.0282 H   0  0  0  0  0  0  0  0  0  0  0  0
  -32.4661    7.5662  -11.1134 H   0  0  0  0  0  0  0  0  0  0  0  0
  -33.1003   11.1096  -18.3193 H   0  0  0  0  0  0  0  0  0  0  0  0
  -32.1412   10.3463  -19.6210 H   0  0  0  0  0  0  0  0  0  0  0  0
  -30.1107   10.4027  -18.2629 H   0  0  0  0  0  0  0  0  0  0  0  0
  -31.0336   10.9127  -16.8108 H   0  0  0  0  0  0  0  0  0  0  0  0
  -29.3008   12.8100  -16.7947 H   0  0  0  0  0  0  0  0  0  0  0  0
  -32.2679   12.3114  -19.8843 H   0  0  0  0  0  0  0  0  0  0  0  0
  -31.9917   14.6987  -20.5353 H   0  0  0  0  0  0  0  0  0  0  0  0
  -33.2545    7.1946  -18.4605 H   0  0  0  0  0  0  0  0  0  0  0  0
  -33.2857    8.3669  -19.8144 H   0  0  0  0  0  0  0  0  0  0  0  0
  -34.9926    9.2472  -17.5582 H   0  0  0  0  0  0  0  0  0  0  0  0
  -35.4815    7.6353  -18.1846 H   0  0  0  0  0  0  0  0  0  0  0  0
  -36.5778    9.6325  -19.3681 H   0  0  0  0  0  0  0  0  0  0  0  0
  -35.7014    8.5000  -20.4526 H   0  0  0  0  0  0  0  0  0  0  0  0
  -34.9492   10.0624  -19.9887 H   0  0  0  0  0  0  0  0  0  0  0  0
  -30.3700   16.1416  -19.3158 H   0  0  0  0  0  0  0  0  0  0  0  0
  -26.8117   15.0485  -17.6334 H   0  0  0  0  0  0  0  0  0  0  0  0
  -27.7763   13.5895  -17.2411 H   0  0  0  0  0  0  0  0  0  0  0  0
  -27.3643   14.7673  -15.9428 H   0  0  0  0  0  0  0  0  0  0  0  0
  1  5  1  0  0  0  0
  1  4  2  0  0  0  0
  1  6  1  0  0  0  0
  2 11  1  0  0  0  0
  2  3  1  0  0  0  0
  2 12  1  0  0  0  0
  2 31  1  0  0  0  0
  3  4  1  0  0  0  0
  3 16  1  0  0  0  0
  3 32  1  0  0  0  0
  4 33  1  0  0  0  0
  5 11  1  0  0  0  0
  6  7  2  0  0  0  0
  6  8  1  0  0  0  0
  9 11  1  0  0  0  0
  9 24  1  0  0  0  0
  9 10  2  0  0  0  0
 11 34  1  0  0  0  0
 12 13  1  0  0  0  0
 12 35  1  0  0  0  0
 13 14  1  0  0  0  0
 13 15  2  0  0  0  0
 14 36  1  0  0  0  0
 14 37  1  0  0  0  0
 14 38  1  0  0  0  0
 16 39  1  0  0  0  0
 16 40  1  0  0  0  0
 16 41  1  0  0  0  0
 17 24  1  0  0  0  0
 17 18  1  0  0  0  0
 17 42  1  0  0  0  0
 17 43  1  0  0  0  0
 18 19  1  0  0  0  0
 18 44  1  0  0  0  0
 18 45  1  0  0  0  0
 19 21  2  0  0  0  0
 19 22  1  0  0  0  0
 20 28  2  0  0  0  0
 20 21  1  0  0  0  0
 20 29  1  0  0  0  0
 21 46  1  0  0  0  0
 22 23  2  0  0  0  0
 22 47  1  0  0  0  0
 23 28  1  0  0  0  0
 23 48  1  0  0  0  0
 24 25  1  0  0  0  0
 25 26  1  0  0  0  0
 25 49  1  0  0  0  0
 25 50  1  0  0  0  0
 26 27  1  0  0  0  0
 26 51  1  0  0  0  0
 26 52  1  0  0  0  0
 27 53  1  0  0  0  0
 27 54  1  0  0  0  0
 27 55  1  0  0  0  0
 28 56  1  0  0  0  0
 29 30  1  0  0  0  0
 30 57  1  0  0  0  0
 30 58  1  0  0  0  0
 30 59  1  0  0  0  0
M  END
> <Name>
BDB4965

> <Target>
Neuraminidase A

> <IC50_in_nM>
5

> <Kd_from_ITC>
false

> <source_organism>
Influenza A virus (A/Singapore/1/57(H2N2))

> <SourceTag>
NA

> <atoms in reference ligand area>
12

> <score>
-27.7804

$$$$
BDB5015
      BALL 1.4.0 (Jan  4 2012, 23:22:29)

 44 44  0999  0  0  0  0  0  0999 V2000
  -31.2559    9.4982  -21.3122 C   0  0  0  0  0  0  0  0  0  0  0  0
  -30.2682   10.6043  -21.8499 C   0  0  0  0  0  0  0  0  0  0  0  0
  -30.9702   11.7439  -22.6518 C   0  0  0  0  0  0  0  0  0  0  0  0
  -32.0019   12.4025  -21.7426 C   0  0  0  0  0  0  0  0  0  0  0  0
  -32.8978   11.3799  -20.9855 C   0  0  0  0  0  0  0  0  0  0  0  0
  -34.1560   11.8816  -20.4022 C   0  0  0  0  0  0  0  0  0  0  0  0
  -34.5751   12.9960  -20.7396 O   0  0  0  0  0  0  0  0  0  0  0  0
  -34.8343   11.1733  -19.4609 O   0  5  0  0  0  0  0  0  0  0  0  0
  -29.3767   11.2646  -20.7977 N   0  0  0  0  0  0  0  0  0  0  0  0
  -29.0704   12.6683  -20.4953 C   0  0  0  0  0  0  0  0  0  0  0  0
  -29.8026   13.8837  -20.9813 C   0  0  0  0  0  0  0  0  0  0  0  0
  -28.1462   12.8660  -19.6981 O   0  0  0  0  0  0  0  0  0  0  0  0
  -31.6498   11.3542  -23.8533 N   0  3  0  0  0  0  0  0  0  0  0  0
  -31.5800    8.3694  -22.2524 O   0  0  0  0  0  0  0  0  0  0  0  0
  -32.0727    8.6466  -23.5748 C   0  0  0  0  0  0  0  0  0  0  0  0
  -33.3258    7.7902  -23.8602 C   0  0  0  0  0  0  0  0  0  0  0  0
  -34.0347    8.3108  -25.1315 C   0  0  0  0  0  0  0  0  0  0  0  0
  -30.9768    8.3220  -24.6288 C   0  0  0  0  0  0  0  0  0  0  0  0
  -29.6755    9.0753  -24.3130 C   0  0  0  0  0  0  0  0  0  0  0  0
  -32.5405   10.0848  -20.7765 C   0  0  0  0  0  0  0  0  0  0  0  0
  -33.3465    9.2772  -20.0758 F   0  0  0  0  0  0  0  0  0  0  0  0
  -30.7128    8.9705  -20.5159 H   0  0  0  0  0  0  0  0  0  0  0  0
  -29.5398   10.0937  -22.4935 H   0  0  0  0  0  0  0  0  0  0  0  0
  -30.2027   12.4687  -22.9526 H   0  0  0  0  0  0  0  0  0  0  0  0
  -32.6340   13.0559  -22.3367 H   0  0  0  0  0  0  0  0  0  0  0  0
  -31.4872   13.0302  -21.0167 H   0  0  0  0  0  0  0  0  0  0  0  0
  -28.8840   10.6173  -20.2294 H   0  0  0  0  0  0  0  0  0  0  0  0
  -29.2777   14.0599  -21.9485 H   0  0  0  0  0  0  0  0  0  0  0  0
  -29.3674   14.6606  -20.3113 H   0  0  0  0  0  0  0  0  0  0  0  0
  -30.7403   13.8378  -21.0159 H   0  0  0  0  0  0  0  0  0  0  0  0
  -32.5734   11.6902  -23.8354 H   0  0  0  0  0  0  0  0  0  0  0  0
  -31.6227   10.3305  -23.9476 H   0  0  0  0  0  0  0  0  0  0  0  0
  -31.1739   11.7826  -24.6542 H   0  0  0  0  0  0  0  0  0  0  0  0
  -32.3287    9.6836  -23.6365 H   0  0  0  0  0  0  0  0  0  0  0  0
  -33.9971    7.8506  -23.0287 H   0  0  0  0  0  0  0  0  0  0  0  0
  -33.0341    6.7679  -24.0077 H   0  0  0  0  0  0  0  0  0  0  0  0
  -34.1725    9.3690  -25.0538 H   0  0  0  0  0  0  0  0  0  0  0  0
  -34.9885    7.8349  -25.2270 H   0  0  0  0  0  0  0  0  0  0  0  0
  -33.4370    8.0901  -25.9925 H   0  0  0  0  0  0  0  0  0  0  0  0
  -31.3245    8.6075  -25.6053 H   0  0  0  0  0  0  0  0  0  0  0  0
  -30.7838    7.2616  -24.6285 H   0  0  0  0  0  0  0  0  0  0  0  0
  -29.9202   10.0010  -23.8298 H   0  0  0  0  0  0  0  0  0  0  0  0
  -29.1654    9.2856  -25.2327 H   0  0  0  0  0  0  0  0  0  0  0  0
  -29.0579    8.4870  -23.6807 H   0  0  0  0  0  0  0  0  0  0  0  0
  1 20  1  0  0  0  0
  1  2  1  0  0  0  0
  1 14  1  0  0  0  0
  1 22  1  0  0  0  0
  2  3  1  0  0  0  0
  2  9  1  0  0  0  0
  2 23  1  0  0  0  0
  3  4  1  0  0  0  0
  3 13  1  0  0  0  0
  3 24  1  0  0  0  0
  4  5  1  0  0  0  0
  4 25  1  0  0  0  0
  4 26  1  0  0  0  0
  5 20  2  0  0  0  0
  5  6  1  0  0  0  0
  6  7  2  0  0  0  0
  6  8  1  0  0  0  0
  9 10  1  0  0  0  0
  9 27  1  0  0  0  0
 10 11  1  0  0  0  0
 10 12  2  0  0  0  0
 11 28  1  0  0  0  0
 11 29  1  0  0  0  0
 11 30  1  0  0  0  0
 13 31  1  0  0  0  0
 13 32  1  0  0  0  0
 13 33  1  0  0  0  0
 14 15  1  0  0  0  0
 15 16  1  0  0  0  0
 15 18  1  0  0  0  0
 15 34  1  0  0  0  0
 16 17  1  0  0  0  0
 16 35  1  0  0  0  0
 16 36  1  0  0  0  0
 17 37  1  0  0  0  0
 17 38  1  0  0  0  0
 17 39  1  0  0  0  0
 18 19  1  0  0  0  0
 18 40  1  0  0  0  0
 18 41  1  0  0  0  0
 19 42  1  0  0  0  0
 19 43  1  0  0  0  0
 19 44  1  0  0  0  0
 20 21  1  0  0  0  0
M  END
> <Name>
BDB5015

> <Target>
Neuraminidase A

> <IC50_in_nM>
3

> <Kd_from_ITC>
false

> <source_organism>
Influenza A virus (A/Puerto Rico/8/34/Mount Sinai(H1N1))

> <SourceTag>
NA

> <atoms in reference ligand area>
21

> <score>
-27.5668

$$$$
BDB4983
      BALL 1.4.0 (Jan  4 2012, 23:22:29)

 38 38  0999  0  0  0  0  0  0999 V2000
  -31.0707   12.8301  -18.6596 C   0  0  0  0  0  0  0  0  0  0  0  0
  -32.5336   12.5789  -18.9399 C   0  0  0  0  0  0  0  0  0  0  0  0
  -32.9939   13.1977  -20.3081 C   0  0  0  0  0  0  0  0  0  0  0  0
  -32.4044   14.6290  -20.5366 C   0  0  0  0  0  0  0  0  0  0  0  0
  -30.8759   14.5001  -20.5750 C   0  0  0  0  0  0  0  0  0  0  0  0
  -30.3218   13.7052  -19.3769 C   0  0  0  0  0  0  0  0  0  0  0  0
  -28.9056   13.7985  -19.0395 C   0  0  0  0  0  0  0  0  0  0  0  0
  -28.2539   14.7877  -19.3617 O   0  0  0  0  0  0  0  0  0  0  0  0
  -28.3257   12.8044  -18.3133 O   0  5  0  0  0  0  0  0  0  0  0  0
  -32.7455   15.6334  -19.5344 N   0  3  0  0  0  0  0  0  0  0  0  0
  -32.7268   12.4063  -21.5758 N   0  0  0  0  0  0  0  0  0  0  0  0
  -31.5288   11.7407  -22.0856 C   0  0  0  0  0  0  0  0  0  0  0  0
  -30.2209   11.5595  -21.3775 C   0  0  0  0  0  0  0  0  0  0  0  0
  -31.6189   11.2446  -23.2143 O   0  0  0  0  0  0  0  0  0  0  0  0
  -33.3565   13.1040  -17.8450 O   0  0  0  0  0  0  0  0  0  0  0  0
  -33.8372   12.1461  -16.8987 C   0  0  0  0  0  0  0  0  0  0  0  0
  -33.9225   12.8817  -15.5373 C   0  0  0  0  0  0  0  0  0  0  0  0
  -35.2452   12.5476  -14.8306 C   0  0  0  0  0  0  0  0  0  0  0  0
  -30.6041   12.2940  -17.8596 H   0  0  0  0  0  0  0  0  0  0  0  0
  -32.7564   11.5009  -18.9631 H   0  0  0  0  0  0  0  0  0  0  0  0
  -34.0898   13.2554  -20.2724 H   0  0  0  0  0  0  0  0  0  0  0  0
  -32.7797   15.0016  -21.4968 H   0  0  0  0  0  0  0  0  0  0  0  0
  -30.4348   15.4884  -20.5793 H   0  0  0  0  0  0  0  0  0  0  0  0
  -30.5827   14.0064  -21.4957 H   0  0  0  0  0  0  0  0  0  0  0  0
  -32.4245   16.5141  -19.8171 H   0  0  0  0  0  0  0  0  0  0  0  0
  -32.3421   15.3759  -18.6242 H   0  0  0  0  0  0  0  0  0  0  0  0
  -33.7696   15.6831  -19.4537 H   0  0  0  0  0  0  0  0  0  0  0  0
  -33.5159   12.3301  -22.1731 H   0  0  0  0  0  0  0  0  0  0  0  0
  -29.9650   12.6204  -21.1539 H   0  0  0  0  0  0  0  0  0  0  0  0
  -29.5587   11.3139  -22.2389 H   0  0  0  0  0  0  0  0  0  0  0  0
  -30.2025   10.9624  -20.6515 H   0  0  0  0  0  0  0  0  0  0  0  0
  -34.8016   11.8119  -17.1839 H   0  0  0  0  0  0  0  0  0  0  0  0
  -33.1563   11.3410  -16.8248 H   0  0  0  0  0  0  0  0  0  0  0  0
  -33.8639   13.9410  -15.6993 H   0  0  0  0  0  0  0  0  0  0  0  0
  -33.0991   12.5781  -14.9148 H   0  0  0  0  0  0  0  0  0  0  0  0
  -36.0263   13.1516  -15.2467 H   0  0  0  0  0  0  0  0  0  0  0  0
  -35.1491   12.7677  -13.7863 H   0  0  0  0  0  0  0  0  0  0  0  0
  -35.4765   11.5160  -14.9629 H   0  0  0  0  0  0  0  0  0  0  0  0
  1  2  1  0  0  0  0
  1  6  2  0  0  0  0
  1 19  1  0  0  0  0
  2  3  1  0  0  0  0
  2 15  1  0  0  0  0
  2 20  1  0  0  0  0
  3  4  1  0  0  0  0
  3 11  1  0  0  0  0
  3 21  1  0  0  0  0
  4  5  1  0  0  0  0
  4 10  1  0  0  0  0
  4 22  1  0  0  0  0
  5  6  1  0  0  0  0
  5 23  1  0  0  0  0
  5 24  1  0  0  0  0
  6  7  1  0  0  0  0
  7  8  2  0  0  0  0
  7  9  1  0  0  0  0
 10 25  1  0  0  0  0
 10 26  1  0  0  0  0
 10 27  1  0  0  0  0
 11 12  1  0  0  0  0
 11 28  1  0  0  0  0
 12 13  1  0  0  0  0
 12 14  2  0  0  0  0
 13 29  1  0  0  0  0
 13 30  1  0  0  0  0
 13 31  1  0  0  0  0
 15 16  1  0  0  0  0
 16 17  1  0  0  0  0
 16 32  1  0  0  0  0
 16 33  1  0  0  0  0
 17 18  1  0  0  0  0
 17 34  1  0  0  0  0
 17 35  1  0  0  0  0
 18 36  1  0  0  0  0
 18 37  1  0  0  0  0
 18 38  1  0  0  0  0
M  END
> <Name>
BDB4983

> <Target>
Neuraminidase A

> <IC50_in_nM>
180

> <Kd_from_ITC>
false

> <source_organism>
Influenza A virus (A/Puerto Rico/8/34/Mount Sinai(H1N1))

> <SourceTag>
NA

> <atoms in reference ligand area>
21

> <score>
-27.353

$$$$
BDB5013
      BALL 1.4.0 (Jan  4 2012, 23:22:29)

 49 49  0999  0  0  0  0  0  0999 V2000
  -31.3225   10.1863  -19.9537 C   0  0  0  0  0  0  0  0  0  0  0  0
  -30.3108   10.6009  -18.8864 C   0  0  0  0  0  0  0  0  0  0  0  0
  -31.0128   10.7319  -17.5244 C   0  0  0  0  0  0  0  0  0  0  0  0
  -32.4561   11.4379  -17.6287 C   0  0  0  0  0  0  0  0  0  0  0  0
  -33.3330   10.5882  -18.4840 C   0  0  0  0  0  0  0  0  0  0  0  0
  -32.6664   10.2139  -19.7850 C   0  0  0  0  0  0  0  0  0  0  0  0
  -33.5366    9.8114  -20.8776 C   0  0  0  0  0  0  0  0  0  0  0  0
  -33.0772    9.6420  -22.0105 O   0  0  0  0  0  0  0  0  0  0  0  0
  -34.8646    9.6321  -20.6432 O   0  5  0  0  0  0  0  0  0  0  0  0
  -31.1015    9.3793  -16.7757 N   0  0  0  0  0  0  0  0  0  0  0  0
  -31.9019    8.1402  -16.9817 C   0  0  0  0  0  0  0  0  0  0  0  0
  -32.9295    7.8529  -18.0369 C   0  0  0  0  0  0  0  0  0  0  0  0
  -31.6792    7.2154  -16.1928 O   0  0  0  0  0  0  0  0  0  0  0  0
  -32.6869   12.9187  -18.0528 N   0  0  0  0  0  0  0  0  0  0  0  0
  -33.5680   13.5535  -19.1102 C   0  0  0  0  0  0  0  0  0  0  0  0
  -33.3209   14.7722  -19.4034 N   0  3  0  0  0  0  0  0  0  0  0  0
  -34.6567   12.9703  -19.8478 N   0  0  0  0  0  0  0  0  0  0  0  0
  -29.4883   11.7924  -19.3291 O   0  0  0  0  0  0  0  0  0  0  0  0
  -29.7395   13.1350  -18.8269 C   0  0  0  0  0  0  0  0  0  0  0  0
  -29.7480   14.0901  -20.0842 C   0  0  0  0  0  0  0  0  0  0  0  0
  -30.0933   15.5728  -19.7715 C   0  0  0  0  0  0  0  0  0  0  0  0
  -28.5909   13.5366  -17.8078 C   0  0  0  0  0  0  0  0  0  0  0  0
  -28.2728   15.0545  -17.7520 C   0  0  0  0  0  0  0  0  0  0  0  0
  -30.9443    9.8519  -20.8972 H   0  0  0  0  0  0  0  0  0  0  0  0
  -29.5493    9.8154  -18.7920 H   0  0  0  0  0  0  0  0  0  0  0  0
  -30.3607   11.3034  -16.8649 H   0  0  0  0  0  0  0  0  0  0  0  0
  -32.8668   11.4110  -16.6090 H   0  0  0  0  0  0  0  0  0  0  0  0
  -34.2488   11.1210  -18.6952 H   0  0  0  0  0  0  0  0  0  0  0  0
  -33.5910    9.6856  -17.9438 H   0  0  0  0  0  0  0  0  0  0  0  0
  -30.4514    9.3007  -16.0307 H   0  0  0  0  0  0  0  0  0  0  0  0
  -32.7375    8.7159  -18.7235 H   0  0  0  0  0  0  0  0  0  0  0  0
  -33.8518    8.1770  -17.4917 H   0  0  0  0  0  0  0  0  0  0  0  0
  -32.9411    7.0062  -18.4178 H   0  0  0  0  0  0  0  0  0  0  0  0
  -32.1563   13.5946  -17.4920 H   0  0  0  0  0  0  0  0  0  0  0  0
  -32.5936   15.2504  -18.9403 H   0  0  0  0  0  0  0  0  0  0  0  0
  -33.8750   15.2281  -20.0903 H   0  0  0  0  0  0  0  0  0  0  0  0
  -34.7300   12.0212  -19.9883 H   0  0  0  0  0  0  0  0  0  0  0  0
  -35.3240   13.5862  -20.3245 H   0  0  0  0  0  0  0  0  0  0  0  0
  -30.6711   13.2027  -18.3049 H   0  0  0  0  0  0  0  0  0  0  0  0
  -28.7662   14.0496  -20.5685 H   0  0  0  0  0  0  0  0  0  0  0  0
  -30.4632   13.7080  -20.8166 H   0  0  0  0  0  0  0  0  0  0  0  0
  -29.1624   16.0618  -19.5162 H   0  0  0  0  0  0  0  0  0  0  0  0
  -30.7138   15.5675  -18.8851 H   0  0  0  0  0  0  0  0  0  0  0  0
  -30.5618   16.0314  -20.5643 H   0  0  0  0  0  0  0  0  0  0  0  0
  -28.8703   13.1963  -16.8043 H   0  0  0  0  0  0  0  0  0  0  0  0
  -27.6784   12.9941  -18.0679 H   0  0  0  0  0  0  0  0  0  0  0  0
  -27.1961   15.1483  -17.8069 H   0  0  0  0  0  0  0  0  0  0  0  0
  -28.5812   15.4006  -16.7740 H   0  0  0  0  0  0  0  0  0  0  0  0
  -28.7417   15.5717  -18.5069 H   0  0  0  0  0  0  0  0  0  0  0  0
  1  2  1  0  0  0  0
  1  6  2  0  0  0  0
  1 24  1  0  0  0  0
  2  3  1  0  0  0  0
  2 18  1  0  0  0  0
  2 25  1  0  0  0  0
  3  4  1  0  0  0  0
  3 10  1  0  0  0  0
  3 26  1  0  0  0  0
  4  5  1  0  0  0  0
  4 14  1  0  0  0  0
  4 27  1  0  0  0  0
  5  6  1  0  0  0  0
  5 28  1  0  0  0  0
  5 29  1  0  0  0  0
  6  7  1  0  0  0  0
  7  8  2  0  0  0  0
  7  9  1  0  0  0  0
 10 11  1  0  0  0  0
 10 30  1  0  0  0  0
 11 12  1  0  0  0  0
 11 13  2  0  0  0  0
 12 31  1  0  0  0  0
 12 32  1  0  0  0  0
 12 33  1  0  0  0  0
 14 15  1  0  0  0  0
 14 34  1  0  0  0  0
 15 17  1  0  0  0  0
 15 16  2  0  0  0  0
 16 35  1  0  0  0  0
 16 36  1  0  0  0  0
 17 37  1  0  0  0  0
 17 38  1  0  0  0  0
 18 19  1  0  0  0  0
 19 20  1  0  0  0  0
 19 22  1  0  0  0  0
 19 39  1  0  0  0  0
 20 21  1  0  0  0  0
 20 40  1  0  0  0  0
 20 41  1  0  0  0  0
 21 42  1  0  0  0  0
 21 43  1  0  0  0  0
 21 44  1  0  0  0  0
 22 23  1  0  0  0  0
 22 45  1  0  0  0  0
 22 46  1  0  0  0  0
 23 47  1  0  0  0  0
 23 48  1  0  0  0  0
 23 49  1  0  0  0  0
M  END
> <Name>
BDB5013

> <Target>
Neuraminidase A

> <IC50_in_nM>
0.5

> <Kd_from_ITC>
false

> <source_organism>
Influenza A virus (A/Puerto Rico/8/34/Mount Sinai(H1N1))

> <SourceTag>
NA

> <atoms in reference ligand area>
17

> <score>
-27.2704

$$$$
BDB5199
      BALL 1.4.0 (Jan  4 2012, 23:22:29)

 46 47  0999  0  0  0  0  0  0999 V2000
  -29.6078   12.7687  -21.9923 C   0  0  0  0  0  0  0  0  0  0  0  0
  -30.8785   11.9822  -21.8019 C   0  0  0  0  0  0  0  0  0  0  0  0
  -30.3273   12.9036  -19.6834 N   0  3  0  0  0  0  0  0  0  0  0  0
  -29.7797   13.7347  -20.8057 C   0  0  0  0  0  0  0  0  0  0  0  0
  -28.4968   14.4282  -20.4471 C   0  0  0  0  0  0  0  0  0  0  0  0
  -28.2024   14.6052  -19.2598 O   0  0  0  0  0  0  0  0  0  0  0  0
  -27.6583   14.8553  -21.4265 O   0  5  0  0  0  0  0  0  0  0  0  0
  -30.7000   11.6188  -20.3342 C   0  0  0  0  0  0  0  0  0  0  0  0
  -31.7258   11.8742  -19.1416 C   0  0  0  0  0  0  0  0  0  0  0  0
  -32.1341   10.3700  -18.5716 C   0  0  0  0  0  0  0  0  0  0  0  0
  -32.1306   11.2776  -17.3044 C   0  0  0  0  0  0  0  0  0  0  0  0
  -31.3865   10.5447  -16.1756 C   0  0  0  0  0  0  0  0  0  0  0  0
  -33.5625   11.5911  -16.8184 C   0  0  0  0  0  0  0  0  0  0  0  0
  -32.9867   12.3605  -19.8422 N   0  0  0  0  0  0  0  0  0  0  0  0
  -34.2871   12.0546  -20.2913 C   0  0  0  0  0  0  0  0  0  0  0  0
  -34.5314   10.8951  -21.2231 C   0  0  0  0  0  0  0  0  0  0  0  0
  -35.2364   12.7514  -19.9251 O   0  0  0  0  0  0  0  0  0  0  0  0
  -30.9407   10.7608  -22.6765 C   0  0  0  0  0  0  0  0  0  0  0  0
  -30.7170    8.7602  -23.3357 C   0  0  0  0  0  0  0  0  0  0  0  0
  -31.3213    9.5074  -24.3410 C   0  0  0  0  0  0  0  0  0  0  0  0
  -30.4944    9.5754  -22.3126 N   0  0  0  0  0  0  0  0  0  0  0  0
  -31.4445   10.7506  -23.8938 N   0  0  0  0  0  0  0  0  0  0  0  0
  -29.6265   13.3167  -22.9460 H   0  0  0  0  0  0  0  0  0  0  0  0
  -28.7260   12.1272  -21.8483 H   0  0  0  0  0  0  0  0  0  0  0  0
  -31.8053   12.5155  -22.0601 H   0  0  0  0  0  0  0  0  0  0  0  0
  -29.5994   12.7432  -18.9725 H   0  0  0  0  0  0  0  0  0  0  0  0
  -31.1627   13.3533  -19.2823 H   0  0  0  0  0  0  0  0  0  0  0  0
  -30.4666   14.5576  -21.0531 H   0  0  0  0  0  0  0  0  0  0  0  0
  -29.9288   10.8475  -20.1917 H   0  0  0  0  0  0  0  0  0  0  0  0
  -31.3188   12.5473  -18.3726 H   0  0  0  0  0  0  0  0  0  0  0  0
  -33.1245    9.9002  -18.6636 H   0  0  0  0  0  0  0  0  0  0  0  0
  -31.4088    9.5567  -18.4219 H   0  0  0  0  0  0  0  0  0  0  0  0
  -31.6372   12.2255  -17.5655 H   0  0  0  0  0  0  0  0  0  0  0  0
  -32.0507    9.8013  -15.7105 H   0  0  0  0  0  0  0  0  0  0  0  0
  -31.0524   11.2674  -15.4167 H   0  0  0  0  0  0  0  0  0  0  0  0
  -30.5091   10.0313  -16.5956 H   0  0  0  0  0  0  0  0  0  0  0  0
  -34.2166   10.7519  -17.0978 H   0  0  0  0  0  0  0  0  0  0  0  0
  -33.9123   12.5003  -17.3292 H   0  0  0  0  0  0  0  0  0  0  0  0
  -33.5774   11.7379  -15.7284 H   0  0  0  0  0  0  0  0  0  0  0  0
  -32.8423   13.1952  -19.2563 H   0  0  0  0  0  0  0  0  0  0  0  0
  -33.5281   10.5050  -21.4495 H   0  0  0  0  0  0  0  0  0  0  0  0
  -34.9113   11.3564  -22.1465 H   0  0  0  0  0  0  0  0  0  0  0  0
  -35.2073   10.1255  -20.8221 H   0  0  0  0  0  0  0  0  0  0  0  0
  -30.4692    7.6894  -23.3803 H   0  0  0  0  0  0  0  0  0  0  0  0
  -31.6388    9.1359  -25.3264 H   0  0  0  0  0  0  0  0  0  0  0  0
  -31.8534   11.5498  -24.3986 H   0  0  0  0  0  0  0  0  0  0  0  0
  1  4  1  0  0  0  0
  1  2  1  0  0  0  0
  1 23  1  0  0  0  0
  1 24  1  0  0  0  0
  2  8  1  0  0  0  0
  2 18  1  0  0  0  0
  2 25  1  0  0  0  0
  3  4  1  0  0  0  0
  3  8  1  0  0  0  0
  3 26  1  0  0  0  0
  3 27  1  0  0  0  0
  4  5  1  0  0  0  0
  4 28  1  0  0  0  0
  5  6  2  0  0  0  0
  5  7  1  0  0  0  0
  8  9  1  0  0  0  0
  8 29  1  0  0  0  0
  9 10  1  0  0  0  0
  9 14  1  0  0  0  0
  9 30  1  0  0  0  0
 10 11  1  0  0  0  0
 10 31  1  0  0  0  0
 10 32  1  0  0  0  0
 11 12  1  0  0  0  0
 11 13  1  0  0  0  0
 11 33  1  0  0  0  0
 12 34  1  0  0  0  0
 12 35  1  0  0  0  0
 12 36  1  0  0  0  0
 13 37  1  0  0  0  0
 13 38  1  0  0  0  0
 13 39  1  0  0  0  0
 14 15  1  0  0  0  0
 14 40  1  0  0  0  0
 15 16  1  0  0  0  0
 15 17  2  0  0  0  0
 16 41  1  0  0  0  0
 16 42  1  0  0  0  0
 16 43  1  0  0  0  0
 18 22  1  0  0  0  0
 18 21  2  0  0  0  0
 19 20  2  0  0  0  0
 19 21  1  0  0  0  0
 19 44  1  0  0  0  0
 20 22  1  0  0  0  0
 20 45  1  0  0  0  0
 22 46  1  0  0  0  0
M  END
> <Name>
BDB5199

> <Target>
Neuraminidase A

> <Ki_in_nM>
350

> <Kd_from_ITC>
false

> <Uniprot_ID>
P06820

> <source_organism>
Influenza A virus (A/Tokyo/3/67(H2N2))

> <SourceTag>
NA

> <atoms in reference ligand area>
25

> <score>
-27.1137

$$$$
BDB4948
      BALL 1.4.0 (Jan  4 2012, 23:22:29)

 66 66  0999  0  0  0  0  0  0999 V2000
  -31.3619   12.4328  -17.7380 C   0  0  0  0  0  0  0  0  0  0  0  0
  -30.4291   13.4826  -20.1052 C   0  0  0  0  0  0  0  0  0  0  0  0
  -29.5813   13.7077  -18.8660 C   0  0  0  0  0  0  0  0  0  0  0  0
  -30.3782   13.3361  -17.6683 C   0  0  0  0  0  0  0  0  0  0  0  0
  -31.7084   11.7593  -18.9404 O   0  0  0  0  0  0  0  0  0  0  0  0
  -32.1396   12.1506  -16.5304 C   0  0  0  0  0  0  0  0  0  0  0  0
  -32.9058   13.0068  -16.0739 O   0  0  0  0  0  0  0  0  0  0  0  0
  -32.0194   10.9473  -15.9112 O   0  5  0  0  0  0  0  0  0  0  0  0
  -31.5701   11.6350  -21.3553 C   0  0  0  0  0  0  0  0  0  0  0  0
  -31.5829   12.4519  -22.2804 O   0  0  0  0  0  0  0  0  0  0  0  0
  -30.8390   12.0232  -20.0641 C   0  0  0  0  0  0  0  0  0  0  0  0
  -29.6002   13.7335  -21.2920 N   0  0  0  0  0  0  0  0  0  0  0  0
  -28.2107   13.3974  -21.4491 C   0  0  0  0  0  0  0  0  0  0  0  0
  -27.3885   12.7156  -20.3729 C   0  0  0  0  0  0  0  0  0  0  0  0
  -27.6577   13.6790  -22.5178 O   0  0  0  0  0  0  0  0  0  0  0  0
  -29.1522   15.1111  -18.7847 N   0  3  0  0  0  0  0  0  0  0  0  0
  -32.2559   10.3950  -21.5467 N   0  0  0  0  0  0  0  0  0  0  0  0
  -32.0906    9.7174  -22.8124 C   0  0  0  0  0  0  0  0  0  0  0  0
  -33.1296    9.8193  -20.5459 C   0  0  0  0  0  0  0  0  0  0  0  0
  -34.4463   10.6265  -20.4552 C   0  0  0  0  0  0  0  0  0  0  0  0
  -34.1308   12.1291  -20.5499 C   0  0  0  0  0  0  0  0  0  0  0  0
  -33.0945    8.5542  -22.9379 C   0  0  0  0  0  0  0  0  0  0  0  0
  -34.0348    8.7964  -24.1273 C   0  0  0  0  0  0  0  0  0  0  0  0
  -34.5204    7.4371  -24.6558 C   0  0  0  0  0  0  0  0  0  0  0  0
  -35.6563    7.6470  -25.6691 C   0  0  0  0  0  0  0  0  0  0  0  0
  -35.4930    6.6396  -26.8196 C   0  0  0  0  0  0  0  0  0  0  0  0
  -36.7420    6.6712  -27.7152 C   0  0  0  0  0  0  0  0  0  0  0  0
  -36.3093    6.8116  -29.1854 C   0  0  0  0  0  0  0  0  0  0  0  0
  -35.3006    7.9667  -29.3157 C   0  0  0  0  0  0  0  0  0  0  0  0
  -31.3066   14.1450  -20.1416 H   0  0  0  0  0  0  0  0  0  0  0  0
  -28.6781   13.0818  -18.9167 H   0  0  0  0  0  0  0  0  0  0  0  0
  -30.1543   13.8143  -16.7034 H   0  0  0  0  0  0  0  0  0  0  0  0
  -29.9217   11.4250  -19.9603 H   0  0  0  0  0  0  0  0  0  0  0  0
  -30.0593   14.1955  -22.0899 H   0  0  0  0  0  0  0  0  0  0  0  0
  -28.1274   12.4944  -19.5885 H   0  0  0  0  0  0  0  0  0  0  0  0
  -26.7581   13.5272  -19.9805 H   0  0  0  0  0  0  0  0  0  0  0  0
  -26.8168   11.8341  -20.6985 H   0  0  0  0  0  0  0  0  0  0  0  0
  -29.5164   15.5245  -17.9144 H   0  0  0  0  0  0  0  0  0  0  0  0
  -29.5337   15.6269  -19.5905 H   0  0  0  0  0  0  0  0  0  0  0  0
  -28.1238   15.1655  -18.7920 H   0  0  0  0  0  0  0  0  0  0  0  0
  -31.0663    9.3229  -22.8839 H   0  0  0  0  0  0  0  0  0  0  0  0
  -32.2573   10.4319  -23.6320 H   0  0  0  0  0  0  0  0  0  0  0  0
  -32.6253    9.8342  -19.5684 H   0  0  0  0  0  0  0  0  0  0  0  0
  -33.3585    8.7782  -20.8173 H   0  0  0  0  0  0  0  0  0  0  0  0
  -34.9416   10.4162  -19.4958 H   0  0  0  0  0  0  0  0  0  0  0  0
  -35.1110   10.3389  -21.2830 H   0  0  0  0  0  0  0  0  0  0  0  0
  -33.9559   12.5332  -19.5419 H   0  0  0  0  0  0  0  0  0  0  0  0
  -34.9782   12.6551  -21.0137 H   0  0  0  0  0  0  0  0  0  0  0  0
  -33.2299   12.2764  -21.1635 H   0  0  0  0  0  0  0  0  0  0  0  0
  -32.5461    7.6133  -23.0923 H   0  0  0  0  0  0  0  0  0  0  0  0
  -33.6870    8.4804  -22.0140 H   0  0  0  0  0  0  0  0  0  0  0  0
  -33.4939    9.3288  -24.9236 H   0  0  0  0  0  0  0  0  0  0  0  0
  -34.8983    9.3935  -23.7991 H   0  0  0  0  0  0  0  0  0  0  0  0
  -33.6852    6.9157  -25.1463 H   0  0  0  0  0  0  0  0  0  0  0  0
  -34.8875    6.8273  -23.8171 H   0  0  0  0  0  0  0  0  0  0  0  0
  -36.6253    7.4855  -25.1742 H   0  0  0  0  0  0  0  0  0  0  0  0
  -35.6100    8.6709  -26.0684 H   0  0  0  0  0  0  0  0  0  0  0  0
  -34.6080    6.9054  -27.4165 H   0  0  0  0  0  0  0  0  0  0  0  0
  -35.3647    5.6281  -26.4068 H   0  0  0  0  0  0  0  0  0  0  0  0
  -37.3092    5.7373  -27.5875 H   0  0  0  0  0  0  0  0  0  0  0  0
  -37.3739    7.5271  -27.4359 H   0  0  0  0  0  0  0  0  0  0  0  0
  -35.8390    5.8754  -29.5203 H   0  0  0  0  0  0  0  0  0  0  0  0
  -37.1902    7.0231  -29.8093 H   0  0  0  0  0  0  0  0  0  0  0  0
  -35.5087    8.5344  -30.2347 H   0  0  0  0  0  0  0  0  0  0  0  0
  -34.2796    7.5600  -29.3600 H   0  0  0  0  0  0  0  0  0  0  0  0
  -35.3912    8.6336  -28.4455 H   0  0  0  0  0  0  0  0  0  0  0  0
  1  5  1  0  0  0  0
  1  4  2  0  0  0  0
  1  6  1  0  0  0  0
  2 11  1  0  0  0  0
  2  3  1  0  0  0  0
  2 12  1  0  0  0  0
  2 30  1  0  0  0  0
  3  4  1  0  0  0  0
  3 16  1  0  0  0  0
  3 31  1  0  0  0  0
  4 32  1  0  0  0  0
  5 11  1  0  0  0  0
  6  7  2  0  0  0  0
  6  8  1  0  0  0  0
  9 11  1  0  0  0  0
  9 17  1  0  0  0  0
  9 10  2  0  0  0  0
 11 33  1  0  0  0  0
 12 13  1  0  0  0  0
 12 34  1  0  0  0  0
 13 14  1  0  0  0  0
 13 15  2  0  0  0  0
 14 35  1  0  0  0  0
 14 36  1  0  0  0  0
 14 37  1  0  0  0  0
 16 38  1  0  0  0  0
 16 39  1  0  0  0  0
 16 40  1  0  0  0  0
 17 18  1  0  0  0  0
 17 19  1  0  0  0  0
 18 22  1  0  0  0  0
 18 41  1  0  0  0  0
 18 42  1  0  0  0  0
 19 20  1  0  0  0  0
 19 43  1  0  0  0  0
 19 44  1  0  0  0  0
 20 21  1  0  0  0  0
 20 45  1  0  0  0  0
 20 46  1  0  0  0  0
 21 47  1  0  0  0  0
 21 48  1  0  0  0  0
 21 49  1  0  0  0  0
 22 23  1  0  0  0  0
 22 50  1  0  0  0  0
 22 51  1  0  0  0  0
 23 24  1  0  0  0  0
 23 52  1  0  0  0  0
 23 53  1  0  0  0  0
 24 25  1  0  0  0  0
 24 54  1  0  0  0  0
 24 55  1  0  0  0  0
 25 26  1  0  0  0  0
 25 56  1  0  0  0  0
 25 57  1  0  0  0  0
 26 27  1  0  0  0  0
 26 58  1  0  0  0  0
 26 59  1  0  0  0  0
 27 28  1  0  0  0  0
 27 60  1  0  0  0  0
 27 61  1  0  0  0  0
 28 29  1  0  0  0  0
 28 62  1  0  0  0  0
 28 63  1  0  0  0  0
 29 64  1  0  0  0  0
 29 65  1  0  0  0  0
 29 66  1  0  0  0  0
M  END
> <Name>
BDB4948

> <Target>
Neuraminidase A

> <IC50_in_nM>
23

> <Kd_from_ITC>
false

> <source_organism>
Influenza A virus (A/Singapore/1/57(H2N2))

> <SourceTag>
NA

> <atoms in reference ligand area>
24

> <score>
-26.8726

$$$$
BDB5204
      BALL 1.4.0 (Jan  4 2012, 23:22:29)

 46 46  0999  0  0  0  0  0  0999 V2000
  -31.9365    7.8863  -23.9321 C   0  0  0  0  0  0  0  0  0  0  0  0
  -33.2872    7.5868  -23.3358 C   0  0  0  0  0  0  0  0  0  0  0  0
  -32.7152    9.7872  -22.6486 N   0  3  0  0  0  0  0  0  0  0  0  0
  -32.0476    9.4220  -23.9413 C   0  0  0  0  0  0  0  0  0  0  0  0
  -30.7127   10.0871  -24.1178 C   0  0  0  0  0  0  0  0  0  0  0  0
  -29.8214    9.5204  -24.7599 O   0  0  0  0  0  0  0  0  0  0  0  0
  -30.4872   11.3126  -23.5774 O   0  5  0  0  0  0  0  0  0  0  0  0
  -33.1963    8.4863  -22.1108 C   0  0  0  0  0  0  0  0  0  0  0  0
  -34.2297    9.6113  -21.6565 C   0  0  0  0  0  0  0  0  0  0  0  0
  -33.6418   10.2079  -20.2237 C   0  0  0  0  0  0  0  0  0  0  0  0
  -34.0519   11.4753  -21.0329 C   0  0  0  0  0  0  0  0  0  0  0  0
  -32.8139   12.0093  -21.7728 C   0  0  0  0  0  0  0  0  0  0  0  0
  -34.5888   12.5946  -20.1144 C   0  0  0  0  0  0  0  0  0  0  0  0
  -35.4692    8.8263  -21.2509 N   0  0  0  0  0  0  0  0  0  0  0  0
  -36.0401    7.8788  -20.3777 C   0  0  0  0  0  0  0  0  0  0  0  0
  -35.4410    6.5036  -20.2292 C   0  0  0  0  0  0  0  0  0  0  0  0
  -37.0495    8.1754  -19.7344 O   0  0  0  0  0  0  0  0  0  0  0  0
  -33.4488    6.1414  -22.9592 C   0  0  0  0  0  0  0  0  0  0  0  0
  -34.5692    5.4952  -23.2739 C   0  0  0  0  0  0  0  0  0  0  0  0
  -35.6683    6.2098  -24.0036 C   0  0  0  0  0  0  0  0  0  0  0  0
  -31.8667    7.4951  -24.9578 H   0  0  0  0  0  0  0  0  0  0  0  0
  -31.1309    7.5576  -23.2592 H   0  0  0  0  0  0  0  0  0  0  0  0
  -34.1447    7.7611  -24.0022 H   0  0  0  0  0  0  0  0  0  0  0  0
  -32.0319   10.2074  -22.0025 H   0  0  0  0  0  0  0  0  0  0  0  0
  -33.5127   10.4148  -22.8248 H   0  0  0  0  0  0  0  0  0  0  0  0
  -32.6373    9.7775  -24.7992 H   0  0  0  0  0  0  0  0  0  0  0  0
  -32.5140    8.0788  -21.3503 H   0  0  0  0  0  0  0  0  0  0  0  0
  -34.3839   10.3787  -22.4294 H   0  0  0  0  0  0  0  0  0  0  0  0
  -34.1821   10.2137  -19.2656 H   0  0  0  0  0  0  0  0  0  0  0  0
  -32.5702   10.2762  -19.9852 H   0  0  0  0  0  0  0  0  0  0  0  0
  -34.8498   11.1887  -21.7338 H   0  0  0  0  0  0  0  0  0  0  0  0
  -33.0308   13.0000  -22.1986 H   0  0  0  0  0  0  0  0  0  0  0  0
  -32.5307   11.3152  -22.5778 H   0  0  0  0  0  0  0  0  0  0  0  0
  -31.9789   12.0972  -21.0623 H   0  0  0  0  0  0  0  0  0  0  0  0
  -35.3659   12.1678  -19.4632 H   0  0  0  0  0  0  0  0  0  0  0  0
  -35.0412   13.3747  -20.7441 H   0  0  0  0  0  0  0  0  0  0  0  0
  -33.7759   13.0198  -19.5075 H   0  0  0  0  0  0  0  0  0  0  0  0
  -35.9361    9.7356  -21.3783 H   0  0  0  0  0  0  0  0  0  0  0  0
  -35.0483    6.2626  -21.2281 H   0  0  0  0  0  0  0  0  0  0  0  0
  -36.3029    5.8425  -20.0561 H   0  0  0  0  0  0  0  0  0  0  0  0
  -34.6780    6.4239  -19.4409 H   0  0  0  0  0  0  0  0  0  0  0  0
  -32.6426    5.6180  -22.4243 H   0  0  0  0  0  0  0  0  0  0  0  0
  -34.6894    4.4370  -22.9990 H   0  0  0  0  0  0  0  0  0  0  0  0
  -35.8754    7.1082  -23.4035 H   0  0  0  0  0  0  0  0  0  0  0  0
  -36.5451    5.5509  -23.9198 H   0  0  0  0  0  0  0  0  0  0  0  0
  -35.4222    6.4503  -25.0484 H   0  0  0  0  0  0  0  0  0  0  0  0
  1  4  1  0  0  0  0
  1  2  1  0  0  0  0
  1 21  1  0  0  0  0
  1 22  1  0  0  0  0
  2  8  1  0  0  0  0
  2 18  1  0  0  0  0
  2 23  1  0  0  0  0
  3  4  1  0  0  0  0
  3  8  1  0  0  0  0
  3 24  1  0  0  0  0
  3 25  1  0  0  0  0
  4  5  1  0  0  0  0
  4 26  1  0  0  0  0
  5  6  2  0  0  0  0
  5  7  1  0  0  0  0
  8  9  1  0  0  0  0
  8 27  1  0  0  0  0
  9 10  1  0  0  0  0
  9 14  1  0  0  0  0
  9 28  1  0  0  0  0
 10 11  1  0  0  0  0
 10 29  1  0  0  0  0
 10 30  1  0  0  0  0
 11 12  1  0  0  0  0
 11 13  1  0  0  0  0
 11 31  1  0  0  0  0
 12 32  1  0  0  0  0
 12 33  1  0  0  0  0
 12 34  1  0  0  0  0
 13 35  1  0  0  0  0
 13 36  1  0  0  0  0
 13 37  1  0  0  0  0
 14 15  1  0  0  0  0
 14 38  1  0  0  0  0
 15 16  1  0  0  0  0
 15 17  2  0  0  0  0
 16 39  1  0  0  0  0
 16 40  1  0  0  0  0
 16 41  1  0  0  0  0
 18 19  2  0  0  0  0
 18 42  1  0  0  0  0
 19 20  1  0  0  0  0
 19 43  1  0  0  0  0
 20 44  1  0  0  0  0
 20 45  1  0  0  0  0
 20 46  1  0  0  0  0
M  END
> <Name>
BDB5204

> <Target>
Neuraminidase A

> <Ki_in_nM>
20

> <Kd_from_ITC>
false

> <Uniprot_ID>
P06820

> <source_organism>
Influenza A virus (A/Tokyo/3/67(H2N2))

> <SourceTag>
NA

> <atoms in reference ligand area>
12

> <score>
-26.4483

$$$$
BDB5024
      BALL 1.4.0 (Jan  4 2012, 23:22:29)

 51 51  0999  0  0  0  0  0  0999 V2000
  -31.1103    7.3745  -21.2675 C   0  0  0  0  0  0  0  0  0  0  0  0
  -31.9306    8.0252  -19.0650 C   0  0  0  0  0  0  0  0  0  0  0  0
  -32.0286    6.8831  -20.0973 C   0  0  0  0  0  0  0  0  0  0  0  0
  -33.4492    6.7383  -20.6377 C   0  0  0  0  0  0  0  0  0  0  0  0
  -34.4272    6.6128  -19.8941 O   0  0  0  0  0  0  0  0  0  0  0  0
  -33.6302    6.6381  -21.9789 O   0  5  0  0  0  0  0  0  0  0  0  0
  -30.8291    8.8813  -20.9207 C   0  0  0  0  0  0  0  0  0  0  0  0
  -32.0029    9.2823  -19.9777 C   0  0  0  0  0  0  0  0  0  0  0  0
  -31.9081   10.6478  -19.1552 C   0  0  0  0  0  0  0  0  0  0  0  0
  -33.8129   11.9515  -20.3528 C   0  0  0  0  0  0  0  0  0  0  0  0
  -35.2557   12.4907  -20.2510 C   0  0  0  0  0  0  0  0  0  0  0  0
  -30.5974    9.7148  -22.1162 N   0  0  0  0  0  0  0  0  0  0  0  0
  -31.5820    9.8917  -23.1708 C   0  0  0  0  0  0  0  0  0  0  0  0
  -32.5736    9.0972  -23.2113 N   0  3  0  0  0  0  0  0  0  0  0  0
  -31.4834   10.9132  -24.1758 N   0  0  0  0  0  0  0  0  0  0  0  0
  -33.2914   11.4484  -18.9780 C   0  0  0  0  0  0  0  0  0  0  0  0
  -33.2796   12.6506  -17.9975 C   0  0  0  0  0  0  0  0  0  0  0  0
  -33.0508   12.2256  -16.5336 C   0  0  0  0  0  0  0  0  0  0  0  0
  -30.8963   11.5141  -19.7303 N   0  0  0  0  0  0  0  0  0  0  0  0
  -30.1507   12.4320  -18.9490 C   0  0  0  0  0  0  0  0  0  0  0  0
  -30.3753   12.5877  -17.4658 C   0  0  0  0  0  0  0  0  0  0  0  0
  -29.2945   13.1298  -19.5030 O   0  0  0  0  0  0  0  0  0  0  0  0
  -30.6528    7.9489  -18.4218 O   0  0  0  0  0  0  0  0  0  0  0  0
  -31.6280    7.3089  -22.1778 H   0  0  0  0  0  0  0  0  0  0  0  0
  -30.2136    6.8351  -21.2653 H   0  0  0  0  0  0  0  0  0  0  0  0
  -32.7250    7.9612  -18.3092 H   0  0  0  0  0  0  0  0  0  0  0  0
  -31.7288    5.9076  -19.6900 H   0  0  0  0  0  0  0  0  0  0  0  0
  -29.9222    8.8935  -20.3056 H   0  0  0  0  0  0  0  0  0  0  0  0
  -32.9370    9.2728  -20.5205 H   0  0  0  0  0  0  0  0  0  0  0  0
  -31.5909   10.3590  -18.1512 H   0  0  0  0  0  0  0  0  0  0  0  0
  -33.7864   11.1405  -21.0633 H   0  0  0  0  0  0  0  0  0  0  0  0
  -33.1639   12.7371  -20.7150 H   0  0  0  0  0  0  0  0  0  0  0  0
  -35.3525   13.0276  -19.3254 H   0  0  0  0  0  0  0  0  0  0  0  0
  -35.9300   11.6544  -20.2366 H   0  0  0  0  0  0  0  0  0  0  0  0
  -35.4711   13.1231  -21.0675 H   0  0  0  0  0  0  0  0  0  0  0  0
  -29.7478   10.2915  -22.1484 H   0  0  0  0  0  0  0  0  0  0  0  0
  -32.6598    8.3783  -22.5310 H   0  0  0  0  0  0  0  0  0  0  0  0
  -33.2565    9.1945  -23.9261 H   0  0  0  0  0  0  0  0  0  0  0  0
  -30.5926   11.1479  -24.5978 H   0  0  0  0  0  0  0  0  0  0  0  0
  -32.3311   11.4094  -24.4770 H   0  0  0  0  0  0  0  0  0  0  0  0
  -33.9378   10.7187  -18.5371 H   0  0  0  0  0  0  0  0  0  0  0  0
  -34.2232   13.1788  -18.0698 H   0  0  0  0  0  0  0  0  0  0  0  0
  -32.4967   13.3439  -18.2929 H   0  0  0  0  0  0  0  0  0  0  0  0
  -33.6337   11.3378  -16.3543 H   0  0  0  0  0  0  0  0  0  0  0  0
  -33.4275   13.0115  -15.9006 H   0  0  0  0  0  0  0  0  0  0  0  0
  -32.0370   12.0508  -16.3493 H   0  0  0  0  0  0  0  0  0  0  0  0
  -30.7127   11.4615  -20.7041 H   0  0  0  0  0  0  0  0  0  0  0  0
  -31.4145   12.2594  -17.3344 H   0  0  0  0  0  0  0  0  0  0  0  0
  -30.3943   13.6767  -17.3287 H   0  0  0  0  0  0  0  0  0  0  0  0
  -29.7258   12.1179  -16.9027 H   0  0  0  0  0  0  0  0  0  0  0  0
  -29.9454    8.2264  -19.0401 H   0  0  0  0  0  0  0  0  0  0  0  0
  1  7  1  0  0  0  0
  1  3  1  0  0  0  0
  1 24  1  0  0  0  0
  1 25  1  0  0  0  0
  2  8  1  0  0  0  0
  2  3  1  0  0  0  0
  2 23  1  0  0  0  0
  2 26  1  0  0  0  0
  3  4  1  0  0  0  0
  3 27  1  0  0  0  0
  4  6  1  0  0  0  0
  4  5  2  0  0  0  0
  7  8  1  0  0  0  0
  7 12  1  0  0  0  0
  7 28  1  0  0  0  0
  8  9  1  0  0  0  0
  8 29  1  0  0  0  0
  9 19  1  0  0  0  0
  9 16  1  0  0  0  0
  9 30  1  0  0  0  0
 10 16  1  0  0  0  0
 10 11  1  0  0  0  0
 10 31  1  0  0  0  0
 10 32  1  0  0  0  0
 11 33  1  0  0  0  0
 11 34  1  0  0  0  0
 11 35  1  0  0  0  0
 12 13  1  0  0  0  0
 12 36  1  0  0  0  0
 13 14  2  0  0  0  0
 13 15  1  0  0  0  0
 14 37  1  0  0  0  0
 14 38  1  0  0  0  0
 15 39  1  0  0  0  0
 15 40  1  0  0  0  0
 16 17  1  0  0  0  0
 16 41  1  0  0  0  0
 17 18  1  0  0  0  0
 17 42  1  0  0  0  0
 17 43  1  0  0  0  0
 18 44  1  0  0  0  0
 18 45  1  0  0  0  0
 18 46  1  0  0  0  0
 19 20  1  0  0  0  0
 19 47  1  0  0  0  0
 20 22  2  0  0  0  0
 20 21  1  0  0  0  0
 21 48  1  0  0  0  0
 21 49  1  0  0  0  0
 21 50  1  0  0  0  0
 23 51  1  0  0  0  0
M  END
> <Name>
BDB5024

> <Target>
Neuraminidase A

> <IC50_in_nM>
1

> <Kd_from_ITC>
false

> <source_organism>
Influenza A virus (A/Singapore/1/57(H2N2))

> <SourceTag>
NA

> <atoms in reference ligand area>
18

> <score>
-26.3881

$$$$
BDB4945
      BALL 1.4.0 (Jan  4 2012, 23:22:29)

 55 56  0999  0  0  0  0  0  0999 V2000
  -32.4555   10.3249  -16.2900 C   0  0  0  0  0  0  0  0  0  0  0  0
  -32.5313   12.0719  -18.4156 C   0  0  0  0  0  0  0  0  0  0  0  0
  -32.8919   12.6274  -17.0493 C   0  0  0  0  0  0  0  0  0  0  0  0
  -33.0791   11.4937  -16.1073 C   0  0  0  0  0  0  0  0  0  0  0  0
  -31.5696   10.0834  -17.3746 O   0  0  0  0  0  0  0  0  0  0  0  0
  -32.7240    9.2344  -15.3513 C   0  0  0  0  0  0  0  0  0  0  0  0
  -33.8204    9.1617  -14.7847 O   0  0  0  0  0  0  0  0  0  0  0  0
  -31.7678    8.3017  -15.1028 O   0  5  0  0  0  0  0  0  0  0  0  0
  -30.7322   10.7480  -19.5454 C   0  0  0  0  0  0  0  0  0  0  0  0
  -29.7395   11.3235  -20.0048 O   0  0  0  0  0  0  0  0  0  0  0  0
  -31.2862   11.2327  -18.2033 C   0  0  0  0  0  0  0  0  0  0  0  0
  -32.2275   13.1951  -19.3127 N   0  0  0  0  0  0  0  0  0  0  0  0
  -32.9995   13.6092  -20.4532 C   0  0  0  0  0  0  0  0  0  0  0  0
  -34.2738   12.9173  -20.8964 C   0  0  0  0  0  0  0  0  0  0  0  0
  -32.6033   14.5805  -21.1066 O   0  0  0  0  0  0  0  0  0  0  0  0
  -34.1154   13.4378  -17.1305 N   0  3  0  0  0  0  0  0  0  0  0  0
  -31.3017    9.6836  -20.3097 N   0  0  0  0  0  0  0  0  0  0  0  0
  -30.5269    9.1511  -21.4054 C   0  0  0  0  0  0  0  0  0  0  0  0
  -32.6168    9.1378  -20.0369 C   0  0  0  0  0  0  0  0  0  0  0  0
  -33.7096   10.2033  -20.2911 C   0  0  0  0  0  0  0  0  0  0  0  0
  -34.4942    9.8344  -21.5623 C   0  0  0  0  0  0  0  0  0  0  0  0
  -31.4290    8.4196  -22.4222 C   0  0  0  0  0  0  0  0  0  0  0  0
  -30.5968    7.8904  -23.5527 C   0  0  0  0  0  0  0  0  0  0  0  0
  -29.0543    6.8987  -25.6407 C   0  0  0  0  0  0  0  0  0  0  0  0
  -30.4351    6.9748  -25.7728 C   0  0  0  0  0  0  0  0  0  0  0  0
  -31.2070    7.4710  -24.7279 C   0  0  0  0  0  0  0  0  0  0  0  0
  -29.2149    7.8143  -23.4202 C   0  0  0  0  0  0  0  0  0  0  0  0
  -28.4438    7.3186  -24.4642 C   0  0  0  0  0  0  0  0  0  0  0  0
  -33.3450   11.4780  -18.8573 H   0  0  0  0  0  0  0  0  0  0  0  0
  -32.0810   13.2770  -16.6880 H   0  0  0  0  0  0  0  0  0  0  0  0
  -33.7452   11.6185  -15.2409 H   0  0  0  0  0  0  0  0  0  0  0  0
  -30.5419   11.8671  -17.6997 H   0  0  0  0  0  0  0  0  0  0  0  0
  -31.3783   13.7394  -19.1043 H   0  0  0  0  0  0  0  0  0  0  0  0
  -33.9673   11.8672  -21.0126 H   0  0  0  0  0  0  0  0  0  0  0  0
  -34.4343   13.3044  -21.9135 H   0  0  0  0  0  0  0  0  0  0  0  0
  -35.1419   13.0504  -20.2340 H   0  0  0  0  0  0  0  0  0  0  0  0
  -34.7009   13.2470  -16.3048 H   0  0  0  0  0  0  0  0  0  0  0  0
  -34.6348   13.1789  -17.9814 H   0  0  0  0  0  0  0  0  0  0  0  0
  -33.8731   14.4383  -17.1617 H   0  0  0  0  0  0  0  0  0  0  0  0
  -29.7790    8.4466  -21.0126 H   0  0  0  0  0  0  0  0  0  0  0  0
  -30.0036    9.9751  -21.9126 H   0  0  0  0  0  0  0  0  0  0  0  0
  -32.6654    8.8103  -18.9880 H   0  0  0  0  0  0  0  0  0  0  0  0
  -32.7941    8.2716  -20.6913 H   0  0  0  0  0  0  0  0  0  0  0  0
  -33.2392   11.1887  -20.4241 H   0  0  0  0  0  0  0  0  0  0  0  0
  -34.3969   10.2364  -19.4329 H   0  0  0  0  0  0  0  0  0  0  0  0
  -33.8375    9.2888  -22.2559 H   0  0  0  0  0  0  0  0  0  0  0  0
  -34.8607   10.7505  -22.0485 H   0  0  0  0  0  0  0  0  0  0  0  0
  -35.3495    9.1975  -21.2927 H   0  0  0  0  0  0  0  0  0  0  0  0
  -32.1790    9.1203  -22.8180 H   0  0  0  0  0  0  0  0  0  0  0  0
  -31.9404    7.5836  -21.9226 H   0  0  0  0  0  0  0  0  0  0  0  0
  -28.4437    6.5062  -26.4671 H   0  0  0  0  0  0  0  0  0  0  0  0
  -30.9179    6.6426  -26.7037 H   0  0  0  0  0  0  0  0  0  0  0  0
  -32.3003    7.5315  -24.8321 H   0  0  0  0  0  0  0  0  0  0  0  0
  -28.7323    8.1466  -22.4893 H   0  0  0  0  0  0  0  0  0  0  0  0
  -27.3505    7.2582  -24.3599 H   0  0  0  0  0  0  0  0  0  0  0  0
  1  5  1  0  0  0  0
  1  4  2  0  0  0  0
  1  6  1  0  0  0  0
  2 11  1  0  0  0  0
  2  3  1  0  0  0  0
  2 12  1  0  0  0  0
  2 29  1  0  0  0  0
  3  4  1  0  0  0  0
  3 16  1  0  0  0  0
  3 30  1  0  0  0  0
  4 31  1  0  0  0  0
  5 11  1  0  0  0  0
  6  7  2  0  0  0  0
  6  8  1  0  0  0  0
  9 11  1  0  0  0  0
  9 17  1  0  0  0  0
  9 10  2  0  0  0  0
 11 32  1  0  0  0  0
 12 13  1  0  0  0  0
 12 33  1  0  0  0  0
 13 14  1  0  0  0  0
 13 15  2  0  0  0  0
 14 34  1  0  0  0  0
 14 35  1  0  0  0  0
 14 36  1  0  0  0  0
 16 37  1  0  0  0  0
 16 38  1  0  0  0  0
 16 39  1  0  0  0  0
 17 18  1  0  0  0  0
 17 19  1  0  0  0  0
 18 22  1  0  0  0  0
 18 40  1  0  0  0  0
 18 41  1  0  0  0  0
 19 20  1  0  0  0  0
 19 42  1  0  0  0  0
 19 43  1  0  0  0  0
 20 21  1  0  0  0  0
 20 44  1  0  0  0  0
 20 45  1  0  0  0  0
 21 46  1  0  0  0  0
 21 47  1  0  0  0  0
 21 48  1  0  0  0  0
 22 23  1  0  0  0  0
 22 49  1  0  0  0  0
 22 50  1  0  0  0  0
 23 26  2  0  0  0  0
 23 27  1  0  0  0  0
 24 25  2  0  0  0  0
 24 28  1  0  0  0  0
 24 51  1  0  0  0  0
 25 26  1  0  0  0  0
 25 52  1  0  0  0  0
 26 53  1  0  0  0  0
 27 28  2  0  0  0  0
 27 54  1  0  0  0  0
 28 55  1  0  0  0  0
M  END
> <Name>
BDB4945

> <Target>
Neuraminidase A

> <IC50_in_nM>
2

> <Kd_from_ITC>
false

> <source_organism>
Influenza A virus (A/Singapore/1/57(H2N2))

> <SourceTag>
NA

> <atoms in reference ligand area>
14

> <score>
-26.344

$$$$
BDB5023
      BALL 1.4.0 (Jan  4 2012, 23:22:29)

 50 50  0999  0  0  0  0  0  0999 V2000
  -30.9853   11.5725  -20.8293 C   0  0  0  0  0  0  0  0  0  0  0  0
  -31.1769    9.1323  -20.6603 C   0  0  0  0  0  0  0  0  0  0  0  0
  -30.7535   10.2539  -21.6496 C   0  0  0  0  0  0  0  0  0  0  0  0
  -31.7661   10.2574  -22.7617 C   0  0  0  0  0  0  0  0  0  0  0  0
  -32.8416    9.6649  -22.6196 O   0  0  0  0  0  0  0  0  0  0  0  0
  -31.4982   10.9113  -23.9214 O   0  5  0  0  0  0  0  0  0  0  0  0
  -31.5872   11.0715  -19.5038 C   0  0  0  0  0  0  0  0  0  0  0  0
  -32.3155    9.8167  -19.9162 C   0  0  0  0  0  0  0  0  0  0  0  0
  -32.7900    8.9881  -18.6706 C   0  0  0  0  0  0  0  0  0  0  0  0
  -31.6807    8.7475  -17.7857 N   0  0  0  0  0  0  0  0  0  0  0  0
  -31.8427    8.0320  -16.5862 C   0  0  0  0  0  0  0  0  0  0  0  0
  -33.1793    7.4456  -16.2153 C   0  0  0  0  0  0  0  0  0  0  0  0
  -30.8765    7.8723  -15.8359 O   0  0  0  0  0  0  0  0  0  0  0  0
  -35.1363    9.9477  -18.9592 C   0  0  0  0  0  0  0  0  0  0  0  0
  -36.1795    8.8175  -19.0774 C   0  0  0  0  0  0  0  0  0  0  0  0
  -32.4353   12.0568  -18.8639 N   0  0  0  0  0  0  0  0  0  0  0  0
  -33.5704   12.6143  -19.4957 C   0  0  0  0  0  0  0  0  0  0  0  0
  -33.8166   13.8523  -19.3504 N   0  3  0  0  0  0  0  0  0  0  0  0
  -34.4298   11.8322  -20.2784 N   0  0  0  0  0  0  0  0  0  0  0  0
  -34.0677    9.5652  -17.9149 C   0  0  0  0  0  0  0  0  0  0  0  0
  -33.8124   10.7819  -16.9713 C   0  0  0  0  0  0  0  0  0  0  0  0
  -32.3123   10.9530  -16.6484 C   0  0  0  0  0  0  0  0  0  0  0  0
  -31.7031   12.2220  -21.3516 H   0  0  0  0  0  0  0  0  0  0  0  0
  -30.0254   12.0772  -20.6454 H   0  0  0  0  0  0  0  0  0  0  0  0
  -31.5472    8.2552  -21.2112 H   0  0  0  0  0  0  0  0  0  0  0  0
  -30.3522    8.8976  -19.9713 H   0  0  0  0  0  0  0  0  0  0  0  0
  -29.7319   10.1413  -22.0417 H   0  0  0  0  0  0  0  0  0  0  0  0
  -30.8305   10.8774  -18.7295 H   0  0  0  0  0  0  0  0  0  0  0  0
  -33.2409    9.9618  -20.4930 H   0  0  0  0  0  0  0  0  0  0  0  0
  -33.1503    8.0260  -19.0637 H   0  0  0  0  0  0  0  0  0  0  0  0
  -30.7486    9.1071  -18.0365 H   0  0  0  0  0  0  0  0  0  0  0  0
  -33.9129    8.0521  -16.7666 H   0  0  0  0  0  0  0  0  0  0  0  0
  -33.3025    7.6842  -15.1487 H   0  0  0  0  0  0  0  0  0  0  0  0
  -33.2745    6.3698  -16.4240 H   0  0  0  0  0  0  0  0  0  0  0  0
  -35.6373   10.8760  -18.6472 H   0  0  0  0  0  0  0  0  0  0  0  0
  -34.6554   10.1043  -19.9360 H   0  0  0  0  0  0  0  0  0  0  0  0
  -35.9136    8.0019  -18.3889 H   0  0  0  0  0  0  0  0  0  0  0  0
  -36.1886    8.4355  -20.1089 H   0  0  0  0  0  0  0  0  0  0  0  0
  -37.1762    9.2054  -18.8203 H   0  0  0  0  0  0  0  0  0  0  0  0
  -32.2012   12.3638  -17.9090 H   0  0  0  0  0  0  0  0  0  0  0  0
  -33.1981   14.4460  -18.7795 H   0  0  0  0  0  0  0  0  0  0  0  0
  -34.6422   14.2638  -19.8085 H   0  0  0  0  0  0  0  0  0  0  0  0
  -34.0252   11.1173  -20.8998 H   0  0  0  0  0  0  0  0  0  0  0  0
  -35.4500   11.9672  -20.2355 H   0  0  0  0  0  0  0  0  0  0  0  0
  -34.4001    8.7553  -17.2490 H   0  0  0  0  0  0  0  0  0  0  0  0
  -34.3680   10.6353  -16.0333 H   0  0  0  0  0  0  0  0  0  0  0  0
  -34.1833   11.6977  -17.4549 H   0  0  0  0  0  0  0  0  0  0  0  0
  -32.2143   11.2443  -15.5923 H   0  0  0  0  0  0  0  0  0  0  0  0
  -31.9101   11.7596  -17.2790 H   0  0  0  0  0  0  0  0  0  0  0  0
  -31.7672   10.0161  -16.8363 H   0  0  0  0  0  0  0  0  0  0  0  0
  1  7  1  0  0  0  0
  1  3  1  0  0  0  0
  1 23  1  0  0  0  0
  1 24  1  0  0  0  0
  2  8  1  0  0  0  0
  2  3  1  0  0  0  0
  2 25  1  0  0  0  0
  2 26  1  0  0  0  0
  3  4  1  0  0  0  0
  3 27  1  0  0  0  0
  4  6  1  0  0  0  0
  4  5  2  0  0  0  0
  7  8  1  0  0  0  0
  7 16  1  0  0  0  0
  7 28  1  0  0  0  0
  8  9  1  0  0  0  0
  8 29  1  0  0  0  0
  9 10  1  0  0  0  0
  9 20  1  0  0  0  0
  9 30  1  0  0  0  0
 10 11  1  0  0  0  0
 10 31  1  0  0  0  0
 11 12  1  0  0  0  0
 11 13  2  0  0  0  0
 12 32  1  0  0  0  0
 12 33  1  0  0  0  0
 12 34  1  0  0  0  0
 14 20  1  0  0  0  0
 14 15  1  0  0  0  0
 14 35  1  0  0  0  0
 14 36  1  0  0  0  0
 15 37  1  0  0  0  0
 15 38  1  0  0  0  0
 15 39  1  0  0  0  0
 16 17  1  0  0  0  0
 16 40  1  0  0  0  0
 17 18  2  0  0  0  0
 17 19  1  0  0  0  0
 18 41  1  0  0  0  0
 18 42  1  0  0  0  0
 19 43  1  0  0  0  0
 19 44  1  0  0  0  0
 20 21  1  0  0  0  0
 20 45  1  0  0  0  0
 21 22  1  0  0  0  0
 21 46  1  0  0  0  0
 21 47  1  0  0  0  0
 22 48  1  0  0  0  0
 22 49  1  0  0  0  0
 22 50  1  0  0  0  0
M  END
> <Name>
BDB5023

> <Target>
Neuraminidase A

> <IC50_in_nM>
1

> <Kd_from_ITC>
false

> <source_organism>
Influenza A virus (A/Singapore/1/57(H2N2))

> <SourceTag>
NA

> <atoms in reference ligand area>
15

> <score>
-26.0552

$$$$
BDB4952
      BALL 1.4.0 (Jan  4 2012, 23:22:29)

 52 53  0999  0  0  0  0  0  0999 V2000
  -32.0494   10.2719  -16.2855 C   0  0  0  0  0  0  0  0  0  0  0  0
  -33.0946   11.9255  -18.2217 C   0  0  0  0  0  0  0  0  0  0  0  0
  -32.7373   12.5590  -16.8890 C   0  0  0  0  0  0  0  0  0  0  0  0
  -32.4770   11.4795  -15.9018 C   0  0  0  0  0  0  0  0  0  0  0  0
  -31.8026    9.9356  -17.6440 O   0  0  0  0  0  0  0  0  0  0  0  0
  -31.8607    9.2396  -15.2651 C   0  0  0  0  0  0  0  0  0  0  0  0
  -31.1509    8.2559  -15.5040 O   0  0  0  0  0  0  0  0  0  0  0  0
  -32.4659    9.3626  -14.0549 O   0  5  0  0  0  0  0  0  0  0  0  0
  -32.0987   10.4571  -19.9898 C   0  0  0  0  0  0  0  0  0  0  0  0
  -31.1540   10.5667  -20.7791 O   0  0  0  0  0  0  0  0  0  0  0  0
  -31.9237   11.0305  -18.5791 C   0  0  0  0  0  0  0  0  0  0  0  0
  -33.2315   12.9902  -19.2249 N   0  0  0  0  0  0  0  0  0  0  0  0
  -32.2272   13.9525  -19.5905 C   0  0  0  0  0  0  0  0  0  0  0  0
  -30.8458   13.9973  -18.9672 C   0  0  0  0  0  0  0  0  0  0  0  0
  -32.5049   14.7870  -20.4587 O   0  0  0  0  0  0  0  0  0  0  0  0
  -33.8268   13.4298  -16.4254 N   0  3  0  0  0  0  0  0  0  0  0  0
  -33.2870    9.8111  -20.4567 N   0  0  0  0  0  0  0  0  0  0  0  0
  -33.2628    9.2396  -21.7841 C   0  0  0  0  0  0  0  0  0  0  0  0
  -34.6764    8.8210  -22.2429 C   0  0  0  0  0  0  0  0  0  0  0  0
  -34.6075    8.2375  -23.6246 C   0  0  0  0  0  0  0  0  0  0  0  0
  -34.4801    7.1695  -26.1869 C   0  0  0  0  0  0  0  0  0  0  0  0
  -33.6900    6.6406  -25.1741 C   0  0  0  0  0  0  0  0  0  0  0  0
  -33.7538    7.1753  -23.8920 C   0  0  0  0  0  0  0  0  0  0  0  0
  -35.3987    8.7670  -24.6382 C   0  0  0  0  0  0  0  0  0  0  0  0
  -35.3348    8.2330  -25.9191 C   0  0  0  0  0  0  0  0  0  0  0  0
  -34.5003    9.7268  -19.6640 C   0  0  0  0  0  0  0  0  0  0  0  0
  -34.1789    9.2480  -18.2253 C   0  0  0  0  0  0  0  0  0  0  0  0
  -34.0356   11.3575  -18.1798 H   0  0  0  0  0  0  0  0  0  0  0  0
  -31.8360   13.1791  -17.0036 H   0  0  0  0  0  0  0  0  0  0  0  0
  -32.6395   11.6779  -14.8321 H   0  0  0  0  0  0  0  0  0  0  0  0
  -31.0126   11.6453  -18.5365 H   0  0  0  0  0  0  0  0  0  0  0  0
  -34.1355   13.0536  -19.7144 H   0  0  0  0  0  0  0  0  0  0  0  0
  -30.9970   14.5900  -18.0530 H   0  0  0  0  0  0  0  0  0  0  0  0
  -30.2750   14.6369  -19.6566 H   0  0  0  0  0  0  0  0  0  0  0  0
  -30.3752   13.0201  -18.7840 H   0  0  0  0  0  0  0  0  0  0  0  0
  -33.8374   13.4364  -15.3955 H   0  0  0  0  0  0  0  0  0  0  0  0
  -34.7237   13.0600  -16.7712 H   0  0  0  0  0  0  0  0  0  0  0  0
  -33.6861   14.3872  -16.7780 H   0  0  0  0  0  0  0  0  0  0  0  0
  -32.6059    8.3572  -21.7866 H   0  0  0  0  0  0  0  0  0  0  0  0
  -32.8583    9.9807  -22.4892 H   0  0  0  0  0  0  0  0  0  0  0  0
  -35.3357    9.7016  -22.2506 H   0  0  0  0  0  0  0  0  0  0  0  0
  -35.0794    8.0694  -21.5482 H   0  0  0  0  0  0  0  0  0  0  0  0
  -34.4297    6.7467  -27.2012 H   0  0  0  0  0  0  0  0  0  0  0  0
  -33.0139    5.7993  -25.3863 H   0  0  0  0  0  0  0  0  0  0  0  0
  -33.1282    6.7568  -23.0897 H   0  0  0  0  0  0  0  0  0  0  0  0
  -36.0747    9.6084  -24.4259 H   0  0  0  0  0  0  0  0  0  0  0  0
  -35.9604    8.6514  -26.7214 H   0  0  0  0  0  0  0  0  0  0  0  0
  -34.9753   10.7180  -19.6198 H   0  0  0  0  0  0  0  0  0  0  0  0
  -35.1958    9.0175  -20.1364 H   0  0  0  0  0  0  0  0  0  0  0  0
  -34.0621    8.1542  -18.2285 H   0  0  0  0  0  0  0  0  0  0  0  0
  -35.0124    9.5210  -17.5614 H   0  0  0  0  0  0  0  0  0  0  0  0
  -33.2507    9.7203  -17.8708 H   0  0  0  0  0  0  0  0  0  0  0  0
  1  5  1  0  0  0  0
  1  4  2  0  0  0  0
  1  6  1  0  0  0  0
  2 11  1  0  0  0  0
  2  3  1  0  0  0  0
  2 12  1  0  0  0  0
  2 28  1  0  0  0  0
  3  4  1  0  0  0  0
  3 16  1  0  0  0  0
  3 29  1  0  0  0  0
  4 30  1  0  0  0  0
  5 11  1  0  0  0  0
  6  7  2  0  0  0  0
  6  8  1  0  0  0  0
  9 11  1  0  0  0  0
  9 17  1  0  0  0  0
  9 10  2  0  0  0  0
 11 31  1  0  0  0  0
 12 13  1  0  0  0  0
 12 32  1  0  0  0  0
 13 14  1  0  0  0  0
 13 15  2  0  0  0  0
 14 33  1  0  0  0  0
 14 34  1  0  0  0  0
 14 35  1  0  0  0  0
 16 36  1  0  0  0  0
 16 37  1  0  0  0  0
 16 38  1  0  0  0  0
 17 18  1  0  0  0  0
 17 26  1  0  0  0  0
 18 19  1  0  0  0  0
 18 39  1  0  0  0  0
 18 40  1  0  0  0  0
 19 20  1  0  0  0  0
 19 41  1  0  0  0  0
 19 42  1  0  0  0  0
 20 23  2  0  0  0  0
 20 24  1  0  0  0  0
 21 22  2  0  0  0  0
 21 25  1  0  0  0  0
 21 43  1  0  0  0  0
 22 23  1  0  0  0  0
 22 44  1  0  0  0  0
 23 45  1  0  0  0  0
 24 25  2  0  0  0  0
 24 46  1  0  0  0  0
 25 47  1  0  0  0  0
 26 27  1  0  0  0  0
 26 48  1  0  0  0  0
 26 49  1  0  0  0  0
 27 50  1  0  0  0  0
 27 51  1  0  0  0  0
 27 52  1  0  0  0  0
M  END
> <Name>
BDB4952

> <Target>
Neuraminidase A

> <IC50_in_nM>
5

> <Kd_from_ITC>
false

> <source_organism>
Influenza A virus (A/Singapore/1/57(H2N2))

> <SourceTag>
NA

> <atoms in reference ligand area>
13

> <score>
-25.5019

$$$$
BDB5228
      BALL 1.4.0 (Jan  4 2012, 23:22:29)

 49 50  0999  0  0  0  0  0  0999 V2000
  -32.9195   10.8353  -18.4436 C   0  0  0  0  0  0  0  0  0  0  0  0
  -33.3423   11.0408  -19.8660 C   0  0  0  0  0  0  0  0  0  0  0  0
  -32.7553    9.8676  -20.7855 C   0  0  0  0  0  0  0  0  0  0  0  0
  -31.2610    9.5442  -20.5204 C   0  0  0  0  0  0  0  0  0  0  0  0
  -31.1173    9.1003  -19.0712 C   0  0  0  0  0  0  0  0  0  0  0  0
  -31.9120   10.0136  -18.0788 C   0  0  0  0  0  0  0  0  0  0  0  0
  -33.0002   12.5253  -20.2324 N   0  0  0  0  0  0  0  0  0  0  0  0
  -32.5796   12.7005  -21.6374 C   0  0  0  0  0  0  0  0  0  0  0  0
  -32.2287   13.3619  -19.2594 C   0  0  0  0  0  0  0  0  0  0  0  0
  -31.2118   14.3289  -19.9306 C   0  0  0  0  0  0  0  0  0  0  0  0
  -31.6546    9.8727  -16.6573 C   0  0  0  0  0  0  0  0  0  0  0  0
  -31.8996   10.8143  -15.8947 O   0  0  0  0  0  0  0  0  0  0  0  0
  -31.2304    8.6864  -16.1611 O   0  5  0  0  0  0  0  0  0  0  0  0
  -30.3743   10.6294  -20.7015 N   0  3  0  0  0  0  0  0  0  0  0  0
  -33.5466    8.5417  -20.7688 N   0  0  0  0  0  0  0  0  0  0  0  0
  -34.8271    8.1077  -21.3851 C   0  0  0  0  0  0  0  0  0  0  0  0
  -35.6376    8.8075  -22.4362 C   0  0  0  0  0  0  0  0  0  0  0  0
  -35.2529    7.0035  -21.0295 O   0  0  0  0  0  0  0  0  0  0  0  0
  -30.0352   14.5792  -18.9794 C   0  0  0  0  0  0  0  0  0  0  0  0
  -27.9295   15.0778  -17.2145 C   0  0  0  0  0  0  0  0  0  0  0  0
  -28.1171   15.8942  -18.3172 C   0  0  0  0  0  0  0  0  0  0  0  0
  -29.1686   15.6352  -19.1954 C   0  0  0  0  0  0  0  0  0  0  0  0
  -29.8437   13.7592  -17.8641 C   0  0  0  0  0  0  0  0  0  0  0  0
  -28.7934   14.0068  -16.9929 C   0  0  0  0  0  0  0  0  0  0  0  0
  -33.4432   11.3672  -17.6770 H   0  0  0  0  0  0  0  0  0  0  0  0
  -34.4346   10.9911  -19.9819 H   0  0  0  0  0  0  0  0  0  0  0  0
  -32.8628   10.1948  -21.8249 H   0  0  0  0  0  0  0  0  0  0  0  0
  -30.9459    8.7540  -21.2111 H   0  0  0  0  0  0  0  0  0  0  0  0
  -30.0688    9.1081  -18.7988 H   0  0  0  0  0  0  0  0  0  0  0  0
  -31.4709    8.0780  -18.9753 H   0  0  0  0  0  0  0  0  0  0  0  0
  -33.3825   13.2017  -22.1550 H   0  0  0  0  0  0  0  0  0  0  0  0
  -32.4676   11.7169  -22.0662 H   0  0  0  0  0  0  0  0  0  0  0  0
  -31.6939   13.2423  -21.7025 H   0  0  0  0  0  0  0  0  0  0  0  0
  -32.9290   13.9435  -18.6583 H   0  0  0  0  0  0  0  0  0  0  0  0
  -31.6953   12.7071  -18.5734 H   0  0  0  0  0  0  0  0  0  0  0  0
  -31.6942   15.2579  -20.1516 H   0  0  0  0  0  0  0  0  0  0  0  0
  -30.8485   13.8909  -20.8399 H   0  0  0  0  0  0  0  0  0  0  0  0
  -29.5076   10.3133  -20.5091 H   0  0  0  0  0  0  0  0  0  0  0  0
  -30.6309   11.4197  -20.0921 H   0  0  0  0  0  0  0  0  0  0  0  0
  -30.3850   10.9232  -21.6810 H   0  0  0  0  0  0  0  0  0  0  0  0
  -33.1301    7.8430  -20.2035 H   0  0  0  0  0  0  0  0  0  0  0  0
  -36.5782    8.9903  -21.8599 H   0  0  0  0  0  0  0  0  0  0  0  0
  -35.9095    7.9338  -23.0789 H   0  0  0  0  0  0  0  0  0  0  0  0
  -35.2570    9.5419  -22.8638 H   0  0  0  0  0  0  0  0  0  0  0  0
  -27.1248   15.2684  -16.5355 H   0  0  0  0  0  0  0  0  0  0  0  0
  -27.4590   16.7191  -18.4942 H   0  0  0  0  0  0  0  0  0  0  0  0
  -29.3073   16.2637  -20.0503 H   0  0  0  0  0  0  0  0  0  0  0  0
  -30.5076   12.9400  -17.6823 H   0  0  0  0  0  0  0  0  0  0  0  0
  -28.6454   13.3712  -16.1449 H   0  0  0  0  0  0  0  0  0  0  0  0
  1  2  1  0  0  0  0
  1  6  2  0  0  0  0
  1 25  1  0  0  0  0
  2  3  1  0  0  0  0
  2  7  1  0  0  0  0
  2 26  1  0  0  0  0
  3  4  1  0  0  0  0
  3 15  1  0  0  0  0
  3 27  1  0  0  0  0
  4  5  1  0  0  0  0
  4 14  1  0  0  0  0
  4 28  1  0  0  0  0
  5  6  1  0  0  0  0
  5 29  1  0  0  0  0
  5 30  1  0  0  0  0
  6 11  1  0  0  0  0
  7  9  1  0  0  0  0
  7  8  1  0  0  0  0
  8 31  1  0  0  0  0
  8 32  1  0  0  0  0
  8 33  1  0  0  0  0
  9 10  1  0  0  0  0
  9 34  1  0  0  0  0
  9 35  1  0  0  0  0
 10 19  1  0  0  0  0
 10 36  1  0  0  0  0
 10 37  1  0  0  0  0
 11 12  2  0  0  0  0
 11 13  1  0  0  0  0
 14 38  1  0  0  0  0
 14 39  1  0  0  0  0
 14 40  1  0  0  0  0
 15 16  1  0  0  0  0
 15 41  1  0  0  0  0
 16 17  1  0  0  0  0
 16 18  2  0  0  0  0
 17 42  1  0  0  0  0
 17 43  1  0  0  0  0
 17 44  1  0  0  0  0
 19 22  2  0  0  0  0
 19 23  1  0  0  0  0
 20 21  2  0  0  0  0
 20 24  1  0  0  0  0
 20 45  1  0  0  0  0
 21 22  1  0  0  0  0
 21 46  1  0  0  0  0
 22 47  1  0  0  0  0
 23 24  2  0  0  0  0
 23 48  1  0  0  0  0
 24 49  1  0  0  0  0
M  END
> <Name>
BDB5228

> <Target>
Neuraminidase A

> <IC50_in_nM>
100

> <Kd_from_ITC>
false

> <source_organism>
Influenza A virus (A/Puerto Rico/8/34(H1N1))

> <SourceTag>
NA

> <atoms in reference ligand area>
21

> <score>
-25.2631

$$$$
BDB5003
      BALL 1.4.0 (Jan  4 2012, 23:22:29)

 54 55  0999  0  0  0  0  0  0999 V2000
  -32.6720   10.6412  -20.2625 C   0  0  0  0  0  0  0  0  0  0  0  0
  -31.5532    9.7838  -20.7807 C   0  0  0  0  0  0  0  0  0  0  0  0
  -30.2570   10.6786  -21.0894 C   0  0  0  0  0  0  0  0  0  0  0  0
  -30.5648   12.0251  -21.8077 C   0  0  0  0  0  0  0  0  0  0  0  0
  -31.5355   12.8394  -20.9565 C   0  0  0  0  0  0  0  0  0  0  0  0
  -32.7014   11.9838  -20.3706 C   0  0  0  0  0  0  0  0  0  0  0  0
  -33.8416   12.6715  -19.7855 C   0  0  0  0  0  0  0  0  0  0  0  0
  -34.9639   12.5322  -20.2856 O   0  0  0  0  0  0  0  0  0  0  0  0
  -33.6834   13.4160  -18.6655 O   0  5  0  0  0  0  0  0  0  0  0  0
  -31.1440   11.8941  -23.0701 N   0  3  0  0  0  0  0  0  0  0  0  0
  -29.3592   11.0077  -19.8837 N   0  0  0  0  0  0  0  0  0  0  0  0
  -29.4564   12.0098  -18.8041 C   0  0  0  0  0  0  0  0  0  0  0  0
  -30.6912   12.7115  -18.3161 C   0  0  0  0  0  0  0  0  0  0  0  0
  -28.4196   12.2267  -18.1667 O   0  0  0  0  0  0  0  0  0  0  0  0
  -32.1352    8.8545  -21.8708 O   0  0  0  0  0  0  0  0  0  0  0  0
  -31.2820    7.9150  -22.6075 C   0  0  0  0  0  0  0  0  0  0  0  0
  -31.4228    8.0417  -24.1173 C   0  0  0  0  0  0  0  0  0  0  0  0
  -30.2830    7.1376  -24.6443 C   0  0  0  0  0  0  0  0  0  0  0  0
  -30.6191    6.4937  -25.9376 C   0  0  0  0  0  0  0  0  0  0  0  0
  -29.9003    5.1521  -27.8036 C   0  0  0  0  0  0  0  0  0  0  0  0
  -31.1997    5.1867  -28.3135 C   0  0  0  0  0  0  0  0  0  0  0  0
  -32.1941    5.8701  -27.6366 C   0  0  0  0  0  0  0  0  0  0  0  0
  -31.8986    6.5224  -26.4347 C   0  0  0  0  0  0  0  0  0  0  0  0
  -29.6067    5.8027  -26.6240 C   0  0  0  0  0  0  0  0  0  0  0  0
  -31.6535    6.4250  -22.3042 C   0  0  0  0  0  0  0  0  0  0  0  0
  -30.6636    5.7910  -21.3148 C   0  0  0  0  0  0  0  0  0  0  0  0
  -33.4946   10.1570  -19.7789 H   0  0  0  0  0  0  0  0  0  0  0  0
  -31.2290    9.0636  -20.0159 H   0  0  0  0  0  0  0  0  0  0  0  0
  -29.5952   10.0690  -21.7187 H   0  0  0  0  0  0  0  0  0  0  0  0
  -29.6222   12.5668  -21.9534 H   0  0  0  0  0  0  0  0  0  0  0  0
  -31.9513   13.6404  -21.5588 H   0  0  0  0  0  0  0  0  0  0  0  0
  -30.9885   13.3032  -20.1385 H   0  0  0  0  0  0  0  0  0  0  0  0
  -31.5002   11.0003  -23.1450 H   0  0  0  0  0  0  0  0  0  0  0  0
  -30.4347   12.0904  -23.7882 H   0  0  0  0  0  0  0  0  0  0  0  0
  -31.9178   12.5517  -23.1610 H   0  0  0  0  0  0  0  0  0  0  0  0
  -28.5058   10.5036  -19.8772 H   0  0  0  0  0  0  0  0  0  0  0  0
  -30.3288   13.0858  -17.3300 H   0  0  0  0  0  0  0  0  0  0  0  0
  -31.3197   11.8336  -18.0365 H   0  0  0  0  0  0  0  0  0  0  0  0
  -31.0836   13.3436  -18.8862 H   0  0  0  0  0  0  0  0  0  0  0  0
  -30.2344    8.1185  -22.3787 H   0  0  0  0  0  0  0  0  0  0  0  0
  -31.2563    9.0283  -24.4099 H   0  0  0  0  0  0  0  0  0  0  0  0
  -32.3476    7.6620  -24.4229 H   0  0  0  0  0  0  0  0  0  0  0  0
  -29.3836    7.7325  -24.7673 H   0  0  0  0  0  0  0  0  0  0  0  0
  -30.0690    6.3698  -23.9120 H   0  0  0  0  0  0  0  0  0  0  0  0
  -29.1333    4.6213  -28.3276 H   0  0  0  0  0  0  0  0  0  0  0  0
  -31.4271    4.6833  -29.2298 H   0  0  0  0  0  0  0  0  0  0  0  0
  -33.1878    5.8999  -28.0318 H   0  0  0  0  0  0  0  0  0  0  0  0
  -32.6684    7.0426  -25.9038 H   0  0  0  0  0  0  0  0  0  0  0  0
  -28.6109    5.7815  -26.2327 H   0  0  0  0  0  0  0  0  0  0  0  0
  -31.6476    5.8613  -23.2226 H   0  0  0  0  0  0  0  0  0  0  0  0
  -32.6495    6.3829  -21.8877 H   0  0  0  0  0  0  0  0  0  0  0  0
  -30.3425    4.8463  -21.7120 H   0  0  0  0  0  0  0  0  0  0  0  0
  -31.1730    5.6202  -20.3850 H   0  0  0  0  0  0  0  0  0  0  0  0
  -29.8333    6.4279  -21.1665 H   0  0  0  0  0  0  0  0  0  0  0  0
  1  2  1  0  0  0  0
  1  6  2  0  0  0  0
  1 27  1  0  0  0  0
  2  3  1  0  0  0  0
  2 15  1  0  0  0  0
  2 28  1  0  0  0  0
  3  4  1  0  0  0  0
  3 11  1  0  0  0  0
  3 29  1  0  0  0  0
  4  5  1  0  0  0  0
  4 10  1  0  0  0  0
  4 30  1  0  0  0  0
  5  6  1  0  0  0  0
  5 31  1  0  0  0  0
  5 32  1  0  0  0  0
  6  7  1  0  0  0  0
  7  8  2  0  0  0  0
  7  9  1  0  0  0  0
 10 33  1  0  0  0  0
 10 34  1  0  0  0  0
 10 35  1  0  0  0  0
 11 12  1  0  0  0  0
 11 36  1  0  0  0  0
 12 13  1  0  0  0  0
 12 14  2  0  0  0  0
 13 37  1  0  0  0  0
 13 38  1  0  0  0  0
 13 39  1  0  0  0  0
 15 16  1  0  0  0  0
 16 17  1  0  0  0  0
 16 25  1  0  0  0  0
 16 40  1  0  0  0  0
 17 18  1  0  0  0  0
 17 41  1  0  0  0  0
 17 42  1  0  0  0  0
 18 19  1  0  0  0  0
 18 43  1  0  0  0  0
 18 44  1  0  0  0  0
 19 23  2  0  0  0  0
 19 24  1  0  0  0  0
 20 21  1  0  0  0  0
 20 24  2  0  0  0  0
 20 45  1  0  0  0  0
 21 22  2  0  0  0  0
 21 46  1  0  0  0  0
 22 23  1  0  0  0  0
 22 47  1  0  0  0  0
 23 48  1  0  0  0  0
 24 49  1  0  0  0  0
 25 26  1  0  0  0  0
 25 50  1  0  0  0  0
 25 51  1  0  0  0  0
 26 52  1  0  0  0  0
 26 53  1  0  0  0  0
 26 54  1  0  0  0  0
M  END
> <Name>
BDB5003

> <Target>
Neuraminidase A

> <IC50_in_nM>
0.3

> <Kd_from_ITC>
false

> <source_organism>
Influenza A virus (A/Puerto Rico/8/34/Mount Sinai(H1N1))

> <SourceTag>
NA

> <atoms in reference ligand area>
22

> <score>
-24.8023

$$$$
BDB4995
      BALL 1.4.0 (Jan  4 2012, 23:22:29)

 45 45  0999  0  0  0  0  0  0999 V2000
  -32.4542   10.6916  -18.8547 C   0  0  0  0  0  0  0  0  0  0  0  0
  -31.5740   11.8173  -18.3954 C   0  0  0  0  0  0  0  0  0  0  0  0
  -32.3828   13.1955  -18.3233 C   0  0  0  0  0  0  0  0  0  0  0  0
  -33.3805   13.4216  -19.5064 C   0  0  0  0  0  0  0  0  0  0  0  0
  -34.3665   12.2487  -19.5452 C   0  0  0  0  0  0  0  0  0  0  0  0
  -33.6748   10.8655  -19.4033 C   0  0  0  0  0  0  0  0  0  0  0  0
  -34.4047    9.6609  -19.7735 C   0  0  0  0  0  0  0  0  0  0  0  0
  -34.5353    8.7462  -18.9568 O   0  0  0  0  0  0  0  0  0  0  0  0
  -34.9663    9.5612  -21.0038 O   0  5  0  0  0  0  0  0  0  0  0  0
  -32.7989   13.5360  -20.7994 N   0  3  0  0  0  0  0  0  0  0  0  0
  -33.1798   13.4379  -17.0339 N   0  0  0  0  0  0  0  0  0  0  0  0
  -33.8843   12.5329  -16.1131 C   0  0  0  0  0  0  0  0  0  0  0  0
  -33.7201   11.0463  -15.9954 C   0  0  0  0  0  0  0  0  0  0  0  0
  -34.6422   13.0673  -15.2948 O   0  0  0  0  0  0  0  0  0  0  0  0
  -30.2809   11.7365  -19.1989 O   0  0  0  0  0  0  0  0  0  0  0  0
  -30.1859   12.2610  -20.5567 C   0  0  0  0  0  0  0  0  0  0  0  0
  -29.4149   11.2867  -21.4586 C   0  0  0  0  0  0  0  0  0  0  0  0
  -30.4361   10.4678  -22.2133 C   0  0  0  0  0  0  0  0  0  0  0  0
  -31.0895   10.9824  -23.2520 C   0  0  0  0  0  0  0  0  0  0  0  0
  -29.3977   13.6006  -20.5827 C   0  0  0  0  0  0  0  0  0  0  0  0
  -27.8845   13.3365  -20.5026 C   0  0  0  0  0  0  0  0  0  0  0  0
  -32.0922    9.6911  -18.7404 H   0  0  0  0  0  0  0  0  0  0  0  0
  -31.2154   11.6380  -17.3711 H   0  0  0  0  0  0  0  0  0  0  0  0
  -31.6417   14.0054  -18.2994 H   0  0  0  0  0  0  0  0  0  0  0  0
  -33.9129   14.3648  -19.3288 H   0  0  0  0  0  0  0  0  0  0  0  0
  -34.9157   12.2761  -20.4808 H   0  0  0  0  0  0  0  0  0  0  0  0
  -35.0924   12.3672  -18.7435 H   0  0  0  0  0  0  0  0  0  0  0  0
  -32.6902   12.6510  -21.1838 H   0  0  0  0  0  0  0  0  0  0  0  0
  -31.8997   14.0288  -20.7261 H   0  0  0  0  0  0  0  0  0  0  0  0
  -33.4317   14.0696  -21.4025 H   0  0  0  0  0  0  0  0  0  0  0  0
  -33.2884   14.3982  -16.8074 H   0  0  0  0  0  0  0  0  0  0  0  0
  -33.6300   10.9424  -14.8893 H   0  0  0  0  0  0  0  0  0  0  0  0
  -32.6686   10.9332  -16.3471 H   0  0  0  0  0  0  0  0  0  0  0  0
  -34.3630   10.5061  -16.4159 H   0  0  0  0  0  0  0  0  0  0  0  0
  -31.1804   12.3754  -20.9867 H   0  0  0  0  0  0  0  0  0  0  0  0
  -28.8150   10.6464  -20.8628 H   0  0  0  0  0  0  0  0  0  0  0  0
  -28.8165   11.8338  -22.1467 H   0  0  0  0  0  0  0  0  0  0  0  0
  -30.6363    9.4618  -21.9088 H   0  0  0  0  0  0  0  0  0  0  0  0
  -30.8848   11.9919  -23.5531 H   0  0  0  0  0  0  0  0  0  0  0  0
  -31.8075   10.4007  -23.7795 H   0  0  0  0  0  0  0  0  0  0  0  0
  -29.6971   14.2076  -19.7493 H   0  0  0  0  0  0  0  0  0  0  0  0
  -29.6197   14.1282  -21.4945 H   0  0  0  0  0  0  0  0  0  0  0  0
  -27.7160   12.4409  -19.9386 H   0  0  0  0  0  0  0  0  0  0  0  0
  -27.4126   14.1593  -20.0038 H   0  0  0  0  0  0  0  0  0  0  0  0
  -27.4823   13.2283  -21.4824 H   0  0  0  0  0  0  0  0  0  0  0  0
  1  2  1  0  0  0  0
  1  6  2  0  0  0  0
  1 22  1  0  0  0  0
  2  3  1  0  0  0  0
  2 15  1  0  0  0  0
  2 23  1  0  0  0  0
  3  4  1  0  0  0  0
  3 11  1  0  0  0  0
  3 24  1  0  0  0  0
  4  5  1  0  0  0  0
  4 10  1  0  0  0  0
  4 25  1  0  0  0  0
  5  6  1  0  0  0  0
  5 26  1  0  0  0  0
  5 27  1  0  0  0  0
  6  7  1  0  0  0  0
  7  8  2  0  0  0  0
  7  9  1  0  0  0  0
 10 28  1  0  0  0  0
 10 29  1  0  0  0  0
 10 30  1  0  0  0  0
 11 12  1  0  0  0  0
 11 31  1  0  0  0  0
 12 13  1  0  0  0  0
 12 14  2  0  0  0  0
 13 32  1  0  0  0  0
 13 33  1  0  0  0  0
 13 34  1  0  0  0  0
 15 16  1  0  0  0  0
 16 17  1  0  0  0  0
 16 20  1  0  0  0  0
 16 35  1  0  0  0  0
 17 18  1  0  0  0  0
 17 36  1  0  0  0  0
 17 37  1  0  0  0  0
 18 19  2  0  0  0  0
 18 38  1  0  0  0  0
 19 39  1  0  0  0  0
 19 40  1  0  0  0  0
 20 21  1  0  0  0  0
 20 41  1  0  0  0  0
 20 42  1  0  0  0  0
 21 43  1  0  0  0  0
 21 44  1  0  0  0  0
 21 45  1  0  0  0  0
M  END
> <Name>
BDB4995

> <Target>
Neuraminidase A

> <IC50_in_nM>
1

> <Kd_from_ITC>
false

> <source_organism>
Influenza A virus (A/Puerto Rico/8/34/Mount Sinai(H1N1))

> <SourceTag>
NA

> <atoms in reference ligand area>
28

> <score>
-24.7744

$$$$
BDB4997
      BALL 1.4.0 (Jan  4 2012, 23:22:29)

 59 59  0999  0  0  0  0  0  0999 V2000
  -33.3797   10.2250  -18.4002 C   0  0  0  0  0  0  0  0  0  0  0  0
  -33.0738   10.5064  -19.8454 C   0  0  0  0  0  0  0  0  0  0  0  0
  -32.8360   12.0738  -20.0902 C   0  0  0  0  0  0  0  0  0  0  0  0
  -33.7983   13.0138  -19.2834 C   0  0  0  0  0  0  0  0  0  0  0  0
  -33.6512   12.6964  -17.7927 C   0  0  0  0  0  0  0  0  0  0  0  0
  -33.6762   11.1758  -17.4895 C   0  0  0  0  0  0  0  0  0  0  0  0
  -33.9251   10.7248  -16.1273 C   0  0  0  0  0  0  0  0  0  0  0  0
  -33.5079    9.6245  -15.7582 O   0  0  0  0  0  0  0  0  0  0  0  0
  -34.5884   11.5282  -15.2589 O   0  5  0  0  0  0  0  0  0  0  0  0
  -35.1824   12.9291  -19.6038 N   0  3  0  0  0  0  0  0  0  0  0  0
  -31.4165   12.5854  -19.8090 N   0  0  0  0  0  0  0  0  0  0  0  0
  -30.7935   13.9121  -19.9341 C   0  0  0  0  0  0  0  0  0  0  0  0
  -31.4892   15.2353  -20.0633 C   0  0  0  0  0  0  0  0  0  0  0  0
  -29.5598   13.9465  -19.8535 O   0  0  0  0  0  0  0  0  0  0  0  0
  -34.1033    9.7399  -20.6762 O   0  0  0  0  0  0  0  0  0  0  0  0
  -33.6904    8.8257  -21.7263 C   0  0  0  0  0  0  0  0  0  0  0  0
  -33.7702    7.3501  -21.2388 C   0  0  0  0  0  0  0  0  0  0  0  0
  -35.2223    6.8395  -21.2839 C   0  0  0  0  0  0  0  0  0  0  0  0
  -34.6034    8.9103  -22.9608 C   0  0  0  0  0  0  0  0  0  0  0  0
  -33.8139    8.1790  -24.0730 C   0  0  0  0  0  0  0  0  0  0  0  0
  -34.5267    8.1629  -25.4292 C   0  0  0  0  0  0  0  0  0  0  0  0
  -33.6108    7.3702  -26.3862 C   0  0  0  0  0  0  0  0  0  0  0  0
  -34.2755    7.1572  -27.7527 C   0  0  0  0  0  0  0  0  0  0  0  0
  -33.5850    5.9668  -28.4498 C   0  0  0  0  0  0  0  0  0  0  0  0
  -33.8938    5.9932  -29.9562 C   0  0  0  0  0  0  0  0  0  0  0  0
  -33.3611    9.2064  -18.0733 H   0  0  0  0  0  0  0  0  0  0  0  0
  -32.1345   10.0201  -20.1461 H   0  0  0  0  0  0  0  0  0  0  0  0
  -32.9466   12.2570  -21.1672 H   0  0  0  0  0  0  0  0  0  0  0  0
  -33.5062   14.0530  -19.4831 H   0  0  0  0  0  0  0  0  0  0  0  0
  -34.4531   13.1803  -17.2448 H   0  0  0  0  0  0  0  0  0  0  0  0
  -32.7154   13.1160  -17.4301 H   0  0  0  0  0  0  0  0  0  0  0  0
  -35.3276   12.2014  -20.2349 H   0  0  0  0  0  0  0  0  0  0  0  0
  -35.4971   13.8291  -19.9849 H   0  0  0  0  0  0  0  0  0  0  0  0
  -35.7086   12.7202  -18.7505 H   0  0  0  0  0  0  0  0  0  0  0  0
  -30.7808   11.8712  -19.5418 H   0  0  0  0  0  0  0  0  0  0  0  0
  -32.4004   15.0423  -19.4514 H   0  0  0  0  0  0  0  0  0  0  0  0
  -31.8659   15.1615  -21.1096 H   0  0  0  0  0  0  0  0  0  0  0  0
  -30.9960   16.0053  -19.8489 H   0  0  0  0  0  0  0  0  0  0  0  0
  -32.6884    9.0830  -22.0638 H   0  0  0  0  0  0  0  0  0  0  0  0
  -33.4023    7.2864  -20.2311 H   0  0  0  0  0  0  0  0  0  0  0  0
  -33.1549    6.7313  -21.8707 H   0  0  0  0  0  0  0  0  0  0  0  0
  -35.4034    6.2322  -20.4190 H   0  0  0  0  0  0  0  0  0  0  0  0
  -35.3527    6.2417  -22.1645 H   0  0  0  0  0  0  0  0  0  0  0  0
  -35.8968    7.6605  -21.2989 H   0  0  0  0  0  0  0  0  0  0  0  0
  -34.7488    9.9133  -23.2295 H   0  0  0  0  0  0  0  0  0  0  0  0
  -35.5058    8.4044  -22.7730 H   0  0  0  0  0  0  0  0  0  0  0  0
  -32.8395    8.6557  -24.1901 H   0  0  0  0  0  0  0  0  0  0  0  0
  -33.6254    7.1538  -23.7605 H   0  0  0  0  0  0  0  0  0  0  0  0
  -34.6424    9.1503  -25.7843 H   0  0  0  0  0  0  0  0  0  0  0  0
  -35.4589    7.6698  -25.3377 H   0  0  0  0  0  0  0  0  0  0  0  0
  -32.6838    7.9093  -26.5213 H   0  0  0  0  0  0  0  0  0  0  0  0
  -33.3822    6.4116  -25.9494 H   0  0  0  0  0  0  0  0  0  0  0  0
  -34.1602    8.0332  -28.3471 H   0  0  0  0  0  0  0  0  0  0  0  0
  -35.3117    6.9387  -27.6162 H   0  0  0  0  0  0  0  0  0  0  0  0
  -33.9434    5.0494  -28.0294 H   0  0  0  0  0  0  0  0  0  0  0  0
  -32.5234    6.0329  -28.3022 H   0  0  0  0  0  0  0  0  0  0  0  0
  -34.9493    6.0976  -30.1000 H   0  0  0  0  0  0  0  0  0  0  0  0
  -33.5646    5.0773  -30.4018 H   0  0  0  0  0  0  0  0  0  0  0  0
  -33.3866    6.8169  -30.4136 H   0  0  0  0  0  0  0  0  0  0  0  0
  1  2  1  0  0  0  0
  1  6  2  0  0  0  0
  1 26  1  0  0  0  0
  2  3  1  0  0  0  0
  2 15  1  0  0  0  0
  2 27  1  0  0  0  0
  3  4  1  0  0  0  0
  3 11  1  0  0  0  0
  3 28  1  0  0  0  0
  4  5  1  0  0  0  0
  4 10  1  0  0  0  0
  4 29  1  0  0  0  0
  5  6  1  0  0  0  0
  5 30  1  0  0  0  0
  5 31  1  0  0  0  0
  6  7  1  0  0  0  0
  7  8  2  0  0  0  0
  7  9  1  0  0  0  0
 10 32  1  0  0  0  0
 10 33  1  0  0  0  0
 10 34  1  0  0  0  0
 11 12  1  0  0  0  0
 11 35  1  0  0  0  0
 12 13  1  0  0  0  0
 12 14  2  0  0  0  0
 13 36  1  0  0  0  0
 13 37  1  0  0  0  0
 13 38  1  0  0  0  0
 15 16  1  0  0  0  0
 16 19  1  0  0  0  0
 16 17  1  0  0  0  0
 16 39  1  0  0  0  0
 17 18  1  0  0  0  0
 17 40  1  0  0  0  0
 17 41  1  0  0  0  0
 18 42  1  0  0  0  0
 18 43  1  0  0  0  0
 18 44  1  0  0  0  0
 19 20  1  0  0  0  0
 19 45  1  0  0  0  0
 19 46  1  0  0  0  0
 20 21  1  0  0  0  0
 20 47  1  0  0  0  0
 20 48  1  0  0  0  0
 21 22  1  0  0  0  0
 21 49  1  0  0  0  0
 21 50  1  0  0  0  0
 22 23  1  0  0  0  0
 22 51  1  0  0  0  0
 22 52  1  0  0  0  0
 23 24  1  0  0  0  0
 23 53  1  0  0  0  0
 23 54  1  0  0  0  0
 24 25  1  0  0  0  0
 24 55  1  0  0  0  0
 24 56  1  0  0  0  0
 25 57  1  0  0  0  0
 25 58  1  0  0  0  0
 25 59  1  0  0  0  0
M  END
> <Name>
BDB4997

> <Target>
Neuraminidase A

> <IC50_in_nM>
1

> <Kd_from_ITC>
false

> <source_organism>
Influenza A virus (A/Puerto Rico/8/34/Mount Sinai(H1N1))

> <SourceTag>
NA

> <atoms in reference ligand area>
11

> <score>
-24.2214

$$$$
BDB4937
      BALL 1.4.0 (Jan  4 2012, 23:22:29)

 42 42  0999  0  0  0  0  0  0999 V2000
  -31.4889    9.3316  -17.6589 C   0  0  0  0  0  0  0  0  0  0  0  0
  -31.9545   11.5316  -19.2461 C   0  0  0  0  0  0  0  0  0  0  0  0
  -32.9212   10.3678  -19.3745 C   0  0  0  0  0  0  0  0  0  0  0  0
  -32.3452    9.1895  -18.6762 C   0  0  0  0  0  0  0  0  0  0  0  0
  -31.0790   10.5998  -17.1657 O   0  0  0  0  0  0  0  0  0  0  0  0
  -30.9213    8.1282  -17.0488 C   0  0  0  0  0  0  0  0  0  0  0  0
  -30.4259    8.1830  -15.9174 O   0  0  0  0  0  0  0  0  0  0  0  0
  -30.9391    6.9506  -17.7261 O   0  5  0  0  0  0  0  0  0  0  0  0
  -30.9138   12.9922  -17.4979 C   0  0  0  0  0  0  0  0  0  0  0  0
  -31.4843   13.9776  -17.0140 O   0  0  0  0  0  0  0  0  0  0  0  0
  -31.7500   11.7345  -17.7572 C   0  0  0  0  0  0  0  0  0  0  0  0
  -32.5793   12.7263  -19.8300 N   0  0  0  0  0  0  0  0  0  0  0  0
  -32.1602   13.4120  -21.0227 C   0  0  0  0  0  0  0  0  0  0  0  0
  -30.9766   12.9775  -21.8648 C   0  0  0  0  0  0  0  0  0  0  0  0
  -32.7987   14.4079  -21.3801 O   0  0  0  0  0  0  0  0  0  0  0  0
  -33.1680   10.0585  -20.7900 N   0  3  0  0  0  0  0  0  0  0  0  0
  -29.5229   13.1084  -17.8025 N   0  0  0  0  0  0  0  0  0  0  0  0
  -28.8014   14.2388  -17.2752 C   0  0  0  0  0  0  0  0  0  0  0  0
  -27.2805   14.0336  -17.4407 C   0  0  0  0  0  0  0  0  0  0  0  0
  -28.8316   12.1705  -18.6587 C   0  0  0  0  0  0  0  0  0  0  0  0
  -28.2208   12.9139  -19.8674 C   0  0  0  0  0  0  0  0  0  0  0  0
  -31.0002   11.3457  -19.7605 H   0  0  0  0  0  0  0  0  0  0  0  0
  -33.8844   10.6343  -18.9150 H   0  0  0  0  0  0  0  0  0  0  0  0
  -32.6292    8.1785  -19.0032 H   0  0  0  0  0  0  0  0  0  0  0  0
  -32.7439   11.8462  -17.2992 H   0  0  0  0  0  0  0  0  0  0  0  0
  -33.3978   13.1105  -19.3368 H   0  0  0  0  0  0  0  0  0  0  0  0
  -30.1494   13.5917  -21.4793 H   0  0  0  0  0  0  0  0  0  0  0  0
  -31.2139   13.3742  -22.8631 H   0  0  0  0  0  0  0  0  0  0  0  0
  -30.7611   11.8988  -21.8611 H   0  0  0  0  0  0  0  0  0  0  0  0
  -33.8624   10.7214  -21.1633 H   0  0  0  0  0  0  0  0  0  0  0  0
  -33.5390    9.1007  -20.8655 H   0  0  0  0  0  0  0  0  0  0  0  0
  -32.2912   10.1351  -21.3248 H   0  0  0  0  0  0  0  0  0  0  0  0
  -29.0384   14.3571  -16.2076 H   0  0  0  0  0  0  0  0  0  0  0  0
  -29.1065   15.1485  -17.8133 H   0  0  0  0  0  0  0  0  0  0  0  0
  -27.1033   13.1535  -18.0763 H   0  0  0  0  0  0  0  0  0  0  0  0
  -26.8309   13.8625  -16.4514 H   0  0  0  0  0  0  0  0  0  0  0  0
  -26.8305   14.9237  -17.9045 H   0  0  0  0  0  0  0  0  0  0  0  0
  -28.0293   11.6783  -18.0893 H   0  0  0  0  0  0  0  0  0  0  0  0
  -29.5409   11.4105  -19.0181 H   0  0  0  0  0  0  0  0  0  0  0  0
  -27.6527   13.7855  -19.5101 H   0  0  0  0  0  0  0  0  0  0  0  0
  -29.0285   13.2531  -20.5328 H   0  0  0  0  0  0  0  0  0  0  0  0
  -27.5500   12.2378  -20.4178 H   0  0  0  0  0  0  0  0  0  0  0  0
  1  5  1  0  0  0  0
  1  4  2  0  0  0  0
  1  6  1  0  0  0  0
  2 11  1  0  0  0  0
  2  3  1  0  0  0  0
  2 12  1  0  0  0  0
  2 22  1  0  0  0  0
  3  4  1  0  0  0  0
  3 16  1  0  0  0  0
  3 23  1  0  0  0  0
  4 24  1  0  0  0  0
  5 11  1  0  0  0  0
  6  7  2  0  0  0  0
  6  8  1  0  0  0  0
  9 11  1  0  0  0  0
  9 17  1  0  0  0  0
  9 10  2  0  0  0  0
 11 25  1  0  0  0  0
 12 13  1  0  0  0  0
 12 26  1  0  0  0  0
 13 14  1  0  0  0  0
 13 15  2  0  0  0  0
 14 27  1  0  0  0  0
 14 28  1  0  0  0  0
 14 29  1  0  0  0  0
 16 30  1  0  0  0  0
 16 31  1  0  0  0  0
 16 32  1  0  0  0  0
 17 18  1  0  0  0  0
 17 20  1  0  0  0  0
 18 19  1  0  0  0  0
 18 33  1  0  0  0  0
 18 34  1  0  0  0  0
 19 35  1  0  0  0  0
 19 36  1  0  0  0  0
 19 37  1  0  0  0  0
 20 21  1  0  0  0  0
 20 38  1  0  0  0  0
 20 39  1  0  0  0  0
 21 40  1  0  0  0  0
 21 41  1  0  0  0  0
 21 42  1  0  0  0  0
M  END
> <Name>
BDB4937

> <Target>
Neuraminidase A

> <IC50_in_nM>
3

> <Kd_from_ITC>
false

> <source_organism>
Influenza A virus (A/Singapore/1/57(H2N2))

> <SourceTag>
NA

> <atoms in reference ligand area>
24

> <score>
-23.5033

$$$$
BDB5234
      BALL 1.4.0 (Jan  4 2012, 23:22:29)

 46 46  0999  0  0  0  0  0  0999 V2000
  -30.3303    7.8358  -22.3340 C   0  0  0  0  0  0  0  0  0  0  0  0
  -31.4564    8.4232  -21.5252 C   0  0  0  0  0  0  0  0  0  0  0  0
  -32.8497    8.2740  -22.2926 C   0  0  0  0  0  0  0  0  0  0  0  0
  -32.7517    8.4885  -23.8341 C   0  0  0  0  0  0  0  0  0  0  0  0
  -31.7546    7.4861  -24.4124 C   0  0  0  0  0  0  0  0  0  0  0  0
  -30.4365    7.4451  -23.6227 C   0  0  0  0  0  0  0  0  0  0  0  0
  -29.2470    6.8657  -24.2322 C   0  0  0  0  0  0  0  0  0  0  0  0
  -28.2156    6.7390  -23.5736 O   0  0  0  0  0  0  0  0  0  0  0  0
  -29.2931    6.4332  -25.5188 O   0  5  0  0  0  0  0  0  0  0  0  0
  -32.3300    9.7686  -24.2255 N   0  3  0  0  0  0  0  0  0  0  0  0
  -33.5688    6.9258  -22.1135 N   0  0  0  0  0  0  0  0  0  0  0  0
  -34.9070    6.4497  -22.5149 C   0  0  0  0  0  0  0  0  0  0  0  0
  -35.8387    7.0793  -23.5109 C   0  0  0  0  0  0  0  0  0  0  0  0
  -35.2763    5.3762  -22.0241 O   0  0  0  0  0  0  0  0  0  0  0  0
  -30.9024    9.7934  -20.9811 N   0  3  0  0  0  0  0  0  0  0  0  0
  -30.1831   10.8044  -21.8555 C   0  0  0  0  0  0  0  0  0  0  0  0
  -31.1210   11.8066  -22.6058 C   0  0  0  0  0  0  0  0  0  0  0  0
  -32.1105   12.5095  -21.6523 C   0  0  0  0  0  0  0  0  0  0  0  0
  -29.2682   11.6667  -20.9601 C   0  0  0  0  0  0  0  0  0  0  0  0
  -28.7320   12.8732  -21.7681 C   0  0  0  0  0  0  0  0  0  0  0  0
  -29.3805    7.7199  -21.8549 H   0  0  0  0  0  0  0  0  0  0  0  0
  -31.5900    7.8628  -20.5887 H   0  0  0  0  0  0  0  0  0  0  0  0
  -33.5504    8.9922  -21.8474 H   0  0  0  0  0  0  0  0  0  0  0  0
  -33.7458    8.3313  -24.2730 H   0  0  0  0  0  0  0  0  0  0  0  0
  -31.5436    7.7466  -25.4415 H   0  0  0  0  0  0  0  0  0  0  0  0
  -32.2017    6.4972  -24.4100 H   0  0  0  0  0  0  0  0  0  0  0  0
  -32.0548    9.7386  -25.1854 H   0  0  0  0  0  0  0  0  0  0  0  0
  -31.5615   10.0613  -23.6122 H   0  0  0  0  0  0  0  0  0  0  0  0
  -33.1101   10.4241  -24.1275 H   0  0  0  0  0  0  0  0  0  0  0  0
  -33.0521    6.2628  -21.5867 H   0  0  0  0  0  0  0  0  0  0  0  0
  -35.9470    8.0959  -23.0663 H   0  0  0  0  0  0  0  0  0  0  0  0
  -36.7952    6.5785  -23.2322 H   0  0  0  0  0  0  0  0  0  0  0  0
  -35.5940    7.0414  -24.4158 H   0  0  0  0  0  0  0  0  0  0  0  0
  -31.6254   10.2752  -20.4342 H   0  0  0  0  0  0  0  0  0  0  0  0
  -30.1741    9.4848  -20.3275 H   0  0  0  0  0  0  0  0  0  0  0  0
  -29.6619   10.2258  -22.5893 H   0  0  0  0  0  0  0  0  0  0  0  0
  -31.6778   11.2742  -23.3652 H   0  0  0  0  0  0  0  0  0  0  0  0
  -30.5160   12.5553  -23.1057 H   0  0  0  0  0  0  0  0  0  0  0  0
  -32.6095   11.7522  -21.0734 H   0  0  0  0  0  0  0  0  0  0  0  0
  -32.8444   13.0196  -22.2514 H   0  0  0  0  0  0  0  0  0  0  0  0
  -31.6075   13.1845  -21.0264 H   0  0  0  0  0  0  0  0  0  0  0  0
  -28.4450   11.0754  -20.6156 H   0  0  0  0  0  0  0  0  0  0  0  0
  -29.8272   12.0228  -20.1158 H   0  0  0  0  0  0  0  0  0  0  0  0
  -28.3238   12.5270  -22.6949 H   0  0  0  0  0  0  0  0  0  0  0  0
  -27.9665   13.3657  -21.2055 H   0  0  0  0  0  0  0  0  0  0  0  0
  -29.5307   13.5593  -21.9628 H   0  0  0  0  0  0  0  0  0  0  0  0
  1  2  1  0  0  0  0
  1  6  2  0  0  0  0
  1 21  1  0  0  0  0
  2  3  1  0  0  0  0
  2 15  1  0  0  0  0
  2 22  1  0  0  0  0
  3  4  1  0  0  0  0
  3 11  1  0  0  0  0
  3 23  1  0  0  0  0
  4  5  1  0  0  0  0
  4 10  1  0  0  0  0
  4 24  1  0  0  0  0
  5  6  1  0  0  0  0
  5 25  1  0  0  0  0
  5 26  1  0  0  0  0
  6  7  1  0  0  0  0
  7  8  2  0  0  0  0
  7  9  1  0  0  0  0
 10 27  1  0  0  0  0
 10 28  1  0  0  0  0
 10 29  1  0  0  0  0
 11 12  1  0  0  0  0
 11 30  1  0  0  0  0
 12 13  1  0  0  0  0
 12 14  2  0  0  0  0
 13 31  1  0  0  0  0
 13 32  1  0  0  0  0
 13 33  1  0  0  0  0
 15 16  1  0  0  0  0
 15 34  1  0  0  0  0
 15 35  1  0  0  0  0
 16 19  1  0  0  0  0
 16 17  1  0  0  0  0
 16 36  1  0  0  0  0
 17 18  1  0  0  0  0
 17 37  1  0  0  0  0
 17 38  1  0  0  0  0
 18 39  1  0  0  0  0
 18 40  1  0  0  0  0
 18 41  1  0  0  0  0
 19 20  1  0  0  0  0
 19 42  1  0  0  0  0
 19 43  1  0  0  0  0
 20 44  1  0  0  0  0
 20 45  1  0  0  0  0
 20 46  1  0  0  0  0
M  END
> <Name>
BDB5234

> <Target>
Neuraminidase A

> <IC50_in_nM>
11

> <Kd_from_ITC>
false

> <source_organism>
Influenza A virus (A/Puerto Rico/8/34(H1N1))

> <SourceTag>
NA

> <atoms in reference ligand area>
18

> <score>
-23.1101

$$$$
BDB4986
      BALL 1.4.0 (Jan  4 2012, 23:22:29)

 47 47  0999  0  0  0  0  0  0999 V2000
  -33.1791   12.3727  -19.2748 C   0  0  0  0  0  0  0  0  0  0  0  0
  -33.7296   11.4053  -18.2714 C   0  0  0  0  0  0  0  0  0  0  0  0
  -33.1092   11.5667  -16.8544 C   0  0  0  0  0  0  0  0  0  0  0  0
  -31.5530   11.6016  -17.0243 C   0  0  0  0  0  0  0  0  0  0  0  0
  -31.1686   12.8571  -17.8156 C   0  0  0  0  0  0  0  0  0  0  0  0
  -31.9941   13.0163  -19.0886 C   0  0  0  0  0  0  0  0  0  0  0  0
  -31.5884   13.9523  -20.1303 C   0  0  0  0  0  0  0  0  0  0  0  0
  -30.5515   13.7880  -20.7517 O   0  0  0  0  0  0  0  0  0  0  0  0
  -32.4066   15.0043  -20.4233 O   0  5  0  0  0  0  0  0  0  0  0  0
  -31.0007   10.4291  -17.7461 N   0  3  0  0  0  0  0  0  0  0  0  0
  -33.5343   12.7039  -15.9255 N   0  0  0  0  0  0  0  0  0  0  0  0
  -34.4838   12.7647  -14.8172 C   0  0  0  0  0  0  0  0  0  0  0  0
  -35.1499   11.6102  -14.1400 C   0  0  0  0  0  0  0  0  0  0  0  0
  -34.7247   13.8899  -14.3620 O   0  0  0  0  0  0  0  0  0  0  0  0
  -33.3282   10.0765  -18.6900 O   0  0  0  0  0  0  0  0  0  0  0  0
  -33.8728    9.6540  -19.9389 C   0  0  0  0  0  0  0  0  0  0  0  0
  -32.6992    9.2459  -20.8987 C   0  0  0  0  0  0  0  0  0  0  0  0
  -31.7284   10.4278  -21.2322 C   0  0  0  0  0  0  0  0  0  0  0  0
  -30.4595    9.8466  -21.9305 C   0  0  0  0  0  0  0  0  0  0  0  0
  -30.1035   10.6266  -23.2212 C   0  0  0  0  0  0  0  0  0  0  0  0
  -31.1595   10.3242  -24.3134 C   0  0  0  0  0  0  0  0  0  0  0  0
  -33.7365   12.5642  -20.1678 H   0  0  0  0  0  0  0  0  0  0  0  0
  -34.8327   11.4441  -18.2381 H   0  0  0  0  0  0  0  0  0  0  0  0
  -33.3821   10.6613  -16.2980 H   0  0  0  0  0  0  0  0  0  0  0  0
  -31.0967   11.6235  -16.0292 H   0  0  0  0  0  0  0  0  0  0  0  0
  -30.1201   12.8069  -18.0769 H   0  0  0  0  0  0  0  0  0  0  0  0
  -31.3097   13.7308  -17.1886 H   0  0  0  0  0  0  0  0  0  0  0  0
  -30.7167   10.6837  -18.6836 H   0  0  0  0  0  0  0  0  0  0  0  0
  -31.7044    9.6775  -17.7795 H   0  0  0  0  0  0  0  0  0  0  0  0
  -30.1698   10.0964  -17.2477 H   0  0  0  0  0  0  0  0  0  0  0  0
  -33.1129   13.5776  -16.1419 H   0  0  0  0  0  0  0  0  0  0  0  0
  -35.4905   11.0248  -15.0233 H   0  0  0  0  0  0  0  0  0  0  0  0
  -36.0834   12.0968  -13.7790 H   0  0  0  0  0  0  0  0  0  0  0  0
  -34.6471   11.1405  -13.4959 H   0  0  0  0  0  0  0  0  0  0  0  0
  -34.5151    8.8120  -19.7828 H   0  0  0  0  0  0  0  0  0  0  0  0
  -34.4278   10.4544  -20.3764 H   0  0  0  0  0  0  0  0  0  0  0  0
  -33.1148    8.8568  -21.8245 H   0  0  0  0  0  0  0  0  0  0  0  0
  -32.1301    8.4367  -20.4417 H   0  0  0  0  0  0  0  0  0  0  0  0
  -31.4441   10.9219  -20.3320 H   0  0  0  0  0  0  0  0  0  0  0  0
  -32.2145   11.1150  -21.8899 H   0  0  0  0  0  0  0  0  0  0  0  0
  -30.6316    8.8100  -22.1784 H   0  0  0  0  0  0  0  0  0  0  0  0
  -29.6228    9.8913  -21.2453 H   0  0  0  0  0  0  0  0  0  0  0  0
  -29.1379   10.3244  -23.5668 H   0  0  0  0  0  0  0  0  0  0  0  0
  -30.0966   11.6782  -23.0131 H   0  0  0  0  0  0  0  0  0  0  0  0
  -31.8631   11.1279  -24.3637 H   0  0  0  0  0  0  0  0  0  0  0  0
  -31.6721    9.4165  -24.0745 H   0  0  0  0  0  0  0  0  0  0  0  0
  -30.6716   10.2179  -25.2638 H   0  0  0  0  0  0  0  0  0  0  0  0
  1  2  1  0  0  0  0
  1  6  2  0  0  0  0
  1 22  1  0  0  0  0
  2  3  1  0  0  0  0
  2 15  1  0  0  0  0
  2 23  1  0  0  0  0
  3  4  1  0  0  0  0
  3 11  1  0  0  0  0
  3 24  1  0  0  0  0
  4  5  1  0  0  0  0
  4 10  1  0  0  0  0
  4 25  1  0  0  0  0
  5  6  1  0  0  0  0
  5 26  1  0  0  0  0
  5 27  1  0  0  0  0
  6  7  1  0  0  0  0
  7  8  2  0  0  0  0
  7  9  1  0  0  0  0
 10 28  1  0  0  0  0
 10 29  1  0  0  0  0
 10 30  1  0  0  0  0
 11 12  1  0  0  0  0
 11 31  1  0  0  0  0
 12 13  1  0  0  0  0
 12 14  2  0  0  0  0
 13 32  1  0  0  0  0
 13 33  1  0  0  0  0
 13 34  1  0  0  0  0
 15 16  1  0  0  0  0
 16 17  1  0  0  0  0
 16 35  1  0  0  0  0
 16 36  1  0  0  0  0
 17 18  1  0  0  0  0
 17 37  1  0  0  0  0
 17 38  1  0  0  0  0
 18 19  1  0  0  0  0
 18 39  1  0  0  0  0
 18 40  1  0  0  0  0
 19 20  1  0  0  0  0
 19 41  1  0  0  0  0
 19 42  1  0  0  0  0
 20 21  1  0  0  0  0
 20 43  1  0  0  0  0
 20 44  1  0  0  0  0
 21 45  1  0  0  0  0
 21 46  1  0  0  0  0
 21 47  1  0  0  0  0
M  END
> <Name>
BDB4986

> <Target>
Neuraminidase A

> <IC50_in_nM>
150

> <Kd_from_ITC>
false

> <source_organism>
Influenza A virus (A/Puerto Rico/8/34/Mount Sinai(H1N1))

> <SourceTag>
NA

> <atoms in reference ligand area>
18

> <score>
-23.0458

$$$$
BDB4972
      BALL 1.4.0 (Jan  4 2012, 23:22:29)

 65 67  0999  0  0  0  0  0  0999 V2000
  -37.4264    5.5046  -13.3776 C   0  0  0  0  0  0  0  0  0  0  0  0
  -38.2309    8.1331  -13.5163 C   0  0  0  0  0  0  0  0  0  0  0  0
  -38.9840    7.2280  -12.5578 C   0  0  0  0  0  0  0  0  0  0  0  0
  -38.6097    5.8178  -12.8391 C   0  0  0  0  0  0  0  0  0  0  0  0
  -36.4450    6.4786  -13.7060 O   0  0  0  0  0  0  0  0  0  0  0  0
  -37.1426    4.0996  -13.6744 C   0  0  0  0  0  0  0  0  0  0  0  0
  -36.1733    3.5399  -13.1494 O   0  0  0  0  0  0  0  0  0  0  0  0
  -37.9449    3.4104  -14.5272 O   0  5  0  0  0  0  0  0  0  0  0  0
  -35.8903    8.8004  -14.1017 C   0  0  0  0  0  0  0  0  0  0  0  0
  -36.2057    9.9955  -14.1033 O   0  0  0  0  0  0  0  0  0  0  0  0
  -36.7610    7.8291  -13.3007 C   0  0  0  0  0  0  0  0  0  0  0  0
  -38.5081    9.5304  -13.1568 N   0  0  0  0  0  0  0  0  0  0  0  0
  -37.7877   10.3239  -12.1978 C   0  0  0  0  0  0  0  0  0  0  0  0
  -36.6054    9.8052  -11.4029 C   0  0  0  0  0  0  0  0  0  0  0  0
  -38.1516   11.4902  -12.0118 O   0  0  0  0  0  0  0  0  0  0  0  0
  -40.4342    7.4158  -12.7057 N   0  3  0  0  0  0  0  0  0  0  0  0
  -34.2523    9.3308  -15.8588 C   0  0  0  0  0  0  0  0  0  0  0  0
  -34.0491   10.7400  -15.2623 C   0  0  0  0  0  0  0  0  0  0  0  0
  -33.3015   11.6021  -16.2363 C   0  0  0  0  0  0  0  0  0  0  0  0
  -32.9948   11.1171  -17.5019 C   0  0  0  0  0  0  0  0  0  0  0  0
  -32.9108   12.8841  -15.8691 C   0  0  0  0  0  0  0  0  0  0  0  0
  -32.2129   13.6818  -16.7678 C   0  0  0  0  0  0  0  0  0  0  0  0
  -34.7461    8.4095  -14.8629 N   0  0  0  0  0  0  0  0  0  0  0  0
  -34.0826    7.1331  -14.6833 C   0  0  0  0  0  0  0  0  0  0  0  0
  -32.7498    7.3174  -13.9192 C   0  0  0  0  0  0  0  0  0  0  0  0
  -32.0312    8.5723  -14.4449 C   0  0  0  0  0  0  0  0  0  0  0  0
  -31.9059   13.1972  -18.0337 C   0  0  0  0  0  0  0  0  0  0  0  0
  -32.2969   11.9150  -18.4005 C   0  0  0  0  0  0  0  0  0  0  0  0
  -31.9728   11.4039  -19.7360 C   0  0  0  0  0  0  0  0  0  0  0  0
  -30.3406   10.8179  -21.4056 C   0  0  0  0  0  0  0  0  0  0  0  0
  -31.3616   10.4347  -22.2682 C   0  0  0  0  0  0  0  0  0  0  0  0
  -32.6871   10.5359  -21.8648 C   0  0  0  0  0  0  0  0  0  0  0  0
  -32.9928   11.0209  -20.5979 C   0  0  0  0  0  0  0  0  0  0  0  0
  -30.6460   11.3025  -20.1400 C   0  0  0  0  0  0  0  0  0  0  0  0
  -38.5240    7.9740  -14.5646 H   0  0  0  0  0  0  0  0  0  0  0  0
  -38.7155    7.4810  -11.5215 H   0  0  0  0  0  0  0  0  0  0  0  0
  -39.3214    5.0142  -12.5994 H   0  0  0  0  0  0  0  0  0  0  0  0
  -36.5543    7.9420  -12.2262 H   0  0  0  0  0  0  0  0  0  0  0  0
  -39.2957    9.9866  -13.6390 H   0  0  0  0  0  0  0  0  0  0  0  0
  -36.8998    9.9870  -10.3587 H   0  0  0  0  0  0  0  0  0  0  0  0
  -35.8087   10.5298  -11.6276 H   0  0  0  0  0  0  0  0  0  0  0  0
  -36.3191    8.7621  -11.6029 H   0  0  0  0  0  0  0  0  0  0  0  0
  -40.7459    8.1533  -12.0577 H   0  0  0  0  0  0  0  0  0  0  0  0
  -40.9134    6.5346  -12.4719 H   0  0  0  0  0  0  0  0  0  0  0  0
  -40.6568    7.6866  -13.6741 H   0  0  0  0  0  0  0  0  0  0  0  0
  -34.9725    9.3892  -16.6882 H   0  0  0  0  0  0  0  0  0  0  0  0
  -33.2928    8.9611  -16.2497 H   0  0  0  0  0  0  0  0  0  0  0  0
  -33.4748   10.6633  -14.3272 H   0  0  0  0  0  0  0  0  0  0  0  0
  -35.0291   11.1927  -15.0511 H   0  0  0  0  0  0  0  0  0  0  0  0
  -33.3042   10.1022  -17.7923 H   0  0  0  0  0  0  0  0  0  0  0  0
  -33.1539   13.2674  -14.8672 H   0  0  0  0  0  0  0  0  0  0  0  0
  -31.9034   14.6967  -16.4774 H   0  0  0  0  0  0  0  0  0  0  0  0
  -33.8787    6.6863  -15.6675 H   0  0  0  0  0  0  0  0  0  0  0  0
  -34.7387    6.4592  -14.1128 H   0  0  0  0  0  0  0  0  0  0  0  0
  -32.1104    6.4363  -14.0765 H   0  0  0  0  0  0  0  0  0  0  0  0
  -32.9557    7.4358  -12.8452 H   0  0  0  0  0  0  0  0  0  0  0  0
  -31.3730    8.2972  -15.2822 H   0  0  0  0  0  0  0  0  0  0  0  0
  -31.4312    9.0190  -13.6384 H   0  0  0  0  0  0  0  0  0  0  0  0
  -32.7768    9.3028  -14.7920 H   0  0  0  0  0  0  0  0  0  0  0  0
  -31.3534   13.8285  -18.7452 H   0  0  0  0  0  0  0  0  0  0  0  0
  -29.2912   10.7376  -21.7255 H   0  0  0  0  0  0  0  0  0  0  0  0
  -31.1197   10.0510  -23.2703 H   0  0  0  0  0  0  0  0  0  0  0  0
  -33.4946   10.2326  -22.5473 H   0  0  0  0  0  0  0  0  0  0  0  0
  -34.0421   11.1011  -20.2781 H   0  0  0  0  0  0  0  0  0  0  0  0
  -29.8385   11.6059  -19.4574 H   0  0  0  0  0  0  0  0  0  0  0  0
  1  5  1  0  0  0  0
  1  4  2  0  0  0  0
  1  6  1  0  0  0  0
  2 11  1  0  0  0  0
  2  3  1  0  0  0  0
  2 12  1  0  0  0  0
  2 35  1  0  0  0  0
  3  4  1  0  0  0  0
  3 16  1  0  0  0  0
  3 36  1  0  0  0  0
  4 37  1  0  0  0  0
  5 11  1  0  0  0  0
  6  7  2  0  0  0  0
  6  8  1  0  0  0  0
  9 11  1  0  0  0  0
  9 23  1  0  0  0  0
  9 10  2  0  0  0  0
 11 38  1  0  0  0  0
 12 13  1  0  0  0  0
 12 39  1  0  0  0  0
 13 14  1  0  0  0  0
 13 15  2  0  0  0  0
 14 40  1  0  0  0  0
 14 41  1  0  0  0  0
 14 42  1  0  0  0  0
 16 43  1  0  0  0  0
 16 44  1  0  0  0  0
 16 45  1  0  0  0  0
 17 23  1  0  0  0  0
 17 18  1  0  0  0  0
 17 46  1  0  0  0  0
 17 47  1  0  0  0  0
 18 19  1  0  0  0  0
 18 48  1  0  0  0  0
 18 49  1  0  0  0  0
 19 20  2  0  0  0  0
 19 21  1  0  0  0  0
 20 28  1  0  0  0  0
 20 50  1  0  0  0  0
 21 22  2  0  0  0  0
 21 51  1  0  0  0  0
 22 27  1  0  0  0  0
 22 52  1  0  0  0  0
 23 24  1  0  0  0  0
 24 25  1  0  0  0  0
 24 53  1  0  0  0  0
 24 54  1  0  0  0  0
 25 26  1  0  0  0  0
 25 55  1  0  0  0  0
 25 56  1  0  0  0  0
 26 57  1  0  0  0  0
 26 58  1  0  0  0  0
 26 59  1  0  0  0  0
 27 28  2  0  0  0  0
 27 60  1  0  0  0  0
 28 29  1  0  0  0  0
 29 33  2  0  0  0  0
 29 34  1  0  0  0  0
 30 31  1  0  0  0  0
 30 34  2  0  0  0  0
 30 61  1  0  0  0  0
 31 32  2  0  0  0  0
 31 62  1  0  0  0  0
 32 33  1  0  0  0  0
 32 63  1  0  0  0  0
 33 64  1  0  0  0  0
 34 65  1  0  0  0  0
M  END
> <Name>
BDB4972

> <Target>
Neuraminidase A

> <IC50_in_nM>
2

> <Kd_from_ITC>
false

> <source_organism>
Influenza A virus (A/Singapore/1/57(H2N2))

> <SourceTag>
NA

> <atoms in reference ligand area>
14

> <score>
-22.2617

$$$$
BDB5232
      BALL 1.4.0 (Jan  4 2012, 23:22:29)

 49 49  0999  0  0  0  0  0  0999 V2000
  -33.1430    8.6064  -20.5326 C   0  0  0  0  0  0  0  0  0  0  0  0
  -34.1498    9.5464  -19.8970 C   0  0  0  0  0  0  0  0  0  0  0  0
  -35.6244    9.0655  -20.2235 C   0  0  0  0  0  0  0  0  0  0  0  0
  -35.8419    8.4942  -21.6787 C   0  0  0  0  0  0  0  0  0  0  0  0
  -34.9142    7.2947  -21.8378 C   0  0  0  0  0  0  0  0  0  0  0  0
  -33.4619    7.6262  -21.4093 C   0  0  0  0  0  0  0  0  0  0  0  0
  -32.3715    6.7835  -21.8812 C   0  0  0  0  0  0  0  0  0  0  0  0
  -32.4168    6.2932  -23.0110 O   0  0  0  0  0  0  0  0  0  0  0  0
  -31.2868    6.5782  -21.0916 O   0  5  0  0  0  0  0  0  0  0  0  0
  -35.5982    9.3653  -22.8198 N   0  3  0  0  0  0  0  0  0  0  0  0
  -36.2099    8.0142  -19.2794 N   0  0  0  0  0  0  0  0  0  0  0  0
  -37.5921    7.6626  -18.9207 C   0  0  0  0  0  0  0  0  0  0  0  0
  -38.8534    8.1299  -19.5871 C   0  0  0  0  0  0  0  0  0  0  0  0
  -37.7275    6.8547  -17.9944 O   0  0  0  0  0  0  0  0  0  0  0  0
  -32.4934   11.3480  -20.6007 C   0  0  0  0  0  0  0  0  0  0  0  0
  -33.8650   11.0411  -20.2535 N   0  3  0  0  0  0  0  0  0  0  0  0
  -34.2724   11.9798  -19.1535 C   0  0  0  0  0  0  0  0  0  0  0  0
  -33.1478   12.3167  -18.1428 C   0  0  0  0  0  0  0  0  0  0  0  0
  -33.7775   12.6782  -16.7855 C   0  0  0  0  0  0  0  0  0  0  0  0
  -32.3626   12.5549  -21.5345 C   0  0  0  0  0  0  0  0  0  0  0  0
  -33.1338   13.7311  -20.9009 C   0  0  0  0  0  0  0  0  0  0  0  0
  -32.1126    8.7265  -20.2703 H   0  0  0  0  0  0  0  0  0  0  0  0
  -34.0644    9.5429  -18.8003 H   0  0  0  0  0  0  0  0  0  0  0  0
  -36.2799    9.9313  -20.0604 H   0  0  0  0  0  0  0  0  0  0  0  0
  -36.8920    8.1840  -21.7515 H   0  0  0  0  0  0  0  0  0  0  0  0
  -34.9161    6.9769  -22.8697 H   0  0  0  0  0  0  0  0  0  0  0  0
  -35.2849    6.4750  -21.2356 H   0  0  0  0  0  0  0  0  0  0  0  0
  -35.7730    8.8770  -23.6676 H   0  0  0  0  0  0  0  0  0  0  0  0
  -34.6347    9.7336  -22.7863 H   0  0  0  0  0  0  0  0  0  0  0  0
  -36.2612   10.1480  -22.7764 H   0  0  0  0  0  0  0  0  0  0  0  0
  -35.5242    7.4847  -18.7956 H   0  0  0  0  0  0  0  0  0  0  0  0
  -38.4667    9.0105  -20.1505 H   0  0  0  0  0  0  0  0  0  0  0  0
  -39.3769    8.5942  -18.7195 H   0  0  0  0  0  0  0  0  0  0  0  0
  -39.3407    7.4976  -20.0811 H   0  0  0  0  0  0  0  0  0  0  0  0
  -31.9317   11.5407  -19.6892 H   0  0  0  0  0  0  0  0  0  0  0  0
  -32.0457   10.4815  -21.0760 H   0  0  0  0  0  0  0  0  0  0  0  0
  -34.4618   11.2613  -21.0616 H   0  0  0  0  0  0  0  0  0  0  0  0
  -35.1162   11.5470  -18.6127 H   0  0  0  0  0  0  0  0  0  0  0  0
  -34.6392   12.9098  -19.5993 H   0  0  0  0  0  0  0  0  0  0  0  0
  -32.5796   13.1464  -18.5036 H   0  0  0  0  0  0  0  0  0  0  0  0
  -32.5074   11.4663  -18.0239 H   0  0  0  0  0  0  0  0  0  0  0  0
  -34.3458   11.8496  -16.4204 H   0  0  0  0  0  0  0  0  0  0  0  0
  -34.4170   13.5271  -16.9003 H   0  0  0  0  0  0  0  0  0  0  0  0
  -32.9992   12.9125  -16.0817 H   0  0  0  0  0  0  0  0  0  0  0  0
  -32.7847   12.3219  -22.4817 H   0  0  0  0  0  0  0  0  0  0  0  0
  -31.3349   12.8169  -21.6387 H   0  0  0  0  0  0  0  0  0  0  0  0
  -32.9390   14.6332  -21.4352 H   0  0  0  0  0  0  0  0  0  0  0  0
  -32.8567   13.8480  -19.8777 H   0  0  0  0  0  0  0  0  0  0  0  0
  -34.1983   13.5208  -20.9506 H   0  0  0  0  0  0  0  0  0  0  0  0
  1  2  1  0  0  0  0
  1  6  2  0  0  0  0
  1 22  1  0  0  0  0
  2  3  1  0  0  0  0
  2 16  1  0  0  0  0
  2 23  1  0  0  0  0
  3  4  1  0  0  0  0
  3 11  1  0  0  0  0
  3 24  1  0  0  0  0
  4  5  1  0  0  0  0
  4 10  1  0  0  0  0
  4 25  1  0  0  0  0
  5  6  1  0  0  0  0
  5 26  1  0  0  0  0
  5 27  1  0  0  0  0
  6  7  1  0  0  0  0
  7  8  2  0  0  0  0
  7  9  1  0  0  0  0
 10 28  1  0  0  0  0
 10 29  1  0  0  0  0
 10 30  1  0  0  0  0
 11 12  1  0  0  0  0
 11 31  1  0  0  0  0
 12 13  1  0  0  0  0
 12 14  2  0  0  0  0
 13 32  1  0  0  0  0
 13 33  1  0  0  0  0
 13 34  1  0  0  0  0
 15 16  1  0  0  0  0
 15 20  1  0  0  0  0
 15 35  1  0  0  0  0
 15 36  1  0  0  0  0
 16 17  1  0  0  0  0
 16 37  1  0  0  0  0
 17 18  1  0  0  0  0
 17 38  1  0  0  0  0
 17 39  1  0  0  0  0
 18 19  1  0  0  0  0
 18 40  1  0  0  0  0
 18 41  1  0  0  0  0
 19 42  1  0  0  0  0
 19 43  1  0  0  0  0
 19 44  1  0  0  0  0
 20 21  1  0  0  0  0
 20 45  1  0  0  0  0
 20 46  1  0  0  0  0
 21 47  1  0  0  0  0
 21 48  1  0  0  0  0
 21 49  1  0  0  0  0
M  END
> <Name>
BDB5232

> <Target>
Neuraminidase A

> <IC50_in_nM>
12

> <Kd_from_ITC>
false

> <source_organism>
Influenza A virus (A/Puerto Rico/8/34(H1N1))

> <SourceTag>
NA

> <atoms in reference ligand area>
15

> <score>
-21.8626

$$$$
BDB5233
      BALL 1.4.0 (Jan  4 2012, 23:22:29)

 40 40  0999  0  0  0  0  0  0999 V2000
  -30.7269   13.2636  -20.5862 C   0  0  0  0  0  0  0  0  0  0  0  0
  -31.7683   13.2933  -19.4931 C   0  0  0  0  0  0  0  0  0  0  0  0
  -31.2402   12.5618  -18.1936 C   0  0  0  0  0  0  0  0  0  0  0  0
  -30.3748   11.2670  -18.4470 C   0  0  0  0  0  0  0  0  0  0  0  0
  -29.1695   11.6930  -19.2839 C   0  0  0  0  0  0  0  0  0  0  0  0
  -29.5846   12.5408  -20.5198 C   0  0  0  0  0  0  0  0  0  0  0  0
  -28.6577   12.6657  -21.6363 C   0  0  0  0  0  0  0  0  0  0  0  0
  -27.7730   13.5244  -21.6090 O   0  0  0  0  0  0  0  0  0  0  0  0
  -28.7385   11.8036  -22.6806 O   0  5  0  0  0  0  0  0  0  0  0  0
  -30.9802   10.1224  -19.1226 N   0  3  0  0  0  0  0  0  0  0  0  0
  -30.4029   13.4227  -17.2447 N   0  0  0  0  0  0  0  0  0  0  0  0
  -29.4666   14.5365  -17.4769 C   0  0  0  0  0  0  0  0  0  0  0  0
  -29.2262   15.2765  -18.7614 C   0  0  0  0  0  0  0  0  0  0  0  0
  -28.8365   14.9344  -16.4905 O   0  0  0  0  0  0  0  0  0  0  0  0
  -33.0959   12.7927  -20.0708 N   0  3  0  0  0  0  0  0  0  0  0  0
  -33.4839   11.4677  -19.6660 C   0  0  0  0  0  0  0  0  0  0  0  0
  -34.8261   11.0327  -20.2434 C   0  0  0  0  0  0  0  0  0  0  0  0
  -34.5570    9.8916  -21.2479 C   0  0  0  0  0  0  0  0  0  0  0  0
  -30.9023   13.8484  -21.4648 H   0  0  0  0  0  0  0  0  0  0  0  0
  -32.0084   14.3241  -19.1920 H   0  0  0  0  0  0  0  0  0  0  0  0
  -32.1213   12.3110  -17.5882 H   0  0  0  0  0  0  0  0  0  0  0  0
  -30.0545   10.8983  -17.4648 H   0  0  0  0  0  0  0  0  0  0  0  0
  -28.6392   10.8129  -19.6189 H   0  0  0  0  0  0  0  0  0  0  0  0
  -28.4932   12.2719  -18.6659 H   0  0  0  0  0  0  0  0  0  0  0  0
  -31.5511   10.4248  -19.8704 H   0  0  0  0  0  0  0  0  0  0  0  0
  -31.5126    9.5511  -18.4475 H   0  0  0  0  0  0  0  0  0  0  0  0
  -30.2288    9.5532  -19.5289 H   0  0  0  0  0  0  0  0  0  0  0  0
  -30.4917   13.1679  -16.2902 H   0  0  0  0  0  0  0  0  0  0  0  0
  -28.2039   15.6789  -18.5693 H   0  0  0  0  0  0  0  0  0  0  0  0
  -29.8807   16.1654  -18.6030 H   0  0  0  0  0  0  0  0  0  0  0  0
  -29.3471   14.8040  -19.5620 H   0  0  0  0  0  0  0  0  0  0  0  0
  -33.8383   13.4567  -19.8096 H   0  0  0  0  0  0  0  0  0  0  0  0
  -33.0109   12.7782  -21.0958 H   0  0  0  0  0  0  0  0  0  0  0  0
  -32.7168   10.7627  -19.9783 H   0  0  0  0  0  0  0  0  0  0  0  0
  -33.5343   11.4284  -18.5831 H   0  0  0  0  0  0  0  0  0  0  0  0
  -35.2807   11.8498  -20.7468 H   0  0  0  0  0  0  0  0  0  0  0  0
  -35.4545   10.6781  -19.4605 H   0  0  0  0  0  0  0  0  0  0  0  0
  -33.5154    9.6683  -21.2884 H   0  0  0  0  0  0  0  0  0  0  0  0
  -34.9105   10.1575  -22.2178 H   0  0  0  0  0  0  0  0  0  0  0  0
  -35.0890    9.0016  -20.9178 H   0  0  0  0  0  0  0  0  0  0  0  0
  1  2  1  0  0  0  0
  1  6  2  0  0  0  0
  1 19  1  0  0  0  0
  2  3  1  0  0  0  0
  2 15  1  0  0  0  0
  2 20  1  0  0  0  0
  3  4  1  0  0  0  0
  3 11  1  0  0  0  0
  3 21  1  0  0  0  0
  4  5  1  0  0  0  0
  4 10  1  0  0  0  0
  4 22  1  0  0  0  0
  5  6  1  0  0  0  0
  5 23  1  0  0  0  0
  5 24  1  0  0  0  0
  6  7  1  0  0  0  0
  7  8  2  0  0  0  0
  7  9  1  0  0  0  0
 10 25  1  0  0  0  0
 10 26  1  0  0  0  0
 10 27  1  0  0  0  0
 11 12  1  0  0  0  0
 11 28  1  0  0  0  0
 12 13  1  0  0  0  0
 12 14  2  0  0  0  0
 13 29  1  0  0  0  0
 13 30  1  0  0  0  0
 13 31  1  0  0  0  0
 15 16  1  0  0  0  0
 15 32  1  0  0  0  0
 15 33  1  0  0  0  0
 16 17  1  0  0  0  0
 16 34  1  0  0  0  0
 16 35  1  0  0  0  0
 17 18  1  0  0  0  0
 17 36  1  0  0  0  0
 17 37  1  0  0  0  0
 18 38  1  0  0  0  0
 18 39  1  0  0  0  0
 18 40  1  0  0  0  0
M  END
> <Name>
BDB5233

> <Target>
Neuraminidase A

> <IC50_in_nM>
200

> <Kd_from_ITC>
false

> <source_organism>
Influenza A virus (A/Puerto Rico/8/34(H1N1))

> <SourceTag>
NA

> <atoms in reference ligand area>
22

> <score>
-21.7343

$$$$
BDB4968
      BALL 1.4.0 (Jan  4 2012, 23:22:29)

 55 56  0999  0  0  0  0  0  0999 V2000
  -34.2856    9.7784  -15.8232 C   0  0  0  0  0  0  0  0  0  0  0  0
  -33.3564   11.3456  -17.8862 C   0  0  0  0  0  0  0  0  0  0  0  0
  -33.5438   12.0163  -16.5371 C   0  0  0  0  0  0  0  0  0  0  0  0
  -34.3159   11.1046  -15.6538 C   0  0  0  0  0  0  0  0  0  0  0  0
  -33.5154    9.1465  -16.8366 O   0  0  0  0  0  0  0  0  0  0  0  0
  -35.1094    8.9423  -14.9486 C   0  0  0  0  0  0  0  0  0  0  0  0
  -34.9774    7.7131  -14.9640 O   0  0  0  0  0  0  0  0  0  0  0  0
  -36.0193    9.5173  -14.1196 O   0  5  0  0  0  0  0  0  0  0  0  0
  -32.2730    9.3336  -18.9014 C   0  0  0  0  0  0  0  0  0  0  0  0
  -31.3706    9.8355  -19.5811 O   0  0  0  0  0  0  0  0  0  0  0  0
  -32.6614   10.0288  -17.5984 C   0  0  0  0  0  0  0  0  0  0  0  0
  -32.4902   12.1946  -18.7154 N   0  0  0  0  0  0  0  0  0  0  0  0
  -32.8781   12.9082  -19.9022 C   0  0  0  0  0  0  0  0  0  0  0  0
  -34.2816   12.8776  -20.4750 C   0  0  0  0  0  0  0  0  0  0  0  0
  -32.0223   13.5820  -20.4860 O   0  0  0  0  0  0  0  0  0  0  0  0
  -34.2448   13.2986  -16.6936 N   0  3  0  0  0  0  0  0  0  0  0  0
  -33.1397    8.0663  -20.8188 C   0  0  0  0  0  0  0  0  0  0  0  0
  -34.3865    7.2170  -21.1456 C   0  0  0  0  0  0  0  0  0  0  0  0
  -34.7342    7.3574  -22.5989 C   0  0  0  0  0  0  0  0  0  0  0  0
  -35.2363    6.3618  -24.7314 C   0  0  0  0  0  0  0  0  0  0  0  0
  -34.9096    6.2278  -23.3877 C   0  0  0  0  0  0  0  0  0  0  0  0
  -34.8854    8.6236  -23.1531 C   0  0  0  0  0  0  0  0  0  0  0  0
  -35.2122    8.7577  -24.4971 C   0  0  0  0  0  0  0  0  0  0  0  0
  -32.9034    8.1507  -19.3947 N   0  0  0  0  0  0  0  0  0  0  0  0
  -33.2771    7.0384  -18.5345 C   0  0  0  0  0  0  0  0  0  0  0  0
  -34.6408    7.2942  -17.8448 C   0  0  0  0  0  0  0  0  0  0  0  0
  -35.3736    8.4328  -18.5794 C   0  0  0  0  0  0  0  0  0  0  0  0
  -35.3875    7.6268  -25.2858 C   0  0  0  0  0  0  0  0  0  0  0  0
  -35.7914    7.7906  -26.9466 Cl  0  0  0  0  0  0  0  0  0  0  0  0
  -34.7226    4.6645  -22.7026 Cl  0  0  0  0  0  0  0  0  0  0  0  0
  -34.3081   11.1897  -18.4154 H   0  0  0  0  0  0  0  0  0  0  0  0
  -32.5617   12.2221  -16.0864 H   0  0  0  0  0  0  0  0  0  0  0  0
  -34.9257   11.5297  -14.8431 H   0  0  0  0  0  0  0  0  0  0  0  0
  -31.7582   10.2532  -17.0120 H   0  0  0  0  0  0  0  0  0  0  0  0
  -31.5087   12.2880  -18.4173 H   0  0  0  0  0  0  0  0  0  0  0  0
  -34.3472   11.8818  -20.9378 H   0  0  0  0  0  0  0  0  0  0  0  0
  -34.2349   13.5989  -21.3043 H   0  0  0  0  0  0  0  0  0  0  0  0
  -35.0915   13.0832  -19.7596 H   0  0  0  0  0  0  0  0  0  0  0  0
  -35.1951   13.2122  -16.3059 H   0  0  0  0  0  0  0  0  0  0  0  0
  -34.3072   13.5280  -17.6958 H   0  0  0  0  0  0  0  0  0  0  0  0
  -33.7329   14.0421  -16.1977 H   0  0  0  0  0  0  0  0  0  0  0  0
  -32.2605    7.6174  -21.3043 H   0  0  0  0  0  0  0  0  0  0  0  0
  -33.2786    9.0806  -21.2212 H   0  0  0  0  0  0  0  0  0  0  0  0
  -34.1788    6.1606  -20.9205 H   0  0  0  0  0  0  0  0  0  0  0  0
  -35.2339    7.5589  -20.5332 H   0  0  0  0  0  0  0  0  0  0  0  0
  -35.3751    5.4670  -25.3560 H   0  0  0  0  0  0  0  0  0  0  0  0
  -34.7466    9.5182  -22.5281 H   0  0  0  0  0  0  0  0  0  0  0  0
  -35.3322    9.7589  -24.9368 H   0  0  0  0  0  0  0  0  0  0  0  0
  -32.5033    6.8990  -17.7654 H   0  0  0  0  0  0  0  0  0  0  0  0
  -33.3432    6.1210  -19.1380 H   0  0  0  0  0  0  0  0  0  0  0  0
  -34.4751    7.5814  -16.7959 H   0  0  0  0  0  0  0  0  0  0  0  0
  -35.2504    6.3794  -17.8851 H   0  0  0  0  0  0  0  0  0  0  0  0
  -34.8565    9.3858  -18.3942 H   0  0  0  0  0  0  0  0  0  0  0  0
  -36.4099    8.5006  -18.2167 H   0  0  0  0  0  0  0  0  0  0  0  0
  -35.3792    8.2260  -19.6597 H   0  0  0  0  0  0  0  0  0  0  0  0
  1  5  1  0  0  0  0
  1  4  2  0  0  0  0
  1  6  1  0  0  0  0
  2 11  1  0  0  0  0
  2  3  1  0  0  0  0
  2 12  1  0  0  0  0
  2 31  1  0  0  0  0
  3  4  1  0  0  0  0
  3 16  1  0  0  0  0
  3 32  1  0  0  0  0
  4 33  1  0  0  0  0
  5 11  1  0  0  0  0
  6  7  2  0  0  0  0
  6  8  1  0  0  0  0
  9 11  1  0  0  0  0
  9 24  1  0  0  0  0
  9 10  2  0  0  0  0
 11 34  1  0  0  0  0
 12 13  1  0  0  0  0
 12 35  1  0  0  0  0
 13 14  1  0  0  0  0
 13 15  2  0  0  0  0
 14 36  1  0  0  0  0
 14 37  1  0  0  0  0
 14 38  1  0  0  0  0
 16 39  1  0  0  0  0
 16 40  1  0  0  0  0
 16 41  1  0  0  0  0
 17 24  1  0  0  0  0
 17 18  1  0  0  0  0
 17 42  1  0  0  0  0
 17 43  1  0  0  0  0
 18 19  1  0  0  0  0
 18 44  1  0  0  0  0
 18 45  1  0  0  0  0
 19 21  2  0  0  0  0
 19 22  1  0  0  0  0
 20 28  2  0  0  0  0
 20 21  1  0  0  0  0
 20 46  1  0  0  0  0
 21 30  1  0  0  0  0
 22 23  2  0  0  0  0
 22 47  1  0  0  0  0
 23 28  1  0  0  0  0
 23 48  1  0  0  0  0
 24 25  1  0  0  0  0
 25 26  1  0  0  0  0
 25 49  1  0  0  0  0
 25 50  1  0  0  0  0
 26 27  1  0  0  0  0
 26 51  1  0  0  0  0
 26 52  1  0  0  0  0
 27 53  1  0  0  0  0
 27 54  1  0  0  0  0
 27 55  1  0  0  0  0
 28 29  1  0  0  0  0
M  END
> <Name>
BDB4968

> <Target>
Neuraminidase A

> <IC50_in_nM>
6

> <Kd_from_ITC>
false

> <source_organism>
Influenza A virus (A/Singapore/1/57(H2N2))

> <SourceTag>
NA

> <atoms in reference ligand area>
10

> <score>
-18.0967

$$$$
BDB5021
      BALL 1.4.0 (Jan  4 2012, 23:22:29)

 47 47  0999  0  0  0  0  0  0999 V2000
  -31.7021   10.6104  -23.2478 C   0  0  0  0  0  0  0  0  0  0  0  0
  -30.4879   10.2174  -21.1524 C   0  0  0  0  0  0  0  0  0  0  0  0
  -30.2603   10.6515  -22.6275 C   0  0  0  0  0  0  0  0  0  0  0  0
  -29.4777    9.5504  -23.2887 C   0  0  0  0  0  0  0  0  0  0  0  0
  -29.3946    9.5059  -24.5211 O   0  0  0  0  0  0  0  0  0  0  0  0
  -28.8628    8.6058  -22.5312 O   0  5  0  0  0  0  0  0  0  0  0  0
  -32.5759   10.0837  -22.0949 C   0  0  0  0  0  0  0  0  0  0  0  0
  -31.6206    9.2133  -21.3172 C   0  0  0  0  0  0  0  0  0  0  0  0
  -33.0143    9.3086  -20.5037 C   0  0  0  0  0  0  0  0  0  0  0  0
  -33.0192    7.9290  -19.6412 N   0  0  0  0  0  0  0  0  0  0  0  0
  -34.4303    8.0828  -19.3447 C   0  0  0  0  0  0  0  0  0  0  0  0
  -35.2159    9.3628  -19.5421 C   0  0  0  0  0  0  0  0  0  0  0  0
  -35.0404    7.0922  -18.9230 O   0  0  0  0  0  0  0  0  0  0  0  0
  -32.7040   10.4580  -19.3296 C   0  0  0  0  0  0  0  0  0  0  0  0
  -33.6499   11.5710  -18.8380 C   0  0  0  0  0  0  0  0  0  0  0  0
  -33.3433   11.8942  -17.3658 C   0  0  0  0  0  0  0  0  0  0  0  0
  -34.3013   12.9945  -16.8737 C   0  0  0  0  0  0  0  0  0  0  0  0
  -33.7577    9.3857  -22.5592 N   0  0  0  0  0  0  0  0  0  0  0  0
  -33.8840    8.8889  -23.8767 C   0  0  0  0  0  0  0  0  0  0  0  0
  -32.8667    8.8817  -24.6379 N   0  3  0  0  0  0  0  0  0  0  0  0
  -35.1059    8.4043  -24.3615 N   0  0  0  0  0  0  0  0  0  0  0  0
  -31.7295    9.9108  -24.0961 H   0  0  0  0  0  0  0  0  0  0  0  0
  -32.0196   11.6239  -23.5345 H   0  0  0  0  0  0  0  0  0  0  0  0
  -29.5886    9.7238  -20.7553 H   0  0  0  0  0  0  0  0  0  0  0  0
  -30.8175   11.0746  -20.5471 H   0  0  0  0  0  0  0  0  0  0  0  0
  -29.7517   11.6210  -22.7342 H   0  0  0  0  0  0  0  0  0  0  0  0
  -33.0066   10.8845  -21.4759 H   0  0  0  0  0  0  0  0  0  0  0  0
  -31.3445    8.2578  -21.7872 H   0  0  0  0  0  0  0  0  0  0  0  0
  -33.8813    9.5061  -21.1512 H   0  0  0  0  0  0  0  0  0  0  0  0
  -32.6365    6.9846  -19.4909 H   0  0  0  0  0  0  0  0  0  0  0  0
  -35.4974    9.6391  -18.5153 H   0  0  0  0  0  0  0  0  0  0  0  0
  -36.1406    9.0118  -20.0234 H   0  0  0  0  0  0  0  0  0  0  0  0
  -34.7048   10.1655  -20.0940 H   0  0  0  0  0  0  0  0  0  0  0  0
  -32.2464   10.7611  -20.2829 H   0  0  0  0  0  0  0  0  0  0  0  0
  -31.9155   10.2903  -18.5811 H   0  0  0  0  0  0  0  0  0  0  0  0
  -33.5027   12.4737  -19.4490 H   0  0  0  0  0  0  0  0  0  0  0  0
  -34.6930   11.2337  -18.9287 H   0  0  0  0  0  0  0  0  0  0  0  0
  -32.3048   12.2455  -17.2747 H   0  0  0  0  0  0  0  0  0  0  0  0
  -33.4801   10.9895  -16.7552 H   0  0  0  0  0  0  0  0  0  0  0  0
  -33.7246   13.7939  -16.3857 H   0  0  0  0  0  0  0  0  0  0  0  0
  -35.0155   12.5666  -16.1548 H   0  0  0  0  0  0  0  0  0  0  0  0
  -34.8513   13.4117  -17.7302 H   0  0  0  0  0  0  0  0  0  0  0  0
  -34.5385    9.2459  -21.9020 H   0  0  0  0  0  0  0  0  0  0  0  0
  -31.9587    9.2332  -24.3020 H   0  0  0  0  0  0  0  0  0  0  0  0
  -32.9531    8.5209  -25.5987 H   0  0  0  0  0  0  0  0  0  0  0  0
  -35.9270    8.4126  -23.7397 H   0  0  0  0  0  0  0  0  0  0  0  0
  -35.1853    8.0448  -25.3234 H   0  0  0  0  0  0  0  0  0  0  0  0
  1  7  1  0  0  0  0
  1  3  1  0  0  0  0
  1 22  1  0  0  0  0
  1 23  1  0  0  0  0
  2  8  1  0  0  0  0
  2  3  1  0  0  0  0
  2 24  1  0  0  0  0
  2 25  1  0  0  0  0
  3  4  1  0  0  0  0
  3 26  1  0  0  0  0
  4  6  1  0  0  0  0
  4  5  2  0  0  0  0
  7  8  1  0  0  0  0
  7 18  1  0  0  0  0
  7 27  1  0  0  0  0
  8  9  1  0  0  0  0
  8 28  1  0  0  0  0
  9 10  1  0  0  0  0
  9 14  1  0  0  0  0
  9 29  1  0  0  0  0
 10 11  1  0  0  0  0
 10 30  1  0  0  0  0
 11 12  1  0  0  0  0
 11 13  2  0  0  0  0
 12 31  1  0  0  0  0
 12 32  1  0  0  0  0
 12 33  1  0  0  0  0
 14 15  1  0  0  0  0
 14 34  1  0  0  0  0
 14 35  1  0  0  0  0
 15 16  1  0  0  0  0
 15 36  1  0  0  0  0
 15 37  1  0  0  0  0
 16 17  1  0  0  0  0
 16 38  1  0  0  0  0
 16 39  1  0  0  0  0
 17 40  1  0  0  0  0
 17 41  1  0  0  0  0
 17 42  1  0  0  0  0
 18 19  1  0  0  0  0
 18 43  1  0  0  0  0
 19 20  2  0  0  0  0
 19 21  1  0  0  0  0
 20 44  1  0  0  0  0
 20 45  1  0  0  0  0
 21 46  1  0  0  0  0
 21 47  1  0  0  0  0
M  END
> <Name>
BDB5021

> <Target>
Neuraminidase A

> <IC50_in_nM>
13

> <Kd_from_ITC>
false

> <source_organism>
Influenza A virus (A/Singapore/1/57(H2N2))

> <SourceTag>
NA

> <atoms in reference ligand area>
12

> <score>
2e+10

$$$$
