ZINC17969353
 OpenBabel01091702103D

 23 24  0  0  1  0  0  0  0  0999 V2000
  -29.2430   13.1380  -17.3590 N   0  0  0  0  0  0  0  0  0  0  0  0
  -30.4160   13.4750  -17.8480 C   0  0  0  0  0  0  0  0  0  0  0  0
  -31.4570   12.3920  -17.9570 C   0  0  2  0  0  0  0  0  0  0  0  0
  -31.5120   11.9330  -19.4020 C   0  0  0  0  0  0  0  0  0  0  0  0
  -30.4260   11.4450  -20.0220 O   0  0  0  0  0  0  0  0  0  0  0  0
  -32.6630   12.0320  -20.0230 N   0  0  0  0  0  0  0  0  0  0  0  0
  -33.7550   12.5130  -19.4310 C   0  0  0  0  0  0  0  0  0  0  0  0
  -33.8190   12.9430  -18.1870 N   0  0  0  0  0  0  0  0  0  0  0  0
  -32.7560   12.9240  -17.3790 C   0  0  0  0  0  0  0  0  0  0  0  0
  -32.8250   13.3180  -16.2310 O   0  0  0  0  0  0  0  0  0  0  0  0
  -34.8860   12.5700  -20.1640 O   0  0  0  0  0  0  0  0  0  0  0  0
  -34.9620   12.0600  -20.9460 H   0  0  0  0  0  0  0  0  0  0  0  0
  -28.1600   14.1710  -17.2230 C   0  0  0  0  0  0  0  0  0  0  0  0
  -28.2740   15.1500  -18.3920 C   0  0  0  0  0  0  0  0  0  0  0  0
  -27.6250   13.8310  -21.8610 C   0  0  0  0  0  0  0  0  0  0  0  0
  -26.8840   12.6120  -21.4820 N   0  0  0  0  0  0  0  0  0  0  0  0
  -27.5500   11.8910  -21.2020 H   0  0  0  0  0  0  0  0  0  0  0  0
  -26.3370   12.2890  -22.2790 H   0  0  0  0  0  0  0  0  0  0  0  0
  -25.9800   12.8950  -20.3520 C   0  0  0  0  0  0  0  0  0  0  0  0
  -26.7950   13.3910  -19.1550 C   0  0  0  0  0  0  0  0  0  0  0  0
  -27.5180   14.6180  -19.5470 N   0  0  0  0  0  0  0  0  0  0  0  0
  -26.8420   15.3190  -19.8500 H   0  0  0  0  0  0  0  0  0  0  0  0
  -28.4410   14.3260  -20.6630 C   0  0  0  0  0  0  0  0  0  0  0  0
  1 13  1  0  0  0  0
  2  1  2  0  0  0  0
  3  2  1  6  0  0  0
  3  9  1  0  0  0  0
  4  3  1  0  0  0  0
  5  4  2  0  0  0  0
  6  7  1  0  0  0  0
  6  4  1  0  0  0  0
  7  8  2  0  0  0  0
  8  9  1  0  0  0  0
  9 10  2  0  0  0  0
 11  7  1  0  0  0  0
 12 11  1  0  0  0  0
 14 13  1  0  0  0  0
 15 16  1  0  0  0  0
 15 23  1  0  0  0  0
 16 17  1  0  0  0  0
 16 19  1  0  0  0  0
 18 16  1  0  0  0  0
 19 20  1  0  0  0  0
 21 20  1  0  0  0  0
 21 14  1  0  0  0  0
 22 21  1  0  0  0  0
 23 21  1  0  0  0  0
M  END
>  <MODEL>
1

>  <REMARK>
 VINA RESULT:      -7.3      0.000      0.000
  Name = ZINC17969353
                            x       y       z     vdW  Elec       q    Type
                         _______ _______ _______ _____ _____    ______ ____

>  <TORSDO>
F 5

>  <vina_score>
-7.3

$$$$
ZINC04642041
 OpenBabel01091701573D

 25 26  0  0  1  0  0  0  0  0999 V2000
  -32.6610   11.1330  -19.0180 C   0  0  1  0  0  0  0  0  0  0  0  0
  -33.4630   11.1680  -20.3050 C   0  0  0  0  0  0  0  0  0  0  0  0
  -32.8000   11.4510  -21.4470 N   0  0  0  0  0  0  0  0  0  0  0  0
  -33.2990   11.4800  -22.2950 H   0  0  0  0  0  0  0  0  0  0  0  0
  -31.4850   11.6940  -21.4590 C   0  0  0  0  0  0  0  0  0  0  0  0
  -30.6960   11.6860  -20.3780 N   0  0  0  0  0  0  0  0  0  0  0  0
  -30.9680   11.9400  -22.5310 O   0  0  0  0  0  0  0  0  0  0  0  0
  -34.6560   10.9510  -20.3090 O   0  0  0  0  0  0  0  0  0  0  0  0
  -31.1760   11.4180  -19.1450 C   0  0  0  0  0  0  0  0  0  0  0  0
  -30.4500   11.4090  -18.1750 O   0  0  0  0  0  0  0  0  0  0  0  0
  -33.5500   13.3550  -18.4930 C   0  0  0  0  0  0  0  0  0  0  0  0
  -33.2560   12.1400  -18.0670 C   0  0  0  0  0  0  0  0  0  0  0  0
  -33.4770   11.7230  -16.7220 N   0  0  0  0  0  0  0  0  0  0  0  0
  -33.5930   10.7780  -16.4730 H   0  0  0  0  0  0  0  0  0  0  0  0
  -33.5190   12.8360  -15.7100 C   0  0  0  0  0  0  0  0  0  0  0  0
  -34.6930   12.5450  -14.7730 C   0  0  0  0  0  0  0  0  0  0  0  0
  -34.6780   13.4730  -13.6870 O   0  0  0  0  0  0  0  0  0  0  0  0
  -33.9510   14.1030  -13.8110 H   0  0  0  0  0  0  0  0  0  0  0  0
  -29.2680   11.9700  -20.5380 C   0  0  0  0  0  0  0  0  0  0  0  0
  -28.9080   13.2000  -19.7460 C   0  0  0  0  0  0  0  0  0  0  0  0
  -27.8690   13.1570  -18.8350 C   0  0  0  0  0  0  0  0  0  0  0  0
  -27.5400   14.2860  -18.1080 C   0  0  0  0  0  0  0  0  0  0  0  0
  -28.2500   15.4580  -18.2920 C   0  0  0  0  0  0  0  0  0  0  0  0
  -29.2900   15.5010  -19.2010 C   0  0  0  0  0  0  0  0  0  0  0  0
  -29.6190   14.3710  -19.9290 C   0  0  0  0  0  0  0  0  0  0  0  0
  1 12  1  1  0  0  0
  2  1  1  0  0  0  0
  3  2  1  0  0  0  0
  4  3  1  0  0  0  0
  5  3  1  0  0  0  0
  5  6  1  0  0  0  0
  6  9  1  0  0  0  0
  7  5  2  0  0  0  0
  8  2  2  0  0  0  0
  9  1  1  0  0  0  0
  9 10  2  0  0  0  0
 11 12  1  0  0  0  0
 12 13  2  0  0  0  0
 13 14  1  0  0  0  0
 13 15  1  0  0  0  0
 15 16  1  0  0  0  0
 16 17  1  0  0  0  0
 18 17  1  0  0  0  0
 19  6  1  0  0  0  0
 19 20  1  0  0  0  0
 20 21  1  0  0  0  0
 21 22  2  0  0  0  0
 23 22  1  0  0  0  0
 24 23  2  0  0  0  0
 25 20  2  0  0  0  0
 25 24  1  0  0  0  0
M  END
>  <MODEL>
1

>  <REMARK>
 VINA RESULT:      -7.1      0.000      0.000
  Name = ZINC04642041
                            x       y       z     vdW  Elec       q    Type
                         _______ _______ _______ _____ _____    ______ ____

>  <TORSDO>
F 7

>  <vina_score>
-7.1

$$$$
ZINC01646936
 OpenBabel01091702073D

 26 27  0  0  1  0  0  0  0  0999 V2000
  -29.7010   14.4450  -18.5170 C   0  0  0  0  0  0  0  0  0  0  0  0
  -28.6310   14.9900  -19.0350 N   0  0  0  0  0  0  0  0  0  0  0  0
  -28.2810   14.3350  -20.1480 C   0  0  0  0  0  0  0  0  0  0  0  0
  -29.1940   13.3060  -20.3270 C   0  0  0  0  0  0  0  0  0  0  0  0
  -30.0880   13.4020  -19.2710 N   0  0  0  0  0  0  0  0  0  0  0  0
  -31.2390   12.5290  -19.0240 C   0  0  2  0  0  0  0  0  0  0  0  0
  -32.4340   13.0150  -19.8480 C   0  0  1  0  0  0  0  0  0  0  0  0
  -33.6490   12.1340  -19.5390 C   0  0  1  0  0  0  0  0  0  0  0  0
  -33.9260   12.1760  -18.0330 C   0  0  1  0  0  0  0  0  0  0  0  0
  -32.6720   11.7230  -17.2790 C   0  0  0  0  0  0  0  0  0  0  0  0
  -31.5730   12.5640  -17.6350 O   0  0  0  0  0  0  0  0  0  0  0  0
  -32.7290   14.3710  -19.5100 O   0  0  0  0  0  0  0  0  0  0  0  0
  -32.0940   14.6830  -18.8460 H   0  0  0  0  0  0  0  0  0  0  0  0
  -34.7880   12.6250  -20.2490 O   0  0  0  0  0  0  0  0  0  0  0  0
  -34.8200   13.5920  -20.1790 H   0  0  0  0  0  0  0  0  0  0  0  0
  -34.2600   13.5100  -17.6460 O   0  0  0  0  0  0  0  0  0  0  0  0
  -35.1990   13.5540  -17.4110 H   0  0  0  0  0  0  0  0  0  0  0  0
  -29.2090   12.3220  -21.4070 C   0  0  0  0  0  0  0  0  0  0  0  0
  -29.6680   11.0770  -21.1780 N   0  0  0  0  0  0  0  0  0  0  0  0
  -29.6790   10.4140  -21.9050 H   0  0  0  0  0  0  0  0  0  0  0  0
  -29.9930   10.8290  -20.2820 H   0  0  0  0  0  0  0  0  0  0  0  0
  -28.8070   12.6290  -22.5150 O   0  0  0  0  0  0  0  0  0  0  0  0
  -27.1970   14.6270  -20.9710 N   0  0  0  0  0  0  0  0  0  0  0  0
  -27.2800   15.3180  -21.6670 H   0  0  0  0  0  0  0  0  0  0  0  0
  -26.0350   13.9630  -20.8150 C   0  0  0  0  0  0  0  0  0  0  0  0
  -25.9350   13.1080  -19.9610 O   0  0  0  0  0  0  0  0  0  0  0  0
  2  1  2  0  0  0  0
  3  2  1  0  0  0  0
  4  3  2  0  0  0  0
  4  5  1  0  0  0  0
  5  1  1  0  0  0  0
  6  5  1  1  0  0  0
  6 11  1  0  0  0  0
  7  8  1  0  0  0  0
  7 12  1  1  0  0  0
  7  6  1  0  0  0  0
  8 14  1  6  0  0  0
  8  9  1  0  0  0  0
  9 16  1  1  0  0  0
  9 10  1  0  0  0  0
 11 10  1  0  0  0  0
 12 13  1  0  0  0  0
 14 15  1  0  0  0  0
 16 17  1  0  0  0  0
 18 19  1  0  0  0  0
 18  4  1  0  0  0  0
 19 21  1  0  0  0  0
 20 19  1  0  0  0  0
 22 18  2  0  0  0  0
 23 25  1  0  0  0  0
 23  3  1  0  0  0  0
 24 23  1  0  0  0  0
 25 26  2  0  0  0  0
M  END
>  <MODEL>
1

>  <REMARK>
 VINA RESULT:      -7.0      0.000      0.000
  Name = ZINC01646936
                            x       y       z     vdW  Elec       q    Type
                         _______ _______ _______ _____ _____    ______ ____

>  <TORSDO>
F 6

>  <vina_score>
-7.0

$$$$
ZINC20189813
 OpenBabel01091701533D

 25 26  0  0  0  0  0  0  0  0999 V2000
  -29.9900   13.0440  -20.3990 C   0  0  0  0  0  0  0  0  0  0  0  0
  -28.7550   12.6960  -19.8880 C   0  0  0  0  0  0  0  0  0  0  0  0
  -28.0400   13.6020  -19.1260 C   0  0  0  0  0  0  0  0  0  0  0  0
  -28.5630   14.8560  -18.8690 C   0  0  0  0  0  0  0  0  0  0  0  0
  -29.7960   15.2100  -19.3800 C   0  0  0  0  0  0  0  0  0  0  0  0
  -30.5140   14.3030  -20.1460 C   0  0  0  0  0  0  0  0  0  0  0  0
  -30.9000   11.8890  -21.3700 S   0  0  0  0  0  0  0  0  0  0  0  0
  -29.9560   10.9560  -21.8800 O   0  0  0  0  0  0  0  0  0  0  0  0
  -31.7510   12.6510  -22.2150 O   0  0  0  0  0  0  0  0  0  0  0  0
  -31.8850   11.0490  -20.3380 N   0  0  0  0  0  0  0  0  0  0  0  0
  -33.1160   12.7850  -16.7530 C   0  0  0  0  0  0  0  0  0  0  0  0
  -33.8560   12.9840  -17.9100 C   0  0  0  0  0  0  0  0  0  0  0  0
  -33.4490   12.4090  -19.0980 C   0  0  0  0  0  0  0  0  0  0  0  0
  -32.2990   11.6330  -19.1350 C   0  0  0  0  0  0  0  0  0  0  0  0
  -31.5620   11.4290  -17.9750 C   0  0  0  0  0  0  0  0  0  0  0  0
  -31.9670   12.0100  -16.7900 C   0  0  0  0  0  0  0  0  0  0  0  0
  -34.6210   12.7380  -14.9120 C   0  0  0  0  0  0  0  0  0  0  0  0
  -33.5180   13.3510  -15.5850 O   0  0  0  0  0  0  0  0  0  0  0  0
  -31.7310   14.6470  -20.6470 O   0  0  0  0  0  0  0  0  0  0  0  0
  -32.2390   15.9340  -20.2890 C   0  0  0  0  0  0  0  0  0  0  0  0
  -26.6920   13.2210  -18.5710 C   0  0  0  0  0  0  0  0  0  0  0  0
  -25.7550   12.9870  -19.6780 N   0  0  0  0  0  0  0  0  0  0  0  0
  -25.7190   13.8140  -20.2730 H   0  0  0  0  0  0  0  0  0  0  0  0
  -24.8260   12.7970  -19.3020 H   0  0  0  0  0  0  0  0  0  0  0  0
  -26.0700   12.1860  -20.2260 H   0  0  0  0  0  0  0  0  0  0  0  0
  1  6  2  0  0  0  0
  1  2  1  0  0  0  0
  2  3  2  0  0  0  0
  3  4  1  0  0  0  0
  3 21  1  0  0  0  0
  5  4  2  0  0  0  0
  6  5  1  0  0  0  0
  7  1  1  0  0  0  0
  7 10  1  0  0  0  0
  8  7  2  0  0  0  0
  9  7  2  0  0  0  0
 10 14  1  0  0  0  0
 11 18  1  0  0  0  0
 12 11  2  0  0  0  0
 13 12  1  0  0  0  0
 14 13  2  0  0  0  0
 14 15  1  0  0  0  0
 15 16  2  0  0  0  0
 16 11  1  0  0  0  0
 18 17  1  0  0  0  0
 19 20  1  0  0  0  0
 19  6  1  0  0  0  0
 22 24  1  0  0  0  0
 22 21  1  0  0  0  0
 23 22  1  0  0  0  0
 25 22  1  0  0  0  0
M  END
>  <MODEL>
1

>  <REMARK>
 VINA RESULT:      -7.0      0.000      0.000
  Name = ZINC20189813
                            x       y       z     vdW  Elec       q    Type
                         _______ _______ _______ _____ _____    ______ ____

>  <TORSDO>
F 7

>  <vina_score>
-7.0

$$$$
ZINC06536724
 OpenBabel01091701543D

 22 24  0  0  1  0  0  0  0  0999 V2000
  -29.1770   13.4640  -20.4420 C   0  0  0  0  0  0  0  0  0  0  0  0
  -27.9130   13.1090  -20.5640 N   0  0  0  0  0  0  0  0  0  0  0  0
  -27.0440   13.1130  -19.5470 C   0  0  0  0  0  0  0  0  0  0  0  0
  -27.4410   13.1640  -18.2740 N   0  0  0  0  0  0  0  0  0  0  0  0
  -28.7210   13.4200  -18.0540 C   0  0  2  0  0  0  0  0  0  0  0  0
  -29.5320   13.0660  -17.0930 N   0  0  0  0  0  0  0  0  0  0  0  0
  -30.8090   13.1430  -17.4810 C   0  0  0  0  0  0  0  0  0  0  0  0
  -30.9550   13.6400  -18.6790 N   0  0  0  0  0  0  0  0  0  0  0  0
  -29.6220   14.0130  -19.1220 C   0  0  2  0  0  0  0  0  0  0  0  0
  -30.0420   13.3300  -21.4700 N   0  0  0  0  0  0  0  0  0  0  0  0
  -30.3240   14.1220  -21.9830 H   0  0  0  0  0  0  0  0  0  0  0  0
  -30.5600   12.0060  -21.8240 C   0  0  0  0  0  0  0  0  0  0  0  0
  -33.6080   11.0080  -20.0090 C   0  0  0  0  0  0  0  0  0  0  0  0
  -32.2560   10.8040  -20.3640 C   0  0  0  0  0  0  0  0  0  0  0  0
  -31.9120   11.8100  -21.1880 C   0  0  0  0  0  0  0  0  0  0  0  0
  -32.9770   12.6140  -21.3410 O   0  0  0  0  0  0  0  0  0  0  0  0
  -34.0090   12.1330  -20.6290 C   0  0  0  0  0  0  0  0  0  0  0  0
  -25.7030   13.0590  -19.8220 N   0  0  0  0  0  0  0  0  0  0  0  0
  -25.0760   13.6420  -19.3350 H   0  0  0  0  0  0  0  0  0  0  0  0
  -25.2340   12.1940  -20.7700 N   0  0  0  0  0  0  0  0  0  0  0  0
  -24.9770   12.7150  -21.6090 H   0  0  0  0  0  0  0  0  0  0  0  0
  -24.4150   11.7050  -20.4090 H   0  0  0  0  0  0  0  0  0  0  0  0
  2  1  2  0  0  0  0
  2  3  1  0  0  0  0
  3  4  2  0  0  0  0
  5  4  1  6  0  0  0
  5  6  1  0  0  0  0
  7  6  1  0  0  0  0
  8  7  1  0  0  0  0
  9  1  1  6  0  0  0
  9  8  1  0  0  0  0
  9  5  1  0  0  0  0
 10  1  1  0  0  0  0
 11 10  1  0  0  0  0
 12 10  1  0  0  0  0
 12 15  1  0  0  0  0
 14 13  1  0  0  0  0
 15 14  2  0  0  0  0
 16 15  1  0  0  0  0
 16 17  1  0  0  0  0
 17 13  2  0  0  0  0
 18  3  1  0  0  0  0
 18 19  1  0  0  0  0
 20 22  1  0  0  0  0
 20 18  1  0  0  0  0
 21 20  1  0  0  0  0
M  END
>  <MODEL>
1

>  <REMARK>
 VINA RESULT:      -7.0      0.000      0.000
  Name = ZINC06536724
                            x       y       z     vdW  Elec       q    Type
                         _______ _______ _______ _____ _____    ______ ____

>  <TORSDO>
F 5

>  <vina_score>
-7.0

$$$$
ZINC03627636
 OpenBabel01091702133D

 29 30  0  0  0  0  0  0  0  0999 V2000
  -29.8060   12.7750  -20.7940 C   0  0  0  0  0  0  0  0  0  0  0  0
  -28.6200   12.6560  -21.4590 C   0  0  0  0  0  0  0  0  0  0  0  0
  -28.8190   11.9030  -22.5550 N   0  0  0  0  0  0  0  0  0  0  0  0
  -30.0530   11.5420  -22.6110 N   0  0  0  0  0  0  0  0  0  0  0  0
  -30.7210   12.0760  -21.5000 N   0  0  0  0  0  0  0  0  0  0  0  0
  -32.0760   11.9180  -21.1870 C   0  0  0  0  0  0  0  0  0  0  0  0
  -33.0850   12.9810  -21.1850 C   0  0  0  0  0  0  0  0  0  0  0  0
  -34.2320   12.4580  -20.8490 N   0  0  0  0  0  0  0  0  0  0  0  0
  -34.0260   11.0750  -20.6160 O   0  0  0  0  0  0  0  0  0  0  0  0
  -32.6540   10.8030  -20.8400 N   0  0  0  0  0  0  0  0  0  0  0  0
  -32.8610   14.3170  -21.4970 N   0  0  0  0  0  0  0  0  0  0  0  0
  -32.2090   14.8410  -20.9770 H   0  0  0  0  0  0  0  0  0  0  0  0
  -33.3540   14.7400  -22.2360 H   0  0  0  0  0  0  0  0  0  0  0  0
  -27.3370   13.2590  -21.0480 C   0  0  0  0  0  0  0  0  0  0  0  0
  -26.4150   12.5110  -20.4110 N   0  0  0  0  0  0  0  0  0  0  0  0
  -26.5970   11.5620  -20.2210 H   0  0  0  0  0  0  0  0  0  0  0  0
  -27.1130   14.4310  -21.2830 O   0  0  0  0  0  0  0  0  0  0  0  0
  -25.2270   13.0680  -20.0290 N   0  0  0  0  0  0  0  0  0  0  0  0
  -24.9050   13.7100  -20.7540 H   0  0  0  0  0  0  0  0  0  0  0  0
  -25.3570   13.5800  -19.1560 H   0  0  0  0  0  0  0  0  0  0  0  0
  -30.0480   13.5370  -19.5160 C   0  0  0  0  0  0  0  0  0  0  0  0
  -29.6670   12.7030  -18.3690 N   0  0  0  0  0  0  0  0  0  0  0  0
  -29.1940   11.8730  -18.7280 H   0  0  0  0  0  0  0  0  0  0  0  0
  -28.7270   13.4130  -17.4910 C   0  0  0  0  0  0  0  0  0  0  0  0
  -27.2850   15.3910  -17.9920 C   0  0  0  0  0  0  0  0  0  0  0  0
  -28.7260   14.9020  -17.8450 C   0  0  0  0  0  0  0  0  0  0  0  0
  -30.8520   12.2610  -17.6220 C   0  0  0  0  0  0  0  0  0  0  0  0
  -32.0090   13.2270  -17.8830 C   0  0  0  0  0  0  0  0  0  0  0  0
  -33.2870   12.6770  -17.2470 C   0  0  0  0  0  0  0  0  0  0  0  0
  1 21  1  0  0  0  0
  2 14  1  0  0  0  0
  2  1  2  0  0  0  0
  3  2  1  0  0  0  0
  4  3  2  0  0  0  0
  4  5  1  0  0  0  0
  5  6  1  0  0  0  0
  5  1  1  0  0  0  0
  6  7  1  0  0  0  0
  6 10  2  0  0  0  0
  7  8  2  0  0  0  0
  8  9  1  0  0  0  0
 10  9  1  0  0  0  0
 11  7  1  0  0  0  0
 11 12  1  0  0  0  0
 13 11  1  0  0  0  0
 14 15  1  0  0  0  0
 15 16  1  0  0  0  0
 15 18  1  0  0  0  0
 17 14  2  0  0  0  0
 18 20  1  0  0  0  0
 19 18  1  0  0  0  0
 21 22  1  0  0  0  0
 22 27  1  0  0  0  0
 22 24  1  0  0  0  0
 23 22  1  0  0  0  0
 25 26  1  0  0  0  0
 26 24  1  0  0  0  0
 28 27  1  0  0  0  0
 28 29  1  0  0  0  0
M  END
>  <MODEL>
1

>  <REMARK>
 VINA RESULT:      -6.9      0.000      0.000
  Name = ZINC03627636
                            x       y       z     vdW  Elec       q    Type
                         _______ _______ _______ _____ _____    ______ ____

>  <TORSDO>
F 10

>  <vina_score>
-6.9

$$$$
ZINC06315906
 OpenBabel01091702063D

 28 30  0  0  0  0  0  0  0  0999 V2000
  -31.4510   12.0450  -19.1200 C   0  0  0  0  0  0  0  0  0  0  0  0
  -31.8770   12.0120  -17.7950 C   0  0  0  0  0  0  0  0  0  0  0  0
  -33.1210   11.4780  -17.6820 N   0  0  0  0  0  0  0  0  0  0  0  0
  -33.5830   11.1130  -19.0280 C   0  0  0  0  0  0  0  0  0  0  0  0
  -32.4510   11.5090  -19.9520 C   0  0  0  0  0  0  0  0  0  0  0  0
  -32.4130   11.3870  -21.1610 O   0  0  0  0  0  0  0  0  0  0  0  0
  -26.4680   14.4600  -21.4380 C   0  0  0  0  0  0  0  0  0  0  0  0
  -25.8590   13.7330  -20.4250 C   0  0  0  0  0  0  0  0  0  0  0  0
  -26.6140   12.9660  -19.5660 C   0  0  0  0  0  0  0  0  0  0  0  0
  -28.0030   12.9190  -19.7140 C   0  0  0  0  0  0  0  0  0  0  0  0
  -28.6140   13.6580  -20.7410 C   0  0  0  0  0  0  0  0  0  0  0  0
  -29.9720   13.4120  -20.6410 N   0  0  0  0  0  0  0  0  0  0  0  0
  -30.6770   13.7800  -21.2210 H   0  0  0  0  0  0  0  0  0  0  0  0
  -30.1520   12.5620  -19.5810 C   0  0  0  0  0  0  0  0  0  0  0  0
  -28.9890   12.2730  -19.0420 N   0  0  0  0  0  0  0  0  0  0  0  0
  -27.8370   14.4250  -21.5980 C   0  0  0  0  0  0  0  0  0  0  0  0
  -33.8360   11.3020  -16.4900 N   0  0  0  0  0  0  0  0  0  0  0  0
  -34.0480   10.3940  -16.1740 H   0  0  0  0  0  0  0  0  0  0  0  0
  -34.2360   12.3740  -15.7780 C   0  0  0  0  0  0  0  0  0  0  0  0
  -33.9750   13.4930  -16.1700 O   0  0  0  0  0  0  0  0  0  0  0  0
  -34.9980   12.1860  -14.5070 C   0  0  0  0  0  0  0  0  0  0  0  0
  -34.9410   13.1250  -13.5410 N   0  0  0  0  0  0  0  0  0  0  0  0
  -35.4430   13.0000  -12.7040 H   0  0  0  0  0  0  0  0  0  0  0  0
  -34.3960   13.9340  -13.6740 H   0  0  0  0  0  0  0  0  0  0  0  0
  -35.6690   11.1890  -14.3450 O   0  0  0  0  0  0  0  0  0  0  0  0
  -31.1360   12.4590  -16.7410 N   0  0  0  0  0  0  0  0  0  0  0  0
  -30.7310   13.3550  -16.7690 H   0  0  0  0  0  0  0  0  0  0  0  0
  -31.0070   11.8850  -15.9510 H   0  0  0  0  0  0  0  0  0  0  0  0
  1  2  2  0  0  0  0
  2  3  1  0  0  0  0
  2 26  1  0  0  0  0
  3 17  1  0  0  0  0
  4  3  1  0  0  0  0
  5  1  1  0  0  0  0
  5  4  1  0  0  0  0
  6  5  2  0  0  0  0
  7  8  1  0  0  0  0
  8  9  2  0  0  0  0
 10  9  1  0  0  0  0
 10 15  1  0  0  0  0
 11 12  1  0  0  0  0
 11 10  2  0  0  0  0
 12 14  1  0  0  0  0
 13 12  1  0  0  0  0
 14  1  1  0  0  0  0
 14 15  2  0  0  0  0
 16  7  2  0  0  0  0
 16 11  1  0  0  0  0
 17 18  1  0  0  0  0
 17 19  1  0  0  0  0
 19 21  1  0  0  0  0
 20 19  2  0  0  0  0
 21 25  2  0  0  0  0
 21 22  1  0  0  0  0
 22 23  1  0  0  0  0
 24 22  1  0  0  0  0
 26 28  1  0  0  0  0
 27 26  1  0  0  0  0
M  END
>  <MODEL>
1

>  <REMARK>
 VINA RESULT:      -6.8      0.000      0.000
  Name = ZINC06315906
                            x       y       z     vdW  Elec       q    Type
                         _______ _______ _______ _____ _____    ______ ____

>  <TORSDO>
F 4

>  <vina_score>
-6.8

$$$$
ZINC12362881
 OpenBabel01091702063D

 22 23  0  0  1  0  0  0  0  0999 V2000
  -28.1930   12.2990  -19.3550 C   0  0  0  0  0  0  0  0  0  0  0  0
  -27.5510   13.3990  -20.2190 C   0  0  0  0  0  0  0  0  0  0  0  0
  -28.5200   14.2050  -20.6970 C   0  0  0  0  0  0  0  0  0  0  0  0
  -28.3290   15.3400  -21.4760 N   0  0  0  0  0  0  0  0  0  0  0  0
  -27.4180   15.6180  -21.7230 H   0  0  0  0  0  0  0  0  0  0  0  0
  -29.8120   13.6720  -20.2540 C   0  0  2  0  0  0  0  0  0  0  0  0
  -31.0310   14.4050  -19.7600 C   0  0  0  0  0  0  0  0  0  0  0  0
  -31.6740   13.3120  -18.8880 C   0  0  0  0  0  0  0  0  0  0  0  0
  -30.7060   12.5040  -18.4120 C   0  0  0  0  0  0  0  0  0  0  0  0
  -30.8980   11.3700  -17.6320 N   0  0  0  0  0  0  0  0  0  0  0  0
  -30.1240   10.8440  -17.3310 H   0  0  0  0  0  0  0  0  0  0  0  0
  -29.4160   13.0330  -18.8600 C   0  0  1  0  0  0  0  0  0  0  0  0
  -33.1230   13.1700  -18.6160 N   0  0  0  0  0  0  0  0  0  0  0  0
  -33.8930   12.9230  -19.5270 O   0  0  0  0  0  0  0  0  0  0  0  0
  -33.5450   13.3020  -17.4810 O   0  0  0  0  0  0  0  0  0  0  0  0
  -26.1020   13.5470  -20.4860 N   0  0  0  0  0  0  0  0  0  0  0  0
  -25.6440   14.6370  -20.7760 O   0  0  0  0  0  0  0  0  0  0  0  0
  -25.3680   12.5760  -20.4180 O   0  0  0  0  0  0  0  0  0  0  0  0
  -30.2350   12.5960  -21.1650 C   0  0  0  0  0  0  0  0  0  0  0  0
  -30.5620   11.7660  -21.8670 N   0  0  0  0  0  0  0  0  0  0  0  0
  -28.9930   14.1130  -17.9540 C   0  0  0  0  0  0  0  0  0  0  0  0
  -28.6660   14.9470  -17.2540 N   0  0  0  0  0  0  0  0  0  0  0  0
  1 12  1  0  0  0  0
  2  1  1  0  0  0  0
  3  6  1  0  0  0  0
  3  2  2  0  0  0  0
  4  3  1  0  0  0  0
  5  4  1  0  0  0  0
  6 19  1  6  0  0  0
  6  7  1  0  0  0  0
  6 12  1  0  0  0  0
  7  8  1  0  0  0  0
  8 13  1  0  0  0  0
  8  9  2  0  0  0  0
  9 10  1  0  0  0  0
 10 11  1  0  0  0  0
 12  9  1  0  0  0  0
 12 21  1  1  0  0  0
 13 15  2  0  0  0  0
 14 13  2  0  0  0  0
 16 18  2  0  0  0  0
 16  2  1  0  0  0  0
 17 16  2  0  0  0  0
 20 19  3  0  0  0  0
 21 22  3  0  0  0  0
M  END
>  <MODEL>
1

>  <REMARK>
 VINA RESULT:      -6.8      0.000      0.000
  Name = ZINC12362881
                            x       y       z     vdW  Elec       q    Type
                         _______ _______ _______ _____ _____    ______ ____

>  <TORSDO>
F 4

>  <vina_score>
-6.8

$$$$
ZINC19944023
 OpenBabel01091702113D

 25 26  0  0  0  0  0  0  0  0999 V2000
  -31.1830   13.0490  -17.2730 C   0  0  0  0  0  0  0  0  0  0  0  0
  -32.3200   12.2940  -17.5120 C   0  0  0  0  0  0  0  0  0  0  0  0
  -32.6330   11.8760  -18.8110 C   0  0  0  0  0  0  0  0  0  0  0  0
  -33.7460   11.1410  -19.0270 F   0  0  0  0  0  0  0  0  0  0  0  0
  -31.8250   12.2010  -19.8580 C   0  0  0  0  0  0  0  0  0  0  0  0
  -30.6650   12.9650  -19.6400 C   0  0  0  0  0  0  0  0  0  0  0  0
  -29.8640   13.2980  -20.6640 N   0  0  0  0  0  0  0  0  0  0  0  0
  -28.7650   14.0170  -20.4540 C   0  0  0  0  0  0  0  0  0  0  0  0
  -28.4260   14.4520  -19.1600 C   0  0  0  0  0  0  0  0  0  0  0  0
  -29.2140   14.1370  -18.1150 N   0  0  0  0  0  0  0  0  0  0  0  0
  -28.8790   14.5710  -16.8100 O   0  0  0  0  0  0  0  0  0  0  0  0
  -30.3470   13.3900  -18.3300 C   0  0  0  0  0  0  0  0  0  0  0  0
  -27.2950   15.1940  -18.9630 N   0  0  0  0  0  0  0  0  0  0  0  0
  -26.6440   14.9270  -18.2750 H   0  0  0  0  0  0  0  0  0  0  0  0
  -27.1310   15.9970  -19.5110 H   0  0  0  0  0  0  0  0  0  0  0  0
  -33.1580   11.9520  -16.4550 N   0  0  0  0  0  0  0  0  0  0  0  0
  -33.1840   11.0240  -16.1280 H   0  0  0  0  0  0  0  0  0  0  0  0
  -34.0010   12.9740  -15.8280 C   0  0  0  0  0  0  0  0  0  0  0  0
  -34.6670   12.3910  -14.5810 C   0  0  0  0  0  0  0  0  0  0  0  0
  -34.7610   13.4020  -13.5740 O   0  0  0  0  0  0  0  0  0  0  0  0
  -34.6320   14.2740  -13.9790 H   0  0  0  0  0  0  0  0  0  0  0  0
  -30.1420   12.9350  -21.7920 O   0  0  0  0  0  0  0  0  0  0  0  0
  -31.0340   12.9440  -22.0800 H   0  0  0  0  0  0  0  0  0  0  0  0
  -27.9210   14.3570  -21.5600 C   0  0  0  0  0  0  0  0  0  0  0  0
  -27.2520   14.6270  -22.4370 N   0  0  0  0  0  0  0  0  0  0  0  0
  2  1  1  0  0  0  0
  2 16  1  0  0  0  0
  3  2  2  0  0  0  0
  4  3  1  0  0  0  0
  5  6  2  0  0  0  0
  5  3  1  0  0  0  0
  6 12  1  0  0  0  0
  7  8  1  0  0  0  0
  7  6  1  0  0  0  0
  8  9  2  0  0  0  0
  9 13  1  0  0  0  0
  9 10  1  0  0  0  0
 10 11  1  0  0  0  0
 12 10  1  0  0  0  0
 12  1  2  0  0  0  0
 13 14  1  0  0  0  0
 15 13  1  0  0  0  0
 16 17  1  0  0  0  0
 16 18  1  0  0  0  0
 18 19  1  0  0  0  0
 19 20  1  0  0  0  0
 21 20  1  0  0  0  0
 22  7  1  0  0  0  0
 23 22  1  0  0  0  0
 24  8  1  0  0  0  0
 25 24  3  0  0  0  0
M  END
>  <MODEL>
1

>  <REMARK>
 VINA RESULT:      -6.8      0.000      0.000
  Name = ZINC19944023
                            x       y       z     vdW  Elec       q    Type
                         _______ _______ _______ _____ _____    ______ ____

>  <TORSDO>
F 7

>  <vina_score>
-6.8

$$$$
ZINC16955860
 OpenBabel01091702123D

 28 29  0  0  1  0  0  0  0  0999 V2000
  -30.9380   12.0410  -20.8870 C   0  0  0  0  0  0  0  0  0  0  0  0
  -29.9160   12.4750  -20.0280 C   0  0  0  0  0  0  0  0  0  0  0  0
  -28.8620   12.8310  -20.8660 C   0  0  0  0  0  0  0  0  0  0  0  0
  -29.2980   12.5860  -22.1460 N   0  0  0  0  0  0  0  0  0  0  0  0
  -28.7710   12.7370  -22.9620 H   0  0  0  0  0  0  0  0  0  0  0  0
  -30.4990   12.1320  -22.1140 N   0  0  0  0  0  0  0  0  0  0  0  0
  -33.4140   11.0860  -18.4910 C   0  0  1  0  0  0  0  0  0  0  0  0
  -33.6850   12.5880  -18.7530 C   0  0  2  0  0  0  0  0  0  0  0  0
  -33.2390   12.7470  -20.2270 C   0  0  1  0  0  0  0  0  0  0  0  0
  -32.3000   11.5490  -20.4670 C   0  0  2  0  0  0  0  0  0  0  0  0
  -32.1980   10.8260  -19.2290 O   0  0  0  0  0  0  0  0  0  0  0  0
  -32.8950   13.4070  -17.8890 O   0  0  0  0  0  0  0  0  0  0  0  0
  -32.2420   12.8560  -17.4290 H   0  0  0  0  0  0  0  0  0  0  0  0
  -34.3670   12.6830  -21.1010 O   0  0  0  0  0  0  0  0  0  0  0  0
  -34.0980   12.9400  -21.9970 H   0  0  0  0  0  0  0  0  0  0  0  0
  -33.2030   10.8270  -16.9980 C   0  0  0  0  0  0  0  0  0  0  0  0
  -31.8180   10.9710  -16.6800 O   0  0  0  0  0  0  0  0  0  0  0  0
  -31.7270   11.3380  -15.7860 H   0  0  0  0  0  0  0  0  0  0  0  0
  -27.5540   13.3510  -20.4650 C   0  0  0  0  0  0  0  0  0  0  0  0
  -26.4340   12.6670  -20.7700 N   0  0  0  0  0  0  0  0  0  0  0  0
  -26.4950   11.8190  -21.2670 H   0  0  0  0  0  0  0  0  0  0  0  0
  -27.4780   14.4000  -19.8510 O   0  0  0  0  0  0  0  0  0  0  0  0
  -25.2130   13.1500  -20.3910 N   0  0  0  0  0  0  0  0  0  0  0  0
  -24.6740   13.3980  -21.2200 H   0  0  0  0  0  0  0  0  0  0  0  0
  -25.3410   13.9770  -19.8090 H   0  0  0  0  0  0  0  0  0  0  0  0
  -29.9500   12.5410  -18.6370 N   0  0  0  0  0  0  0  0  0  0  0  0
  -29.1160   12.4570  -18.1190 H   0  0  0  0  0  0  0  0  0  0  0  0
  -30.8070   12.6710  -18.1700 H   0  0  0  0  0  0  0  0  0  0  0  0
  1  2  1  0  0  0  0
  2 26  1  0  0  0  0
  3 19  1  0  0  0  0
  3  2  2  0  0  0  0
  4  6  1  0  0  0  0
  4  3  1  0  0  0  0
  5  4  1  0  0  0  0
  6  1  2  0  0  0  0
  7 16  1  1  0  0  0
  8  7  1  0  0  0  0
  8 12  1  1  0  0  0
  9 14  1  6  0  0  0
  9  8  1  0  0  0  0
 10  1  1  1  0  0  0
 10  9  1  0  0  0  0
 10 11  1  0  0  0  0
 11  7  1  0  0  0  0
 12 13  1  0  0  0  0
 15 14  1  0  0  0  0
 16 17  1  0  0  0  0
 17 18  1  0  0  0  0
 19 22  2  0  0  0  0
 20 19  1  0  0  0  0
 20 23  1  0  0  0  0
 21 20  1  0  0  0  0
 23 25  1  0  0  0  0
 24 23  1  0  0  0  0
 26 28  1  0  0  0  0
 26 27  1  0  0  0  0
M  END
>  <MODEL>
1

>  <REMARK>
 VINA RESULT:      -6.8      0.000      0.000
  Name = ZINC16955860
                            x       y       z     vdW  Elec       q    Type
                         _______ _______ _______ _____ _____    ______ ____

>  <TORSDO>
F 8

>  <vina_score>
-6.8

$$$$
ZINC03978077
 OpenBabel01091701523D

 23 24  0  0  1  0  0  0  0  0999 V2000
  -28.8220   12.7360  -20.2680 C   0  0  2  0  0  0  0  0  0  0  0  0
  -27.5430   12.8640  -21.1340 C   0  0  2  0  0  0  0  0  0  0  0  0
  -26.5680   13.5790  -20.1670 C   0  0  1  0  0  0  0  0  0  0  0  0
  -27.1510   13.3000  -18.7680 C   0  0  2  0  0  0  0  0  0  0  0  0
  -28.3090   12.4660  -18.9420 O   0  0  0  0  0  0  0  0  0  0  0  0
  -27.7900   13.6640  -22.2920 O   0  0  0  0  0  0  0  0  0  0  0  0
  -27.7570   14.6020  -22.0510 H   0  0  0  0  0  0  0  0  0  0  0  0
  -25.2560   13.0250  -20.2810 O   0  0  0  0  0  0  0  0  0  0  0  0
  -24.6080   13.7420  -20.3690 H   0  0  0  0  0  0  0  0  0  0  0  0
  -29.6890   11.5730  -20.7550 C   0  0  0  0  0  0  0  0  0  0  0  0
  -31.5650   11.7680  -19.2040 C   0  0  0  0  0  0  0  0  0  0  0  0
  -32.8220   12.0280  -18.9520 N   0  0  0  0  0  0  0  0  0  0  0  0
  -33.6570   12.3760  -19.9420 C   0  0  0  0  0  0  0  0  0  0  0  0
  -33.2170   12.4640  -21.1900 N   0  0  0  0  0  0  0  0  0  0  0  0
  -31.9360   12.2070  -21.4660 C   0  0  0  0  0  0  0  0  0  0  0  0
  -31.5270   12.2860  -22.6120 O   0  0  0  0  0  0  0  0  0  0  0  0
  -31.0970   11.8580  -20.4690 N   0  0  0  0  0  0  0  0  0  0  0  0
  -34.9740   12.6410  -19.6630 N   0  0  0  0  0  0  0  0  0  0  0  0
  -35.4240   13.4060  -20.0900 H   0  0  0  0  0  0  0  0  0  0  0  0
  -35.4690   12.0660  -19.0350 H   0  0  0  0  0  0  0  0  0  0  0  0
  -27.5550   14.6170  -18.1010 C   0  0  0  0  0  0  0  0  0  0  0  0
  -27.1320   15.7130  -18.9140 O   0  0  0  0  0  0  0  0  0  0  0  0
  -27.8630   16.3430  -19.0140 H   0  0  0  0  0  0  0  0  0  0  0  0
  1 10  1  6  0  0  0
  1  5  1  0  0  0  0
  2  6  1  6  0  0  0
  2  1  1  0  0  0  0
  2  3  1  0  0  0  0
  3  8  1  1  0  0  0
  3  4  1  0  0  0  0
  4 21  1  6  0  0  0
  5  4  1  0  0  0  0
  6  7  1  0  0  0  0
  9  8  1  0  0  0  0
 10 17  1  0  0  0  0
 11 12  2  0  0  0  0
 13 18  1  0  0  0  0
 13 12  1  0  0  0  0
 14 13  2  0  0  0  0
 15 14  1  0  0  0  0
 15 17  1  0  0  0  0
 16 15  2  0  0  0  0
 17 11  1  0  0  0  0
 18 20  1  0  0  0  0
 19 18  1  0  0  0  0
 22 21  1  0  0  0  0
 23 22  1  0  0  0  0
M  END
>  <MODEL>
1

>  <REMARK>
 VINA RESULT:      -6.8      0.000      0.000
  Name = ZINC03978077
                            x       y       z     vdW  Elec       q    Type
                         _______ _______ _______ _____ _____    ______ ____

>  <TORSDO>
F 7

>  <vina_score>
-6.8

$$$$
ZINC19672148
 OpenBabel01091702093D

 22 23  0  0  0  0  0  0  0  0999 V2000
  -30.6030   14.0150  -19.7100 C   0  0  0  0  0  0  0  0  0  0  0  0
  -30.2650   13.4930  -18.4750 C   0  0  0  0  0  0  0  0  0  0  0  0
  -28.9470   13.1980  -18.1910 C   0  0  0  0  0  0  0  0  0  0  0  0
  -27.9580   13.4330  -19.1350 C   0  0  0  0  0  0  0  0  0  0  0  0
  -28.2930   13.9560  -20.3650 C   0  0  0  0  0  0  0  0  0  0  0  0
  -27.2560   14.2240  -21.4240 C   0  0  0  0  0  0  0  0  0  0  0  0
  -25.9160   14.2550  -20.8340 N   0  0  0  0  0  0  0  0  0  0  0  0
  -25.2230   14.3060  -21.5820 H   0  0  0  0  0  0  0  0  0  0  0  0
  -25.8330   15.0720  -20.2280 H   0  0  0  0  0  0  0  0  0  0  0  0
  -25.6770   13.0370  -20.0430 C   0  0  0  0  0  0  0  0  0  0  0  0
  -26.5310   13.1060  -18.7760 C   0  0  0  0  0  0  0  0  0  0  0  0
  -29.6200   14.2480  -20.6490 C   0  0  0  0  0  0  0  0  0  0  0  0
  -32.2840   14.3910  -20.0800 S   0  0  0  0  0  0  0  0  0  0  0  0
  -32.4060   15.8060  -20.0220 O   0  0  0  0  0  0  0  0  0  0  0  0
  -32.6220   13.6440  -21.2400 O   0  0  0  0  0  0  0  0  0  0  0  0
  -33.2040   13.7870  -18.8420 N   0  0  0  0  0  0  0  0  0  0  0  0
  -32.6570   13.8970  -17.9880 H   0  0  0  0  0  0  0  0  0  0  0  0
  -33.6570   12.3940  -18.8790 C   0  0  0  0  0  0  0  0  0  0  0  0
  -33.3550   11.7250  -17.5360 C   0  0  0  0  0  0  0  0  0  0  0  0
  -33.0550   12.7990  -16.4880 C   0  0  0  0  0  0  0  0  0  0  0  0
  -34.6910   12.7120  -14.7390 C   0  0  0  0  0  0  0  0  0  0  0  0
  -34.2820   13.3130  -15.9690 O   0  0  0  0  0  0  0  0  0  0  0  0
  1  2  2  0  0  0  0
  2  3  1  0  0  0  0
  4 11  1  0  0  0  0
  4  3  2  0  0  0  0
  5  4  1  0  0  0  0
  6  7  1  0  0  0  0
  6  5  1  0  0  0  0
  7  9  1  0  0  0  0
  7 10  1  0  0  0  0
  8  7  1  0  0  0  0
 10 11  1  0  0  0  0
 12  5  2  0  0  0  0
 12  1  1  0  0  0  0
 13 14  2  0  0  0  0
 13  1  1  0  0  0  0
 13 16  1  0  0  0  0
 15 13  2  0  0  0  0
 16 17  1  0  0  0  0
 18 16  1  0  0  0  0
 18 19  1  0  0  0  0
 19 20  1  0  0  0  0
 20 22  1  0  0  0  0
 22 21  1  0  0  0  0
M  END
>  <MODEL>
1

>  <REMARK>
 VINA RESULT:      -6.7      0.000      0.000
  Name = ZINC19672148
                            x       y       z     vdW  Elec       q    Type
                         _______ _______ _______ _____ _____    ______ ____

>  <TORSDO>
F 6

>  <vina_score>
-6.7

$$$$
ZINC13551153
 OpenBabel01091702133D

 27 29  0  0  0  0  0  0  0  0999 V2000
  -30.6060   12.2790  -21.7480 C   0  0  0  0  0  0  0  0  0  0  0  0
  -30.3580   11.2620  -22.5580 N   0  0  0  0  0  0  0  0  0  0  0  0
  -30.9710   10.4910  -22.5830 H   0  0  0  0  0  0  0  0  0  0  0  0
  -29.5610   11.2750  -23.1360 H   0  0  0  0  0  0  0  0  0  0  0  0
  -31.7350   12.1970  -20.9690 N   0  0  0  0  0  0  0  0  0  0  0  0
  -32.2690   10.8930  -20.5470 C   0  0  0  0  0  0  0  0  0  0  0  0
  -32.4810   10.9170  -19.0310 C   0  0  0  0  0  0  0  0  0  0  0  0
  -33.3150   12.0730  -18.6740 N   0  0  0  0  0  0  0  0  0  0  0  0
  -32.6470   13.3360  -19.0110 C   0  0  0  0  0  0  0  0  0  0  0  0
  -32.4400   13.4110  -20.5280 C   0  0  0  0  0  0  0  0  0  0  0  0
  -33.6640   12.0400  -17.3350 C   0  0  0  0  0  0  0  0  0  0  0  0
  -33.7850   13.1800  -16.6690 N   0  0  0  0  0  0  0  0  0  0  0  0
  -34.1220   13.1830  -15.3910 C   0  0  0  0  0  0  0  0  0  0  0  0
  -34.3400   11.9760  -14.7450 C   0  0  0  0  0  0  0  0  0  0  0  0
  -34.2000   10.8030  -15.4700 C   0  0  0  0  0  0  0  0  0  0  0  0
  -33.8650   10.8700  -16.7480 N   0  0  0  0  0  0  0  0  0  0  0  0
  -29.7870   13.3850  -21.6620 N   0  0  0  0  0  0  0  0  0  0  0  0
  -29.9570   14.1690  -22.2310 H   0  0  0  0  0  0  0  0  0  0  0  0
  -28.0760   14.6290  -17.3590 C   0  0  0  0  0  0  0  0  0  0  0  0
  -27.8860   13.9830  -18.7060 C   0  0  0  0  0  0  0  0  0  0  0  0
  -26.6740   13.4110  -19.0430 C   0  0  0  0  0  0  0  0  0  0  0  0
  -26.5400   12.8240  -20.3010 C   0  0  0  0  0  0  0  0  0  0  0  0
  -27.5770   12.8340  -21.1290 N   0  0  0  0  0  0  0  0  0  0  0  0
  -28.7220   13.3920  -20.7700 C   0  0  0  0  0  0  0  0  0  0  0  0
  -28.8770   13.9620  -19.5850 N   0  0  0  0  0  0  0  0  0  0  0  0
  -25.3690   12.2530  -20.6710 O   0  0  0  0  0  0  0  0  0  0  0  0
  -24.6470   12.2360  -20.0750 H   0  0  0  0  0  0  0  0  0  0  0  0
  1 17  1  0  0  0  0
  1  5  1  0  0  0  0
  2  1  2  0  0  0  0
  3  2  1  0  0  0  0
  4  2  1  0  0  0  0
  5  6  1  0  0  0  0
  5 10  1  0  0  0  0
  6  7  1  0  0  0  0
  7  8  1  0  0  0  0
  8 11  1  0  0  0  0
  9  8  1  0  0  0  0
 10  9  1  0  0  0  0
 11 16  2  0  0  0  0
 11 12  1  0  0  0  0
 12 13  2  0  0  0  0
 13 14  1  0  0  0  0
 15 14  2  0  0  0  0
 16 15  1  0  0  0  0
 17 24  1  0  0  0  0
 18 17  1  0  0  0  0
 20 19  1  0  0  0  0
 21 20  1  0  0  0  0
 22 21  2  0  0  0  0
 23 24  2  0  0  0  0
 23 22  1  0  0  0  0
 24 25  1  0  0  0  0
 25 20  2  0  0  0  0
 26 22  1  0  0  0  0
 26 27  1  0  0  0  0
M  END
>  <MODEL>
1

>  <REMARK>
 VINA RESULT:      -6.7      0.000      0.000
  Name = ZINC13551153
                            x       y       z     vdW  Elec       q    Type
                         _______ _______ _______ _____ _____    ______ ____

>  <TORSDO>
F 5

>  <vina_score>
-6.7

$$$$
ZINC05500274
 OpenBabel01091702173D

 22 22  0  0  0  0  0  0  0  0999 V2000
  -34.2190   11.9420  -20.8910 C   0  0  0  0  0  0  0  0  0  0  0  0
  -32.9180   12.6930  -21.0120 C   0  0  0  0  0  0  0  0  0  0  0  0
  -32.0370   12.3160  -21.8600 N   0  0  0  0  0  0  0  0  0  0  0  0
  -30.7820   12.9390  -21.8910 N   0  0  0  0  0  0  0  0  0  0  0  0
  -30.7030   13.8720  -22.1940 H   0  0  0  0  0  0  0  0  0  0  0  0
  -29.6830   12.2600  -21.5080 C   0  0  0  0  0  0  0  0  0  0  0  0
  -29.7800   11.1090  -21.1340 O   0  0  0  0  0  0  0  0  0  0  0  0
  -28.3460   12.9240  -21.5410 C   0  0  0  0  0  0  0  0  0  0  0  0
  -27.9860   13.6590  -22.6120 N   0  0  0  0  0  0  0  0  0  0  0  0
  -27.1030   14.0960  -22.6340 H   0  0  0  0  0  0  0  0  0  0  0  0
  -28.6040   13.7600  -23.3710 H   0  0  0  0  0  0  0  0  0  0  0  0
  -27.5840   12.8000  -20.6060 O   0  0  0  0  0  0  0  0  0  0  0  0
  -32.6550   13.8900  -20.1340 C   0  0  0  0  0  0  0  0  0  0  0  0
  -32.1720   13.4190  -18.7610 C   0  0  0  0  0  0  0  0  0  0  0  0
  -30.8280   13.9460  -18.5090 N   0  0  0  0  0  0  0  0  0  0  0  0
  -30.0390   13.3420  -17.6000 C   0  0  0  0  0  0  0  0  0  0  0  0
  -28.6830   13.8690  -17.3340 C   0  0  0  0  0  0  0  0  0  0  0  0
  -28.2540   14.9440  -18.0180 C   0  0  0  0  0  0  0  0  0  0  0  0
  -29.1520   15.5710  -19.0100 C   0  0  0  0  0  0  0  0  0  0  0  0
  -28.7810   16.5440  -19.6370 O   0  0  0  0  0  0  0  0  0  0  0  0
  -30.4420   12.3680  -16.9970 O   0  0  0  0  0  0  0  0  0  0  0  0
  -30.3810   15.0640  -19.2200 N   0  0  0  0  0  0  0  0  0  0  0  0
  2  1  1  0  0  0  0
  2 13  1  0  0  0  0
  3  2  2  0  0  0  0
  4  3  1  0  0  0  0
  4  6  1  0  0  0  0
  5  4  1  0  0  0  0
  6  7  2  0  0  0  0
  8  6  1  0  0  0  0
  8 12  2  0  0  0  0
  9  8  1  0  0  0  0
 10  9  1  0  0  0  0
 11  9  1  0  0  0  0
 13 14  1  0  0  0  0
 14 15  1  0  0  0  0
 15 16  1  0  0  0  0
 16 17  1  0  0  0  0
 16 21  2  0  0  0  0
 18 17  2  0  0  0  0
 19 18  1  0  0  0  0
 20 19  2  0  0  0  0
 22 19  1  0  0  0  0
 22 15  1  0  0  0  0
M  END
>  <MODEL>
1

>  <REMARK>
 VINA RESULT:      -6.7      0.000      0.000
  Name = ZINC05500274
                            x       y       z     vdW  Elec       q    Type
                         _______ _______ _______ _____ _____    ______ ____

>  <TORSDO>
F 5

>  <vina_score>
-6.7

$$$$
ZINC05998325
 OpenBabel01091702033D

 25 26  0  0  1  0  0  0  0  0999 V2000
  -30.0830   14.5820  -18.9520 O   0  0  0  0  0  0  0  0  0  0  0  0
  -32.9690   11.7050  -18.0380 C   0  0  1  0  0  0  0  0  0  0  0  0
  -33.4800   13.0070  -18.6610 C   0  0  1  0  0  0  0  0  0  0  0  0
  -32.3120   13.7310  -19.3430 C   0  0  2  0  0  0  0  0  0  0  0  0
  -31.2060   13.9730  -18.3130 C   0  0  1  0  0  0  0  0  0  0  0  0
  -30.7840   12.6340  -17.7030 C   0  0  0  0  0  0  0  0  0  0  0  0
  -31.9200   12.0000  -17.1140 O   0  0  0  0  0  0  0  0  0  0  0  0
  -33.7790   10.8070  -15.9690 C   0  0  0  0  0  0  0  0  0  0  0  0
  -34.0390   11.0520  -17.3520 O   0  0  0  0  0  0  0  0  0  0  0  0
  -34.4890   12.7100  -19.6270 O   0  0  0  0  0  0  0  0  0  0  0  0
  -34.2990   11.8530  -20.0410 H   0  0  0  0  0  0  0  0  0  0  0  0
  -32.7630   14.9830  -19.8640 O   0  0  0  0  0  0  0  0  0  0  0  0
  -33.3580   15.4040  -19.2250 H   0  0  0  0  0  0  0  0  0  0  0  0
  -29.0500   13.6620  -19.3150 C   0  0  1  0  0  0  0  0  0  0  0  0
  -28.8560   13.6840  -20.8320 C   0  0  1  0  0  0  0  0  0  0  0  0
  -27.7070   12.7410  -21.2060 C   0  0  2  0  0  0  0  0  0  0  0  0
  -26.4440   13.1680  -20.4500 C   0  0  1  0  0  0  0  0  0  0  0  0
  -26.7330   13.1660  -18.9470 C   0  0  0  0  0  0  0  0  0  0  0  0
  -27.8300   14.0390  -18.6730 O   0  0  0  0  0  0  0  0  0  0  0  0
  -30.0560   13.2530  -21.4740 O   0  0  0  0  0  0  0  0  0  0  0  0
  -30.4140   13.9770  -22.0110 H   0  0  0  0  0  0  0  0  0  0  0  0
  -27.4690   12.8120  -22.6130 O   0  0  0  0  0  0  0  0  0  0  0  0
  -27.0750   13.6710  -22.8320 H   0  0  0  0  0  0  0  0  0  0  0  0
  -25.3850   12.2540  -20.7360 O   0  0  0  0  0  0  0  0  0  0  0  0
  -24.5830   12.5320  -20.2660 H   0  0  0  0  0  0  0  0  0  0  0  0
  2  9  1  1  0  0  0
  2  7  1  0  0  0  0
  3 10  1  6  0  0  0
  3  2  1  0  0  0  0
  4 12  1  1  0  0  0
  4  3  1  0  0  0  0
  4  5  1  0  0  0  0
  5  1  1  6  0  0  0
  5  6  1  0  0  0  0
  6  7  1  0  0  0  0
  9  8  1  0  0  0  0
 11 10  1  0  0  0  0
 12 13  1  0  0  0  0
 14  1  1  6  0  0  0
 14 19  1  0  0  0  0
 15 20  1  6  0  0  0
 15 14  1  0  0  0  0
 16 22  1  6  0  0  0
 16 15  1  0  0  0  0
 16 17  1  0  0  0  0
 17 24  1  1  0  0  0
 17 18  1  0  0  0  0
 18 19  1  0  0  0  0
 21 20  1  0  0  0  0
 23 22  1  0  0  0  0
 24 25  1  0  0  0  0
M  END
>  <MODEL>
1

>  <REMARK>
 VINA RESULT:      -6.6      0.000      0.000
  Name = ZINC05998325
                            x       y       z     vdW  Elec       q    Type
                         _______ _______ _______ _____ _____    ______ ____

>  <TORSDO>
F 8

>  <vina_score>
-6.6

$$$$
ZINC00389806
 OpenBabel01091702153D

 19 19  0  0  0  0  0  0  0  0999 V2000
  -31.8920   13.7200  -19.1490 C   0  0  0  0  0  0  0  0  0  0  0  0
  -31.2650   14.6070  -19.9940 C   0  0  0  0  0  0  0  0  0  0  0  0
  -30.0210   15.1300  -19.6580 C   0  0  0  0  0  0  0  0  0  0  0  0
  -29.4030   14.7550  -18.4710 C   0  0  0  0  0  0  0  0  0  0  0  0
  -30.0210   13.8630  -17.6230 C   0  0  0  0  0  0  0  0  0  0  0  0
  -31.2710   13.3350  -17.9570 C   0  0  0  0  0  0  0  0  0  0  0  0
  -31.9360   12.3790  -17.0520 C   0  0  0  0  0  0  0  0  0  0  0  0
  -33.1070   12.7050  -16.4710 O   0  0  0  0  0  0  0  0  0  0  0  0
  -31.4270   11.2980  -16.8290 O   0  0  0  0  0  0  0  0  0  0  0  0
  -29.4090   16.0090  -20.4910 O   0  0  0  0  0  0  0  0  0  0  0  0
  -28.8210   16.6510  -20.1440 H   0  0  0  0  0  0  0  0  0  0  0  0
  -28.0550   15.3240  -18.1120 C   0  0  0  0  0  0  0  0  0  0  0  0
  -27.0720   14.9250  -19.1370 N   0  0  0  0  0  0  0  0  0  0  0  0
  -27.4690   15.0960  -20.0610 H   0  0  0  0  0  0  0  0  0  0  0  0
  -26.2190   15.4710  -19.0160 H   0  0  0  0  0  0  0  0  0  0  0  0
  -26.7540   13.4900  -19.0090 C   0  0  0  0  0  0  0  0  0  0  0  0
  -26.4220   12.9370  -20.3720 C   0  0  0  0  0  0  0  0  0  0  0  0
  -27.3320   12.9890  -21.3570 O   0  0  0  0  0  0  0  0  0  0  0  0
  -25.3370   12.4470  -20.5770 O   0  0  0  0  0  0  0  0  0  0  0  0
  1  6  2  0  0  0  0
  2  3  2  0  0  0  0
  2  1  1  0  0  0  0
  3  4  1  0  0  0  0
  4 12  1  0  0  0  0
  4  5  2  0  0  0  0
  6  5  1  0  0  0  0
  6  7  1  0  0  0  0
  7  9  2  0  0  0  0
  7  8  1  0  0  0  0
 10 11  1  0  0  0  0
 10  3  1  0  0  0  0
 13 15  1  0  0  0  0
 13 16  1  0  0  0  0
 13 12  1  0  0  0  0
 14 13  1  0  0  0  0
 17 16  1  0  0  0  0
 18 17  2  0  0  0  0
 19 17  1  0  0  0  0
M  END
>  <MODEL>
1

>  <REMARK>
 VINA RESULT:      -6.6      0.000      0.000
  Name = ZINC00389806
                            x       y       z     vdW  Elec       q    Type
                         _______ _______ _______ _____ _____    ______ ____

>  <TORSDO>
F 6

>  <vina_score>
-6.6

$$$$
ZINC07104443
 OpenBabel01091702013D

 24 25  0  0  0  0  0  0  0  0999 V2000
  -33.9240   11.8670  -19.6690 C   0  0  0  0  0  0  0  0  0  0  0  0
  -32.6250   11.8750  -18.9920 N   0  0  0  0  0  0  0  0  0  0  0  0
  -32.3870   11.6940  -17.6580 C   0  0  0  0  0  0  0  0  0  0  0  0
  -31.0990   11.7760  -17.4780 N   0  0  0  0  0  0  0  0  0  0  0  0
  -30.5100   11.9910  -18.6000 N   0  0  0  0  0  0  0  0  0  0  0  0
  -31.3990   12.0660  -19.5630 C   0  0  0  0  0  0  0  0  0  0  0  0
  -33.4240   11.4440  -16.5920 C   0  0  0  0  0  0  0  0  0  0  0  0
  -33.7340   12.7540  -15.8660 C   0  0  0  0  0  0  0  0  0  0  0  0
  -34.6710   12.4800  -14.7180 C   0  0  0  0  0  0  0  0  0  0  0  0
  -34.7120   13.3230  -13.6660 N   0  0  0  0  0  0  0  0  0  0  0  0
  -35.3250   13.1450  -12.9160 H   0  0  0  0  0  0  0  0  0  0  0  0
  -34.1310   14.1170  -13.6480 H   0  0  0  0  0  0  0  0  0  0  0  0
  -35.3890   11.5030  -14.7390 O   0  0  0  0  0  0  0  0  0  0  0  0
  -31.0710   12.3520  -21.2710 S   0  0  0  0  0  0  0  0  0  0  0  0
  -29.3500   11.8000  -21.3560 C   0  0  0  0  0  0  0  0  0  0  0  0
  -28.5010   12.8820  -22.0270 C   0  0  0  0  0  0  0  0  0  0  0  0
  -27.4530   13.2830  -21.1420 O   0  0  0  0  0  0  0  0  0  0  0  0
  -27.8200   13.9200  -19.9980 C   0  0  0  0  0  0  0  0  0  0  0  0
  -28.7830   14.9170  -20.0370 C   0  0  0  0  0  0  0  0  0  0  0  0
  -29.1490   15.5680  -18.8740 C   0  0  0  0  0  0  0  0  0  0  0  0
  -28.5580   15.2260  -17.6730 C   0  0  0  0  0  0  0  0  0  0  0  0
  -27.5970   14.2320  -17.6300 C   0  0  0  0  0  0  0  0  0  0  0  0
  -27.2260   13.5780  -18.7900 C   0  0  0  0  0  0  0  0  0  0  0  0
  -26.2860   12.6080  -18.7490 F   0  0  0  0  0  0  0  0  0  0  0  0
  1  2  1  0  0  0  0
  2  3  1  0  0  0  0
  3  4  2  0  0  0  0
  3  7  1  0  0  0  0
  5  4  1  0  0  0  0
  6  2  1  0  0  0  0
  6  5  2  0  0  0  0
  7  8  1  0  0  0  0
  8  9  1  0  0  0  0
  9 10  1  0  0  0  0
 10 12  1  0  0  0  0
 10 11  1  0  0  0  0
 13  9  2  0  0  0  0
 14  6  1  0  0  0  0
 15 14  1  0  0  0  0
 16 15  1  0  0  0  0
 16 17  1  0  0  0  0
 17 18  1  0  0  0  0
 18 23  1  0  0  0  0
 19 18  2  0  0  0  0
 19 20  1  0  0  0  0
 20 21  2  0  0  0  0
 21 22  1  0  0  0  0
 23 24  1  0  0  0  0
 23 22  2  0  0  0  0
M  END
>  <MODEL>
1

>  <REMARK>
 VINA RESULT:      -6.6      0.000      0.000
  Name = ZINC07104443
                            x       y       z     vdW  Elec       q    Type
                         _______ _______ _______ _____ _____    ______ ____

>  <TORSDO>
F 8

>  <vina_score>
-6.6

$$$$
ZINC31687708
 OpenBabel01091701503D

 24 24  0  0  0  0  0  0  0  0999 V2000
  -29.3140   14.1940  -20.7300 N   0  0  0  0  0  0  0  0  0  0  0  0
  -29.3270   15.1780  -20.7310 H   0  0  0  0  0  0  0  0  0  0  0  0
  -29.6050   14.1810  -17.9510 C   0  0  0  0  0  0  0  0  0  0  0  0
  -30.5310   13.4720  -18.8370 N   0  0  0  0  0  0  0  0  0  0  0  0
  -30.3410   13.5100  -20.2050 C   0  0  0  0  0  0  0  0  0  0  0  0
  -31.2310   12.8300  -21.0290 C   0  0  0  0  0  0  0  0  0  0  0  0
  -32.2900   12.1290  -20.4440 C   0  0  0  0  0  0  0  0  0  0  0  0
  -32.4290   12.1230  -19.1040 N   0  0  0  0  0  0  0  0  0  0  0  0
  -33.5420   11.3870  -18.4980 C   0  0  0  0  0  0  0  0  0  0  0  0
  -33.0840   11.5240  -21.1450 O   0  0  0  0  0  0  0  0  0  0  0  0
  -31.5670   12.7880  -18.3160 C   0  0  0  0  0  0  0  0  0  0  0  0
  -31.7230   12.7680  -17.1110 O   0  0  0  0  0  0  0  0  0  0  0  0
  -28.2800   13.5420  -21.2500 C   0  0  0  0  0  0  0  0  0  0  0  0
  -28.1510   13.4340  -22.6130 N   0  0  0  0  0  0  0  0  0  0  0  0
  -27.3840   12.9500  -22.9980 H   0  0  0  0  0  0  0  0  0  0  0  0
  -28.8240   13.8390  -23.2050 H   0  0  0  0  0  0  0  0  0  0  0  0
  -27.3620   12.9890  -20.4450 N   0  0  0  0  0  0  0  0  0  0  0  0
  -26.2080   13.6040  -20.2360 C   0  0  0  0  0  0  0  0  0  0  0  0
  -25.2320   12.9910  -19.5070 N   0  0  0  0  0  0  0  0  0  0  0  0
  -25.0740   13.2590  -18.5730 H   0  0  0  0  0  0  0  0  0  0  0  0
  -24.6840   12.2820  -19.9150 H   0  0  0  0  0  0  0  0  0  0  0  0
  -25.9960   14.8500  -20.7500 N   0  0  0  0  0  0  0  0  0  0  0  0
  -26.5860   15.5940  -20.4960 H   0  0  0  0  0  0  0  0  0  0  0  0
  -25.2510   15.0040  -21.3760 H   0  0  0  0  0  0  0  0  0  0  0  0
  1  5  1  0  0  0  0
  2  1  1  0  0  0  0
  4 11  1  0  0  0  0
  4  3  1  0  0  0  0
  5  4  1  0  0  0  0
  6  7  1  0  0  0  0
  6  5  2  0  0  0  0
  7  8  1  0  0  0  0
  8  9  1  0  0  0  0
  8 11  1  0  0  0  0
 10  7  2  0  0  0  0
 11 12  2  0  0  0  0
 13  1  1  0  0  0  0
 13 17  2  0  0  0  0
 14 13  1  0  0  0  0
 15 14  1  0  0  0  0
 16 14  1  0  0  0  0
 17 18  2  0  0  0  0
 18 19  1  0  0  0  0
 19 20  1  0  0  0  0
 21 19  1  0  0  0  0
 22 23  1  0  0  0  0
 22 18  1  0  0  0  0
 24 22  1  0  0  0  0
M  END
>  <MODEL>
1

>  <REMARK>
 VINA RESULT:      -6.5      0.000      0.000
  Name = ZINC31687708
                            x       y       z     vdW  Elec       q    Type
                         _______ _______ _______ _____ _____    ______ ____

>  <TORSDO>
F 5

>  <vina_score>
-6.5

$$$$
ZINC04340004
 OpenBabel01091702013D

 22 23  0  0  1  0  0  0  0  0999 V2000
  -30.9910   13.2360  -17.7400 N   0  0  0  0  0  0  0  0  0  0  0  0
  -31.1190   12.2810  -17.4040 H   0  0  0  0  0  0  0  0  0  0  0  0
  -31.7000   13.8470  -17.3350 H   0  0  0  0  0  0  0  0  0  0  0  0
  -31.1170   13.2490  -19.2100 C   0  0  1  0  0  0  0  0  0  0  0  0
  -31.2700   11.7940  -19.7380 C   0  0  0  0  0  0  0  0  0  0  0  0
  -32.0130   12.1110  -21.3940 S   0  0  0  0  0  0  0  0  0  0  0  0
  -32.7040   13.7900  -21.1020 C   0  0  0  0  0  0  0  0  0  0  0  0
  -33.0820   11.1990  -21.6030 O   0  0  0  0  0  0  0  0  0  0  0  0
  -30.9720   12.2010  -22.3570 O   0  0  0  0  0  0  0  0  0  0  0  0
  -32.3780   14.0360  -19.6080 C   0  0  1  0  0  0  0  0  0  0  0  0
  -33.4790   13.6080  -18.8040 O   0  0  0  0  0  0  0  0  0  0  0  0
  -33.2650   13.7400  -17.8670 H   0  0  0  0  0  0  0  0  0  0  0  0
  -29.6530   13.7090  -17.3370 C   0  0  0  0  0  0  0  0  0  0  0  0
  -29.2940   14.9520  -18.1530 C   0  0  0  0  0  0  0  0  0  0  0  0
  -27.7830   15.1860  -18.0900 C   0  0  0  0  0  0  0  0  0  0  0  0
  -28.1580   14.6670  -20.4250 C   0  0  0  0  0  0  0  0  0  0  0  0
  -27.1670   14.6660  -19.3290 N   0  0  0  0  0  0  0  0  0  0  0  0
  -26.3850   15.2670  -19.5880 H   0  0  0  0  0  0  0  0  0  0  0  0
  -26.6660   13.2930  -19.1070 C   0  0  0  0  0  0  0  0  0  0  0  0
  -26.0040   12.7970  -20.3950 C   0  0  0  0  0  0  0  0  0  0  0  0
  -26.9530   12.8500  -21.4630 O   0  0  0  0  0  0  0  0  0  0  0  0
  -27.4810   14.1570  -21.7000 C   0  0  0  0  0  0  0  0  0  0  0  0
  1  2  1  0  0  0  0
  1 13  1  0  0  0  0
  1  3  1  0  0  0  0
  4  1  1  1  0  0  0
  5  4  1  0  0  0  0
  6  7  1  0  0  0  0
  6  5  1  0  0  0  0
  7 10  1  0  0  0  0
  8  6  2  0  0  0  0
  9  6  2  0  0  0  0
 10  4  1  0  0  0  0
 10 11  1  1  0  0  0
 11 12  1  0  0  0  0
 14 15  1  0  0  0  0
 14 13  1  0  0  0  0
 16 17  1  0  0  0  0
 17 19  1  0  0  0  0
 17 15  1  0  0  0  0
 18 17  1  0  0  0  0
 20 19  1  0  0  0  0
 21 20  1  0  0  0  0
 22 21  1  0  0  0  0
 22 16  1  0  0  0  0
M  END
>  <MODEL>
1

>  <REMARK>
 VINA RESULT:      -6.5      0.000      0.000
  Name = ZINC04340004
                            x       y       z     vdW  Elec       q    Type
                         _______ _______ _______ _____ _____    ______ ____

>  <TORSDO>
F 6

>  <vina_score>
-6.5

$$$$
ZINC13354670
 OpenBabel01091702053D

 27 28  0  0  1  0  0  0  0  0999 V2000
  -31.4480   15.3970  -20.2110 C   0  0  0  0  0  0  0  0  0  0  0  0
  -31.3210   14.1710  -20.7540 N   0  0  0  0  0  0  0  0  0  0  0  0
  -30.4260   13.8070  -20.9470 H   0  0  0  0  0  0  0  0  0  0  0  0
  -32.5510   15.8440  -19.9740 O   0  0  0  0  0  0  0  0  0  0  0  0
  -30.2210   16.2140  -19.8960 C   0  0  0  0  0  0  0  0  0  0  0  0
  -26.6950   13.4320  -21.2360 C   0  0  0  0  0  0  0  0  0  0  0  0
  -26.0400   12.8350  -20.1670 C   0  0  0  0  0  0  0  0  0  0  0  0
  -26.4410   13.0810  -18.8720 C   0  0  0  0  0  0  0  0  0  0  0  0
  -27.5110   13.9360  -18.6300 C   0  0  0  0  0  0  0  0  0  0  0  0
  -28.1720   14.5380  -19.7180 C   0  0  0  0  0  0  0  0  0  0  0  0
  -29.2330   15.3650  -19.1390 C   0  0  0  0  0  0  0  0  0  0  0  0
  -29.1550   15.2270  -17.8060 C   0  0  0  0  0  0  0  0  0  0  0  0
  -28.1360   14.3730  -17.4840 N   0  0  0  0  0  0  0  0  0  0  0  0
  -27.8860   14.1100  -16.5690 H   0  0  0  0  0  0  0  0  0  0  0  0
  -27.7490   14.2740  -21.0230 C   0  0  0  0  0  0  0  0  0  0  0  0
  -32.5140   13.3780  -21.0600 C   0  0  0  0  0  0  0  0  0  0  0  0
  -32.1170   11.9130  -21.2560 C   0  0  0  0  0  0  0  0  0  0  0  0
  -31.5650   11.3530  -19.9440 C   0  0  0  0  0  0  0  0  0  0  0  0
  -32.7070   11.1880  -18.9390 C   0  0  0  0  0  0  0  0  0  0  0  0
  -32.2760   11.7470  -17.5820 C   0  0  1  0  0  0  0  0  0  0  0  0
  -30.8960   12.2610  -17.6520 N   0  0  0  0  0  0  0  0  0  0  0  0
  -30.4260   11.8600  -18.4640 H   0  0  0  0  0  0  0  0  0  0  0  0
  -30.9160   13.2770  -17.7390 H   0  0  0  0  0  0  0  0  0  0  0  0
  -30.3920   12.0010  -16.8050 H   0  0  0  0  0  0  0  0  0  0  0  0
  -33.1980   12.8720  -17.1870 C   0  0  0  0  0  0  0  0  0  0  0  0
  -33.2410   13.2880  -15.9110 O   0  0  0  0  0  0  0  0  0  0  0  0
  -33.9020   13.3960  -18.0170 O   0  0  0  0  0  0  0  0  0  0  0  0
  1  4  2  0  0  0  0
  1  5  1  0  0  0  0
  2  1  1  0  0  0  0
  3  2  1  0  0  0  0
  5 11  1  0  0  0  0
  6 15  2  0  0  0  0
  6  7  1  0  0  0  0
  7  8  2  0  0  0  0
  8  9  1  0  0  0  0
  9 13  1  0  0  0  0
 10 11  1  0  0  0  0
 10  9  2  0  0  0  0
 11 12  2  0  0  0  0
 12 13  1  0  0  0  0
 13 14  1  0  0  0  0
 15 10  1  0  0  0  0
 16  2  1  0  0  0  0
 17 16  1  0  0  0  0
 17 18  1  0  0  0  0
 18 19  1  0  0  0  0
 20 19  1  6  0  0  0
 20 25  1  0  0  0  0
 21 20  1  0  0  0  0
 21 24  1  0  0  0  0
 22 21  1  0  0  0  0
 23 21  1  0  0  0  0
 25 26  1  0  0  0  0
 27 25  2  0  0  0  0
M  END
>  <MODEL>
1

>  <REMARK>
 VINA RESULT:      -6.5      0.000      0.000
  Name = ZINC13354670
                            x       y       z     vdW  Elec       q    Type
                         _______ _______ _______ _____ _____    ______ ____

>  <TORSDO>
F 9

>  <vina_score>
-6.5

$$$$
ZINC02275272
 OpenBabel01091702113D

 29 29  0  0  0  0  0  0  0  0999 V2000
  -32.0720   11.8360  -20.9740 C   0  0  0  0  0  0  0  0  0  0  0  0
  -32.2390   12.6820  -19.8710 C   0  0  0  0  0  0  0  0  0  0  0  0
  -33.3800   12.5210  -19.0860 C   0  0  0  0  0  0  0  0  0  0  0  0
  -34.2600   11.5790  -19.4140 N   0  0  0  0  0  0  0  0  0  0  0  0
  -34.0670   10.8030  -20.4610 C   0  0  0  0  0  0  0  0  0  0  0  0
  -33.0020   10.9200  -21.2300 N   0  0  0  0  0  0  0  0  0  0  0  0
  -31.2870   13.6600  -19.5620 N   0  0  0  0  0  0  0  0  0  0  0  0
  -30.5190   13.4360  -18.9880 H   0  0  0  0  0  0  0  0  0  0  0  0
  -31.4210   14.9100  -20.0490 C   0  0  0  0  0  0  0  0  0  0  0  0
  -32.3960   15.2020  -20.7110 O   0  0  0  0  0  0  0  0  0  0  0  0
  -30.3720   15.9350  -19.7730 C   0  0  0  0  0  0  0  0  0  0  0  0
  -29.2350   15.5820  -19.1400 N   0  0  0  0  0  0  0  0  0  0  0  0
  -29.0970   14.6480  -18.8600 H   0  0  0  0  0  0  0  0  0  0  0  0
  -30.5410   17.0860  -20.1180 O   0  0  0  0  0  0  0  0  0  0  0  0
  -28.2750   16.5190  -18.8860 N   0  0  0  0  0  0  0  0  0  0  0  0
  -27.5140   16.0930  -18.3580 H   0  0  0  0  0  0  0  0  0  0  0  0
  -27.9130   16.8830  -19.7690 H   0  0  0  0  0  0  0  0  0  0  0  0
  -33.5920   13.3130  -18.0060 O   0  0  0  0  0  0  0  0  0  0  0  0
  -33.3560   12.7350  -16.7210 C   0  0  0  0  0  0  0  0  0  0  0  0
  -30.6510   11.9850  -22.0070 S   0  0  0  0  0  0  0  0  0  0  0  0
  -28.3240   12.8420  -20.9840 C   0  0  0  0  0  0  0  0  0  0  0  0
  -29.3900   12.0800  -20.7800 C   0  0  0  0  0  0  0  0  0  0  0  0
  -27.7200   12.8270  -18.5790 C   0  0  0  0  0  0  0  0  0  0  0  0
  -27.1760   12.8060  -20.0090 C   0  0  0  0  0  0  0  0  0  0  0  0
  -28.2670   13.6810  -22.1020 N   0  0  0  0  0  0  0  0  0  0  0  0
  -28.4910   13.3290  -22.9930 H   0  0  0  0  0  0  0  0  0  0  0  0
  -27.9010   14.9890  -21.9570 N   0  0  0  0  0  0  0  0  0  0  0  0
  -27.9740   15.2570  -20.9770 H   0  0  0  0  0  0  0  0  0  0  0  0
  -26.9370   15.1090  -22.2720 H   0  0  0  0  0  0  0  0  0  0  0  0
  1  2  1  0  0  0  0
  2  7  1  0  0  0  0
  2  3  2  0  0  0  0
  3 18  1  0  0  0  0
  4  3  1  0  0  0  0
  5  4  2  0  0  0  0
  6  1  2  0  0  0  0
  6  5  1  0  0  0  0
  7  8  1  0  0  0  0
  9 11  1  0  0  0  0
  9  7  1  0  0  0  0
 10  9  2  0  0  0  0
 11 12  1  0  0  0  0
 12 15  1  0  0  0  0
 12 13  1  0  0  0  0
 14 11  2  0  0  0  0
 15 16  1  0  0  0  0
 17 15  1  0  0  0  0
 18 19  1  0  0  0  0
 20  1  1  0  0  0  0
 20 22  1  0  0  0  0
 21 22  2  0  0  0  0
 21 24  1  0  0  0  0
 24 23  1  0  0  0  0
 25 27  1  0  0  0  0
 25 21  1  0  0  0  0
 26 25  1  0  0  0  0
 27 28  1  0  0  0  0
 29 27  1  0  0  0  0
M  END
>  <MODEL>
1

>  <REMARK>
 VINA RESULT:      -6.5      0.000      0.000
  Name = ZINC02275272
                            x       y       z     vdW  Elec       q    Type
                         _______ _______ _______ _____ _____    ______ ____

>  <TORSDO>
F 9

>  <vina_score>
-6.5

$$$$
ZINC09305196
 OpenBabel01091702113D

 27 28  0  0  0  0  0  0  0  0999 V2000
  -25.9220   13.6140  -20.7230 C   0  0  0  0  0  0  0  0  0  0  0  0
  -26.2080   12.7520  -19.6810 C   0  0  0  0  0  0  0  0  0  0  0  0
  -27.4070   12.8610  -18.9980 C   0  0  0  0  0  0  0  0  0  0  0  0
  -28.3230   13.8280  -19.3700 C   0  0  0  0  0  0  0  0  0  0  0  0
  -28.0390   14.6950  -20.4270 C   0  0  0  0  0  0  0  0  0  0  0  0
  -28.9790   15.6640  -20.7960 N   0  0  0  0  0  0  0  0  0  0  0  0
  -28.8820   16.1320  -21.6570 H   0  0  0  0  0  0  0  0  0  0  0  0
  -30.0130   15.9630  -19.9880 C   0  0  0  0  0  0  0  0  0  0  0  0
  -30.1570   15.3010  -18.6410 C   0  0  0  0  0  0  0  0  0  0  0  0
  -30.8400   16.7750  -20.3480 O   0  0  0  0  0  0  0  0  0  0  0  0
  -29.5470   13.9640  -18.6960 N   0  0  0  0  0  0  0  0  0  0  0  0
  -30.1450   12.9030  -18.1180 C   0  0  0  0  0  0  0  0  0  0  0  0
  -31.3200   13.0590  -17.4760 N   0  0  0  0  0  0  0  0  0  0  0  0
  -31.7420   13.9470  -17.4300 H   0  0  0  0  0  0  0  0  0  0  0  0
  -29.6240   11.8070  -18.1750 O   0  0  0  0  0  0  0  0  0  0  0  0
  -26.8350   14.5820  -21.1010 C   0  0  0  0  0  0  0  0  0  0  0  0
  -31.9700   11.9060  -16.8480 C   0  0  0  0  0  0  0  0  0  0  0  0
  -33.0900   11.3940  -17.7550 C   0  0  0  0  0  0  0  0  0  0  0  0
  -33.4980   12.4950  -18.7360 C   0  0  0  0  0  0  0  0  0  0  0  0
  -33.0710   12.1110  -20.1280 C   0  0  0  0  0  0  0  0  0  0  0  0
  -32.1000   11.1930  -20.3070 N   0  0  0  0  0  0  0  0  0  0  0  0
  -31.6700   10.7740  -19.5270 H   0  0  0  0  0  0  0  0  0  0  0  0
  -33.6020   12.6280  -21.0900 O   0  0  0  0  0  0  0  0  0  0  0  0
  -31.6850   10.8200  -21.6610 C   0  0  0  0  0  0  0  0  0  0  0  0
  -30.3990   11.5640  -22.0240 C   0  0  0  0  0  0  0  0  0  0  0  0
  -30.6000   12.9690  -21.8610 O   0  0  0  0  0  0  0  0  0  0  0  0
  -30.7440   13.1690  -20.9230 H   0  0  0  0  0  0  0  0  0  0  0  0
  1  2  1  0  0  0  0
  2  3  2  0  0  0  0
  4  3  1  0  0  0  0
  4 11  1  0  0  0  0
  5  4  2  0  0  0  0
  6  5  1  0  0  0  0
  6  8  1  0  0  0  0
  7  6  1  0  0  0  0
  8  9  1  0  0  0  0
 10  8  2  0  0  0  0
 11  9  1  0  0  0  0
 11 12  1  0  0  0  0
 12 13  1  0  0  0  0
 13 14  1  0  0  0  0
 13 17  1  0  0  0  0
 15 12  2  0  0  0  0
 16  1  2  0  0  0  0
 16  5  1  0  0  0  0
 18 17  1  0  0  0  0
 19 18  1  0  0  0  0
 20 19  1  0  0  0  0
 21 20  1  0  0  0  0
 21 22  1  0  0  0  0
 23 20  2  0  0  0  0
 24 21  1  0  0  0  0
 25 26  1  0  0  0  0
 25 24  1  0  0  0  0
 26 27  1  0  0  0  0
M  END
>  <MODEL>
1

>  <REMARK>
 VINA RESULT:      -6.5      0.000      0.000
  Name = ZINC09305196
                            x       y       z     vdW  Elec       q    Type
                         _______ _______ _______ _____ _____    ______ ____

>  <TORSDO>
F 7

>  <vina_score>
-6.5

$$$$
ZINC04096406
 OpenBabel01091701523D

 28 30  0  0  1  0  0  0  0  0999 V2000
  -31.5750   14.4750  -19.9250 C   0  0  0  0  0  0  0  0  0  0  0  0
  -31.4400   13.0330  -19.4390 C   0  0  2  0  0  0  0  0  0  0  0  0
  -30.1050   12.5820  -19.6250 O   0  0  0  0  0  0  0  0  0  0  0  0
  -29.1040   13.3610  -18.9900 C   0  0  1  0  0  0  0  0  0  0  0  0
  -27.7600   13.0380  -19.6990 C   0  0  1  0  0  0  0  0  0  0  0  0
  -27.6260   14.1380  -20.7710 C   0  0  2  0  0  0  0  0  0  0  0  0
  -28.7890   14.9570  -20.6770 O   0  0  0  0  0  0  0  0  0  0  0  0
  -29.2760   14.8570  -19.3310 C   0  0  1  0  0  0  0  0  0  0  0  0
  -32.4240   12.1260  -20.2010 C   0  0  2  0  0  0  0  0  0  0  0  0
  -33.6550   12.0480  -19.2680 C   0  0  1  0  0  0  0  0  0  0  0  0
  -33.2660   12.9270  -18.0580 C   0  0  2  0  0  0  0  0  0  0  0  0
  -31.8200   12.9370  -18.0560 O   0  0  0  0  0  0  0  0  0  0  0  0
  -30.6220   15.2770  -19.2210 O   0  0  0  0  0  0  0  0  0  0  0  0
  -26.6750   13.1090  -18.7710 O   0  0  0  0  0  0  0  0  0  0  0  0
  -26.2390   13.9720  -18.8490 H   0  0  0  0  0  0  0  0  0  0  0  0
  -31.8610   10.8270  -20.3960 O   0  0  0  0  0  0  0  0  0  0  0  0
  -31.9970   10.2920  -19.5990 H   0  0  0  0  0  0  0  0  0  0  0  0
  -34.8130   12.5750  -19.9180 O   0  0  0  0  0  0  0  0  0  0  0  0
  -34.6580   12.6140  -20.8740 H   0  0  0  0  0  0  0  0  0  0  0  0
  -27.5450   13.5030  -22.1600 C   0  0  0  0  0  0  0  0  0  0  0  0
  -28.7830   12.8550  -22.4590 O   0  0  0  0  0  0  0  0  0  0  0  0
  -29.3390   12.8370  -21.6650 H   0  0  0  0  0  0  0  0  0  0  0  0
  -28.3990   15.6990  -18.4030 C   0  0  0  0  0  0  0  0  0  0  0  0
  -28.3870   15.1160  -17.0990 O   0  0  0  0  0  0  0  0  0  0  0  0
  -27.5820   15.3880  -16.6300 H   0  0  0  0  0  0  0  0  0  0  0  0
  -33.7950   12.3130  -16.7610 C   0  0  0  0  0  0  0  0  0  0  0  0
  -33.9560   13.3380  -15.7790 O   0  0  0  0  0  0  0  0  0  0  0  0
  -33.6370   13.0160  -14.9210 H   0  0  0  0  0  0  0  0  0  0  0  0
  1 13  1  0  0  0  0
  2  1  1  6  0  0  0
  2 12  1  0  0  0  0
  3  2  1  0  0  0  0
  4  3  1  6  0  0  0
  5  4  1  0  0  0  0
  5 14  1  1  0  0  0
  6 20  1  6  0  0  0
  6  7  1  0  0  0  0
  6  5  1  0  0  0  0
  7  8  1  0  0  0  0
  8 13  1  0  0  0  0
  8  4  1  0  0  0  0
  8 23  1  1  0  0  0
  9 16  1  1  0  0  0
  9  2  1  0  0  0  0
  9 10  1  0  0  0  0
 10 18  1  6  0  0  0
 10 11  1  0  0  0  0
 11 12  1  0  0  0  0
 11 26  1  1  0  0  0
 15 14  1  0  0  0  0
 16 17  1  0  0  0  0
 19 18  1  0  0  0  0
 21 20  1  0  0  0  0
 21 22  1  0  0  0  0
 23 24  1  0  0  0  0
 24 25  1  0  0  0  0
 26 27  1  0  0  0  0
 27 28  1  0  0  0  0
M  END
>  <MODEL>
1

>  <REMARK>
 VINA RESULT:      -6.5      0.000      0.000
  Name = ZINC04096406
                            x       y       z     vdW  Elec       q    Type
                         _______ _______ _______ _____ _____    ______ ____

>  <TORSDO>
F 9

>  <vina_score>
-6.5

$$$$
ZINC31460373
 OpenBabel01091702133D

 30 30  0  0  1  0  0  0  0  0999 V2000
  -29.3090   12.7880  -19.1300 C   0  0  2  0  0  0  0  0  0  0  0  0
  -29.6280   14.2820  -19.2330 C   0  0  2  0  0  0  0  0  0  0  0  0
  -29.0930   14.8210  -20.5640 C   0  0  2  0  0  0  0  0  0  0  0  0
  -27.5890   14.5420  -20.6450 C   0  0  2  0  0  0  0  0  0  0  0  0
  -27.3470   13.0380  -20.4880 C   0  0  2  0  0  0  0  0  0  0  0  0
  -27.8980   12.5970  -19.2450 O   0  0  0  0  0  0  0  0  0  0  0  0
  -28.9930   14.9990  -18.1190 N   0  0  0  0  0  0  0  0  0  0  0  0
  -28.0450   15.2540  -18.3960 H   0  0  0  0  0  0  0  0  0  0  0  0
  -29.5400   15.8330  -17.9050 H   0  0  0  0  0  0  0  0  0  0  0  0
  -28.9190   14.1510  -16.9220 C   0  0  0  0  0  0  0  0  0  0  0  0
  -29.3240   16.2290  -20.6370 O   0  0  0  0  0  0  0  0  0  0  0  0
  -29.9530   16.4910  -19.9460 H   0  0  0  0  0  0  0  0  0  0  0  0
  -26.9140   15.2470  -19.6010 O   0  0  0  0  0  0  0  0  0  0  0  0
  -26.3360   14.6350  -19.1200 H   0  0  0  0  0  0  0  0  0  0  0  0
  -29.9720   12.0850  -20.1840 O   0  0  0  0  0  0  0  0  0  0  0  0
  -31.1500   11.3910  -19.7660 C   0  0  1  0  0  0  0  0  0  0  0  0
  -31.4190   11.6890  -18.3130 C   0  0  0  0  0  0  0  0  0  0  0  0
  -31.3640   10.8030  -17.4960 O   0  0  0  0  0  0  0  0  0  0  0  0
  -32.3390   11.8520  -20.6110 C   0  0  1  0  0  0  0  0  0  0  0  0
  -32.7360   14.2690  -21.1040 C   0  0  0  0  0  0  0  0  0  0  0  0
  -32.8820   13.1690  -20.0520 C   0  0  1  0  0  0  0  0  0  0  0  0
  -34.2630   13.0090  -19.7170 O   0  0  0  0  0  0  0  0  0  0  0  0
  -34.6120   12.2170  -20.1540 H   0  0  0  0  0  0  0  0  0  0  0  0
  -31.9160   12.0470  -21.9620 O   0  0  0  0  0  0  0  0  0  0  0  0
  -30.9540   11.9350  -22.0200 H   0  0  0  0  0  0  0  0  0  0  0  0
  -33.4200   10.8040  -20.5700 C   0  0  0  0  0  0  0  0  0  0  0  0
  -34.3420   10.8560  -21.3490 O   0  0  0  0  0  0  0  0  0  0  0  0
  -25.8430   12.7590  -20.5080 C   0  0  0  0  0  0  0  0  0  0  0  0
  -25.2970   13.0030  -19.2100 O   0  0  0  0  0  0  0  0  0  0  0  0
  -25.9060   13.5610  -18.7020 H   0  0  0  0  0  0  0  0  0  0  0  0
  1 15  1  6  0  0  0
  2  1  1  0  0  0  0
  2  7  1  1  0  0  0
  3 11  1  1  0  0  0
  3  2  1  0  0  0  0
  4  3  1  0  0  0  0
  4  5  1  0  0  0  0
  4 13  1  1  0  0  0
  5 28  1  1  0  0  0
  5  6  1  0  0  0  0
  6  1  1  0  0  0  0
  7  9  1  0  0  0  0
  7 10  1  0  0  0  0
  8  7  1  0  0  0  0
 11 12  1  0  0  0  0
 13 14  1  0  0  0  0
 16 15  1  6  0  0  0
 16 17  1  0  0  0  0
 17 18  2  0  0  0  0
 19 24  1  6  0  0  0
 19 26  1  0  0  0  0
 19 21  1  0  0  0  0
 19 16  1  0  0  0  0
 21 20  1  6  0  0  0
 21 22  1  0  0  0  0
 23 22  1  0  0  0  0
 25 24  1  0  0  0  0
 27 26  2  0  0  0  0
 28 29  1  0  0  0  0
 29 30  1  0  0  0  0
M  END
>  <MODEL>
1

>  <REMARK>
 VINA RESULT:      -6.5      0.000      0.000
  Name = ZINC31460373
                            x       y       z     vdW  Elec       q    Type
                         _______ _______ _______ _____ _____    ______ ____

>  <TORSDO>
F 13

>  <vina_score>
-6.5

$$$$
ZINC17105047
 OpenBabel01091702173D

 20 21  0  0  0  0  0  0  0  0999 V2000
  -29.2980   13.4850  -17.7080 C   0  0  0  0  0  0  0  0  0  0  0  0
  -30.1820   12.5650  -17.4340 N   0  0  0  0  0  0  0  0  0  0  0  0
  -31.5200   12.7470  -17.8030 N   0  0  0  0  0  0  0  0  0  0  0  0
  -32.0580   12.5490  -19.0860 N   0  0  0  0  0  0  0  0  0  0  0  0
  -33.4060   12.8500  -18.9610 C   0  0  0  0  0  0  0  0  0  0  0  0
  -33.5910   13.1980  -17.6560 N   0  0  0  0  0  0  0  0  0  0  0  0
  -34.3140   12.8030  -19.8990 N   0  0  0  0  0  0  0  0  0  0  0  0
  -35.2470   13.0360  -19.6940 H   0  0  0  0  0  0  0  0  0  0  0  0
  -34.0640   12.5360  -20.8130 H   0  0  0  0  0  0  0  0  0  0  0  0
  -32.4740   13.1240  -17.0270 N   0  0  0  0  0  0  0  0  0  0  0  0
  -29.7200   14.7580  -18.1660 C   0  0  0  0  0  0  0  0  0  0  0  0
  -29.4980   15.1130  -19.4010 N   0  0  0  0  0  0  0  0  0  0  0  0
  -28.7090   14.3060  -20.2310 N   0  0  0  0  0  0  0  0  0  0  0  0
  -29.1800   13.3220  -21.1170 N   0  0  0  0  0  0  0  0  0  0  0  0
  -28.0410   12.8000  -21.7110 C   0  0  0  0  0  0  0  0  0  0  0  0
  -26.9910   13.4710  -21.1590 N   0  0  0  0  0  0  0  0  0  0  0  0
  -27.9850   11.8550  -22.6120 N   0  0  0  0  0  0  0  0  0  0  0  0
  -27.1150   11.5580  -22.9620 H   0  0  0  0  0  0  0  0  0  0  0  0
  -28.8150   11.4380  -22.9400 H   0  0  0  0  0  0  0  0  0  0  0  0
  -27.4260   14.3300  -20.3100 N   0  0  0  0  0  0  0  0  0  0  0  0
  1  2  2  0  0  0  0
  3  2  1  0  0  0  0
  3 10  1  0  0  0  0
  4  5  2  0  0  0  0
  4  3  1  0  0  0  0
  5  6  1  0  0  0  0
  6 10  2  0  0  0  0
  7  8  1  0  0  0  0
  7  5  1  0  0  0  0
  9  7  1  0  0  0  0
 11  1  1  0  0  0  0
 12 11  2  0  0  0  0
 13 12  1  0  0  0  0
 14 13  1  0  0  0  0
 15 16  1  0  0  0  0
 15 14  2  0  0  0  0
 16 20  2  0  0  0  0
 17 15  1  0  0  0  0
 18 17  1  0  0  0  0
 19 17  1  0  0  0  0
 20 13  1  0  0  0  0
M  END
>  <MODEL>
1

>  <REMARK>
 VINA RESULT:      -6.5      0.000      0.000
  Name = ZINC17105047
                            x       y       z     vdW  Elec       q    Type
                         _______ _______ _______ _____ _____    ______ ____

>  <TORSDO>
F 3

>  <vina_score>
-6.5

$$$$
ZINC04824070
 OpenBabel01091701563D

 25 25  0  0  1  0  0  0  0  0999 V2000
  -29.4610   12.0810  -21.6930 C   0  0  0  0  0  0  0  0  0  0  0  0
  -29.1120   13.4610  -21.3490 N   0  0  0  0  0  0  0  0  0  0  0  0
  -29.2760   14.1860  -21.9950 H   0  0  0  0  0  0  0  0  0  0  0  0
  -29.0480   14.8090  -19.3400 C   0  0  0  0  0  0  0  0  0  0  0  0
  -28.4730   15.0860  -18.0960 C   0  0  0  0  0  0  0  0  0  0  0  0
  -27.4250   14.3180  -17.6380 C   0  0  0  0  0  0  0  0  0  0  0  0
  -26.9370   13.2710  -18.4030 C   0  0  0  0  0  0  0  0  0  0  0  0
  -27.4960   12.9810  -19.6300 C   0  0  0  0  0  0  0  0  0  0  0  0
  -28.5500   13.7480  -20.1120 C   0  0  0  0  0  0  0  0  0  0  0  0
  -30.1680   15.6260  -19.8370 C   0  0  0  0  0  0  0  0  0  0  0  0
  -29.9870   16.7900  -20.1330 O   0  0  0  0  0  0  0  0  0  0  0  0
  -32.4610   15.9550  -20.4200 C   0  0  0  0  0  0  0  0  0  0  0  0
  -31.3950   15.0810  -19.9640 O   0  0  0  0  0  0  0  0  0  0  0  0
  -30.9810   11.9090  -21.6390 C   0  0  2  0  0  0  0  0  0  0  0  0
  -31.6110   13.0720  -22.1780 O   0  0  0  0  0  0  0  0  0  0  0  0
  -31.4640   13.8250  -21.5850 H   0  0  0  0  0  0  0  0  0  0  0  0
  -31.4200   11.7180  -20.1860 C   0  0  2  0  0  0  0  0  0  0  0  0
  -30.5340   10.8040  -19.5360 O   0  0  0  0  0  0  0  0  0  0  0  0
  -30.3320   10.0680  -20.1350 H   0  0  0  0  0  0  0  0  0  0  0  0
  -32.8440   11.1580  -20.1530 C   0  0  2  0  0  0  0  0  0  0  0  0
  -33.2910   10.9170  -21.4880 O   0  0  0  0  0  0  0  0  0  0  0  0
  -32.5290   10.7140  -22.0530 H   0  0  0  0  0  0  0  0  0  0  0  0
  -33.7740   12.1670  -19.4770 C   0  0  0  0  0  0  0  0  0  0  0  0
  -34.7680   12.5960  -20.4090 O   0  0  0  0  0  0  0  0  0  0  0  0
  -34.5900   12.2030  -21.2770 H   0  0  0  0  0  0  0  0  0  0  0  0
  1 14  1  0  0  0  0
  1  2  1  0  0  0  0
  2  9  1  0  0  0  0
  3  2  1  0  0  0  0
  4  5  2  0  0  0  0
  5  6  1  0  0  0  0
  7  6  2  0  0  0  0
  8  7  1  0  0  0  0
  9  8  2  0  0  0  0
  9  4  1  0  0  0  0
 10  4  1  0  0  0  0
 11 10  2  0  0  0  0
 12 13  1  0  0  0  0
 13 10  1  0  0  0  0
 14 15  1  1  0  0  0
 14 17  1  0  0  0  0
 15 16  1  0  0  0  0
 17 20  1  0  0  0  0
 17 18  1  6  0  0  0
 19 18  1  0  0  0  0
 20 21  1  6  0  0  0
 20 23  1  0  0  0  0
 22 21  1  0  0  0  0
 24 23  1  0  0  0  0
 25 24  1  0  0  0  0
M  END
>  <MODEL>
1

>  <REMARK>
 VINA RESULT:      -6.5      0.000      0.000
  Name = ZINC04824070
                            x       y       z     vdW  Elec       q    Type
                         _______ _______ _______ _____ _____    ______ ____

>  <TORSDO>
F 12

>  <vina_score>
-6.5

$$$$
ZINC06244515
 OpenBabel01091701593D

 26 27  0  0  1  0  0  0  0  0999 V2000
  -28.5990   14.6910  -19.8420 C   0  0  0  0  0  0  0  0  0  0  0  0
  -29.1610   13.5420  -20.3910 C   0  0  0  0  0  0  0  0  0  0  0  0
  -28.3300   12.6810  -21.1320 C   0  0  2  0  0  0  0  0  0  0  0  0
  -27.0470   12.9940  -21.2740 N   0  0  0  0  0  0  0  0  0  0  0  0
  -26.5550   14.0960  -20.7290 C   0  0  0  0  0  0  0  0  0  0  0  0
  -27.3090   14.9280  -20.0260 N   0  0  0  0  0  0  0  0  0  0  0  0
  -26.9050   15.7350  -19.6330 H   0  0  0  0  0  0  0  0  0  0  0  0
  -30.6000   13.2340  -20.2040 C   0  0  0  0  0  0  0  0  0  0  0  0
  -31.4950   13.4040  -21.2590 C   0  0  0  0  0  0  0  0  0  0  0  0
  -32.8320   13.1170  -21.0780 C   0  0  0  0  0  0  0  0  0  0  0  0
  -33.2860   12.6620  -19.8510 C   0  0  0  0  0  0  0  0  0  0  0  0
  -34.9700   12.3030  -19.6310 Cl  0  0  0  0  0  0  0  0  0  0  0  0
  -32.4010   12.4920  -18.8000 C   0  0  0  0  0  0  0  0  0  0  0  0
  -31.0620   12.7770  -18.9700 C   0  0  0  0  0  0  0  0  0  0  0  0
  -32.9870   11.9200  -17.2410 S   0  0  0  0  0  0  0  0  0  0  0  0
  -31.7840   11.3870  -16.4760 O   0  0  0  0  0  0  0  0  0  0  0  0
  -33.8250   10.8030  -17.5070 O   0  0  0  0  0  0  0  0  0  0  0  0
  -33.4440   13.0630  -16.5340 O   0  0  0  0  0  0  0  0  0  0  0  0
  -28.8410   11.5290  -21.7040 N   0  0  0  0  0  0  0  0  0  0  0  0
  -29.0700   10.7570  -21.1360 H   0  0  0  0  0  0  0  0  0  0  0  0
  -28.9770   11.4810  -22.6770 H   0  0  0  0  0  0  0  0  0  0  0  0
  -25.2140   14.3880  -20.9010 N   0  0  0  0  0  0  0  0  0  0  0  0
  -24.7890   15.0930  -20.3590 H   0  0  0  0  0  0  0  0  0  0  0  0
  -24.6820   13.8920  -21.5640 H   0  0  0  0  0  0  0  0  0  0  0  0
  -30.0720   16.6810  -19.9860 C   0  0  0  0  0  0  0  0  0  0  0  0
  -29.4450   15.6500  -19.0450 C   0  0  0  0  0  0  0  0  0  0  0  0
  1 26  1  0  0  0  0
  2  8  1  0  0  0  0
  2  1  2  0  0  0  0
  3 19  1  6  0  0  0
  3  2  1  0  0  0  0
  4  3  1  0  0  0  0
  4  5  2  0  0  0  0
  5  6  1  0  0  0  0
  6  1  1  0  0  0  0
  6  7  1  0  0  0  0
  8 14  2  0  0  0  0
  9 10  2  0  0  0  0
  9  8  1  0  0  0  0
 10 11  1  0  0  0  0
 11 12  1  0  0  0  0
 11 13  2  0  0  0  0
 13 15  1  0  0  0  0
 14 13  1  0  0  0  0
 15 18  2  0  0  0  0
 15 16  1  0  0  0  0
 17 15  2  0  0  0  0
 19 20  1  0  0  0  0
 21 19  1  0  0  0  0
 22  5  1  0  0  0  0
 22 23  1  0  0  0  0
 24 22  1  0  0  0  0
 25 26  1  0  0  0  0
M  END
>  <MODEL>
1

>  <REMARK>
 VINA RESULT:      -6.5      0.000      0.000
  Name = ZINC06244515
                            x       y       z     vdW  Elec       q    Type
                         _______ _______ _______ _____ _____    ______ ____

>  <TORSDO>
F 5

>  <vina_score>
-6.5

$$$$
ZINC06030283
 OpenBabel01091702083D

 30 30  0  0  1  0  0  0  0  0999 V2000
  -29.5550   13.2670  -19.4540 C   0  0  2  0  0  0  0  0  0  0  0  0
  -29.5390   14.6810  -18.8670 C   0  0  1  0  0  0  0  0  0  0  0  0
  -28.3780   14.8010  -17.8740 C   0  0  1  0  0  0  0  0  0  0  0  0
  -27.0700   14.4530  -18.5910 C   0  0  1  0  0  0  0  0  0  0  0  0
  -27.1820   13.0480  -19.1890 C   0  0  1  0  0  0  0  0  0  0  0  0
  -28.2990   12.9970  -20.0780 O   0  0  0  0  0  0  0  0  0  0  0  0
  -29.3530   15.6640  -19.9520 N   0  0  0  0  0  0  0  0  0  0  0  0
  -28.5390   16.2400  -19.7410 H   0  0  0  0  0  0  0  0  0  0  0  0
  -29.2130   15.1700  -20.8330 H   0  0  0  0  0  0  0  0  0  0  0  0
  -30.5400   16.5320  -20.0640 C   0  0  0  0  0  0  0  0  0  0  0  0
  -28.3100   16.1380  -17.3770 O   0  0  0  0  0  0  0  0  0  0  0  0
  -28.0530   16.7380  -18.0950 H   0  0  0  0  0  0  0  0  0  0  0  0
  -26.8330   15.3990  -19.6360 O   0  0  0  0  0  0  0  0  0  0  0  0
  -26.7600   16.2880  -19.2580 H   0  0  0  0  0  0  0  0  0  0  0  0
  -30.6010   13.1650  -20.4220 O   0  0  0  0  0  0  0  0  0  0  0  0
  -31.4280   12.0100  -20.2640 C   0  0  2  0  0  0  0  0  0  0  0  0
  -31.4530   11.2300  -21.5530 C   0  0  0  0  0  0  0  0  0  0  0  0
  -31.4780   11.8120  -22.6100 O   0  0  0  0  0  0  0  0  0  0  0  0
  -32.8490   12.4450  -19.9030 C   0  0  1  0  0  0  0  0  0  0  0  0
  -32.3410   11.9960  -17.4980 C   0  0  0  0  0  0  0  0  0  0  0  0
  -32.8570   13.0390  -18.4930 C   0  0  2  0  0  0  0  0  0  0  0  0
  -34.1890   13.4150  -18.1410 O   0  0  0  0  0  0  0  0  0  0  0  0
  -34.2920   14.3750  -18.2400 H   0  0  0  0  0  0  0  0  0  0  0  0
  -33.2970   13.4290  -20.8370 O   0  0  0  0  0  0  0  0  0  0  0  0
  -32.5880   13.6200  -21.4710 H   0  0  0  0  0  0  0  0  0  0  0  0
  -33.7680   11.2520  -19.9500 C   0  0  0  0  0  0  0  0  0  0  0  0
  -34.9010   11.3770  -20.3490 O   0  0  0  0  0  0  0  0  0  0  0  0
  -25.9000   12.7170  -19.9580 C   0  0  0  0  0  0  0  0  0  0  0  0
  -26.2360   12.2830  -21.2770 O   0  0  0  0  0  0  0  0  0  0  0  0
  -25.5840   11.6320  -21.5800 H   0  0  0  0  0  0  0  0  0  0  0  0
  1 15  1  6  0  0  0
  1  2  1  0  0  0  0
  2  7  1  6  0  0  0
  2  3  1  0  0  0  0
  3 11  1  6  0  0  0
  4 13  1  6  0  0  0
  4  3  1  0  0  0  0
  5 28  1  6  0  0  0
  5  4  1  0  0  0  0
  6  1  1  0  0  0  0
  6  5  1  0  0  0  0
  7  8  1  0  0  0  0
  9  7  1  0  0  0  0
 10  7  1  0  0  0  0
 12 11  1  0  0  0  0
 13 14  1  0  0  0  0
 15 16  1  0  0  0  0
 16 17  1  6  0  0  0
 16 19  1  0  0  0  0
 18 17  2  0  0  0  0
 19 24  1  6  0  0  0
 19 21  1  0  0  0  0
 21 22  1  1  0  0  0
 21 20  1  0  0  0  0
 23 22  1  0  0  0  0
 25 24  1  0  0  0  0
 26 19  1  0  0  0  0
 27 26  2  0  0  0  0
 29 28  1  0  0  0  0
 30 29  1  0  0  0  0
M  END
>  <MODEL>
1

>  <REMARK>
 VINA RESULT:      -6.4      0.000      0.000
  Name = ZINC06030283
                            x       y       z     vdW  Elec       q    Type
                         _______ _______ _______ _____ _____    ______ ____

>  <TORSDO>
F 13

>  <vina_score>
-6.4

$$$$
ZINC21063225
 OpenBabel01091702123D

 22 23  0  0  0  0  0  0  0  0999 V2000
  -27.8190   15.0130  -17.9740 C   0  0  0  0  0  0  0  0  0  0  0  0
  -28.9510   14.5050  -17.3650 C   0  0  0  0  0  0  0  0  0  0  0  0
  -29.7330   13.5760  -18.0250 C   0  0  0  0  0  0  0  0  0  0  0  0
  -29.3770   13.1480  -19.2910 C   0  0  0  0  0  0  0  0  0  0  0  0
  -28.2460   13.6570  -19.9010 C   0  0  0  0  0  0  0  0  0  0  0  0
  -27.4670   14.5910  -19.2420 C   0  0  0  0  0  0  0  0  0  0  0  0
  -30.2270   12.1320  -20.0100 C   0  0  0  0  0  0  0  0  0  0  0  0
  -31.5570   12.9800  -20.9050 S   0  0  0  0  0  0  0  0  0  0  0  0
  -31.5580   14.3650  -20.5830 O   0  0  0  0  0  0  0  0  0  0  0  0
  -31.5850   12.5510  -22.2600 O   0  0  0  0  0  0  0  0  0  0  0  0
  -32.9570   12.3920  -20.2460 N   0  0  0  0  0  0  0  0  0  0  0  0
  -33.0510   12.2000  -18.8790 C   0  0  0  0  0  0  0  0  0  0  0  0
  -32.7300   11.0200  -18.3680 N   0  0  0  0  0  0  0  0  0  0  0  0
  -32.8080   10.8030  -17.0660 C   0  0  0  0  0  0  0  0  0  0  0  0
  -33.2310   11.8280  -16.2340 C   0  0  0  0  0  0  0  0  0  0  0  0
  -33.5600   13.0490  -16.8020 C   0  0  0  0  0  0  0  0  0  0  0  0
  -33.4600   13.2000  -18.1120 N   0  0  0  0  0  0  0  0  0  0  0  0
  -27.8620   13.1960  -21.2830 C   0  0  0  0  0  0  0  0  0  0  0  0
  -27.8430   14.3490  -22.1950 N   0  0  0  0  0  0  0  0  0  0  0  0
  -27.0300   14.9290  -21.9920 H   0  0  0  0  0  0  0  0  0  0  0  0
  -27.7930   14.0170  -23.1590 H   0  0  0  0  0  0  0  0  0  0  0  0
  -28.6930   14.8970  -22.0680 H   0  0  0  0  0  0  0  0  0  0  0  0
  1  2  1  0  0  0  0
  3  2  2  0  0  0  0
  4  3  1  0  0  0  0
  5  4  2  0  0  0  0
  5  6  1  0  0  0  0
  6  1  2  0  0  0  0
  7  4  1  0  0  0  0
  8  9  2  0  0  0  0
  8 11  1  0  0  0  0
  8  7  1  0  0  0  0
 10  8  2  0  0  0  0
 11 12  1  0  0  0  0
 12 13  2  0  0  0  0
 12 17  1  0  0  0  0
 13 14  1  0  0  0  0
 14 15  2  0  0  0  0
 16 15  1  0  0  0  0
 17 16  2  0  0  0  0
 18  5  1  0  0  0  0
 19 22  1  0  0  0  0
 19 20  1  0  0  0  0
 19 18  1  0  0  0  0
 21 19  1  0  0  0  0
M  END
>  <MODEL>
1

>  <REMARK>
 VINA RESULT:      -6.4      0.000      0.000
  Name = ZINC21063225
                            x       y       z     vdW  Elec       q    Type
                         _______ _______ _______ _____ _____    ______ ____

>  <TORSDO>
F 6

>  <vina_score>
-6.4

$$$$
ZINC25269233
 OpenBabel01091702133D

 24 25  0  0  0  0  0  0  0  0999 V2000
  -32.4500   14.0130  -20.6740 C   0  0  0  0  0  0  0  0  0  0  0  0
  -30.9860   13.6570  -20.6500 C   0  0  0  0  0  0  0  0  0  0  0  0
  -30.4810   12.9280  -21.6770 N   0  0  0  0  0  0  0  0  0  0  0  0
  -31.0710   12.6440  -22.4130 H   0  0  0  0  0  0  0  0  0  0  0  0
  -29.1710   12.5870  -21.6930 C   0  0  0  0  0  0  0  0  0  0  0  0
  -28.3430   13.0360  -20.5740 C   0  0  0  0  0  0  0  0  0  0  0  0
  -26.9860   12.8950  -20.2290 C   0  0  0  0  0  0  0  0  0  0  0  0
  -26.7840   13.5090  -19.0960 N   0  0  0  0  0  0  0  0  0  0  0  0
  -27.9850   14.0750  -18.6500 N   0  0  0  0  0  0  0  0  0  0  0  0
  -28.1650   14.8440  -17.4170 C   0  0  0  0  0  0  0  0  0  0  0  0
  -28.9550   13.7870  -19.5580 C   0  0  0  0  0  0  0  0  0  0  0  0
  -28.6990   11.9330  -22.6050 O   0  0  0  0  0  0  0  0  0  0  0  0
  -30.2650   14.0650  -19.6470 N   0  0  0  0  0  0  0  0  0  0  0  0
  -33.2850   12.7300  -20.7230 C   0  0  0  0  0  0  0  0  0  0  0  0
  -33.3380   12.4330  -18.2680 N   0  0  0  0  0  0  0  0  0  0  0  0
  -33.7230   13.3370  -18.1990 H   0  0  0  0  0  0  0  0  0  0  0  0
  -33.0340   11.9210  -19.4770 C   0  0  0  0  0  0  0  0  0  0  0  0
  -32.5600   10.8080  -19.5610 O   0  0  0  0  0  0  0  0  0  0  0  0
  -33.0940   11.6470  -17.0560 C   0  0  0  0  0  0  0  0  0  0  0  0
  -35.3560   12.0020  -13.9880 C   0  0  0  0  0  0  0  0  0  0  0  0
  -34.5960   11.4310  -15.1020 N   0  0  0  0  0  0  0  0  0  0  0  0
  -34.6100   10.4590  -15.2610 H   0  0  0  0  0  0  0  0  0  0  0  0
  -33.8770   12.2350  -15.9100 C   0  0  0  0  0  0  0  0  0  0  0  0
  -33.8590   13.4310  -15.7140 O   0  0  0  0  0  0  0  0  0  0  0  0
  1  2  1  0  0  0  0
  2 13  2  0  0  0  0
  3  2  1  0  0  0  0
  4  3  1  0  0  0  0
  5  3  1  0  0  0  0
  5  6  1  0  0  0  0
  6  7  1  0  0  0  0
  6 11  2  0  0  0  0
  7  8  2  0  0  0  0
  8  9  1  0  0  0  0
  9 10  1  0  0  0  0
 11  9  1  0  0  0  0
 12  5  2  0  0  0  0
 13 11  1  0  0  0  0
 14  1  1  0  0  0  0
 14 17  1  0  0  0  0
 15 16  1  0  0  0  0
 15 19  1  0  0  0  0
 17 15  1  0  0  0  0
 18 17  2  0  0  0  0
 19 23  1  0  0  0  0
 21 20  1  0  0  0  0
 22 21  1  0  0  0  0
 23 24  2  0  0  0  0
 23 21  1  0  0  0  0
M  END
>  <MODEL>
1

>  <REMARK>
 VINA RESULT:      -6.4      0.000      0.000
  Name = ZINC25269233
                            x       y       z     vdW  Elec       q    Type
                         _______ _______ _______ _____ _____    ______ ____

>  <TORSDO>
F 5

>  <vina_score>
-6.4

$$$$
ZINC04593373
 OpenBabel01091701553D

 26 27  0  0  0  0  0  0  0  0999 V2000
  -30.1390   14.2810  -19.9650 C   0  0  0  0  0  0  0  0  0  0  0  0
  -30.7890   13.7630  -18.6790 C   0  0  0  0  0  0  0  0  0  0  0  0
  -32.3130   13.8260  -18.8230 C   0  0  0  0  0  0  0  0  0  0  0  0
  -32.7050   13.0930  -20.0350 N   0  0  0  0  0  0  0  0  0  0  0  0
  -33.6270   12.1110  -19.9760 C   0  0  0  0  0  0  0  0  0  0  0  0
  -33.9420   11.5140  -20.9830 O   0  0  0  0  0  0  0  0  0  0  0  0
  -32.0720   13.4500  -21.3110 C   0  0  0  0  0  0  0  0  0  0  0  0
  -30.5500   13.3920  -21.1410 C   0  0  0  0  0  0  0  0  0  0  0  0
  -26.0400   13.0610  -19.9920 C   0  0  0  0  0  0  0  0  0  0  0  0
  -26.5340   14.0710  -21.0320 C   0  0  0  0  0  0  0  0  0  0  0  0
  -28.0550   13.9650  -21.1570 C   0  0  0  0  0  0  0  0  0  0  0  0
  -28.6660   14.2630  -19.8450 N   0  0  0  0  0  0  0  0  0  0  0  0
  -28.3490   15.1810  -19.5340 H   0  0  0  0  0  0  0  0  0  0  0  0
  -28.2530   13.2520  -18.8500 C   0  0  0  0  0  0  0  0  0  0  0  0
  -26.7380   13.3360  -18.6560 C   0  0  0  0  0  0  0  0  0  0  0  0
  -30.5920   15.6950  -20.2220 C   0  0  0  0  0  0  0  0  0  0  0  0
  -29.6840   16.6860  -20.3160 N   0  0  0  0  0  0  0  0  0  0  0  0
  -29.9790   17.6110  -20.4840 H   0  0  0  0  0  0  0  0  0  0  0  0
  -28.7250   16.4870  -20.2170 H   0  0  0  0  0  0  0  0  0  0  0  0
  -31.7730   15.9410  -20.3440 O   0  0  0  0  0  0  0  0  0  0  0  0
  -34.2670   11.7570  -18.6580 C   0  0  0  0  0  0  0  0  0  0  0  0
  -33.3520   10.8030  -17.8870 C   0  0  0  0  0  0  0  0  0  0  0  0
  -32.8440   11.4960  -16.6220 C   0  0  0  0  0  0  0  0  0  0  0  0
  -34.0000   11.7490  -15.6890 C   0  0  0  0  0  0  0  0  0  0  0  0
  -34.3710   13.0080  -15.4050 O   0  0  0  0  0  0  0  0  0  0  0  0
  -34.5950   10.8190  -15.1980 O   0  0  0  0  0  0  0  0  0  0  0  0
  1 12  1  0  0  0  0
  1  2  1  0  0  0  0
  3  2  1  0  0  0  0
  4  5  1  0  0  0  0
  4  3  1  0  0  0  0
  5 21  1  0  0  0  0
  6  5  2  0  0  0  0
  7  8  1  0  0  0  0
  7  4  1  0  0  0  0
  8  1  1  0  0  0  0
  9 15  1  0  0  0  0
 10  9  1  0  0  0  0
 11 10  1  0  0  0  0
 11 12  1  0  0  0  0
 12 13  1  0  0  0  0
 12 14  1  0  0  0  0
 14 15  1  0  0  0  0
 16  1  1  0  0  0  0
 17 16  1  0  0  0  0
 17 19  1  0  0  0  0
 18 17  1  0  0  0  0
 20 16  2  0  0  0  0
 21 22  1  0  0  0  0
 22 23  1  0  0  0  0
 23 24  1  0  0  0  0
 24 25  2  0  0  0  0
 24 26  1  0  0  0  0
M  END
>  <MODEL>
1

>  <REMARK>
 VINA RESULT:      -6.4      0.000      0.000
  Name = ZINC04593373
                            x       y       z     vdW  Elec       q    Type
                         _______ _______ _______ _____ _____    ______ ____

>  <TORSDO>
F 6

>  <vina_score>
-6.4

$$$$
ZINC31792221
 OpenBabel01091701513D

 22 23  0  0  0  0  0  0  0  0999 V2000
  -27.7270   14.5200  -17.7880 C   0  0  0  0  0  0  0  0  0  0  0  0
  -28.6280   13.4250  -18.2960 C   0  0  0  0  0  0  0  0  0  0  0  0
  -28.3700   12.8060  -19.4730 C   0  0  0  0  0  0  0  0  0  0  0  0
  -29.7240   11.6420  -19.5400 S   0  0  0  0  0  0  0  0  0  0  0  0
  -30.4810   12.0890  -18.0410 C   0  0  0  0  0  0  0  0  0  0  0  0
  -29.6900   13.0510  -17.6070 N   0  0  0  0  0  0  0  0  0  0  0  0
  -27.2470   13.0320  -20.4520 C   0  0  0  0  0  0  0  0  0  0  0  0
  -27.8080   13.5700  -21.7430 C   0  0  0  0  0  0  0  0  0  0  0  0
  -27.8810   14.9010  -21.9430 N   0  0  0  0  0  0  0  0  0  0  0  0
  -28.2470   15.2520  -22.7870 H   0  0  0  0  0  0  0  0  0  0  0  0
  -27.5670   15.5210  -21.2460 H   0  0  0  0  0  0  0  0  0  0  0  0
  -28.1940   12.8060  -22.6020 O   0  0  0  0  0  0  0  0  0  0  0  0
  -31.9320   11.4250  -17.2940 S   0  0  0  0  0  0  0  0  0  0  0  0
  -32.9020   12.9400  -17.0930 C   0  0  0  0  0  0  0  0  0  0  0  0
  -34.0560   12.9430  -18.0970 C   0  0  0  0  0  0  0  0  0  0  0  0
  -33.5170   12.9300  -19.4600 N   0  0  0  0  0  0  0  0  0  0  0  0
  -32.7120   13.8850  -19.9640 C   0  0  0  0  0  0  0  0  0  0  0  0
  -32.4090   13.4580  -21.3870 C   0  0  0  0  0  0  0  0  0  0  0  0
  -33.1500   12.1920  -21.5330 N   0  0  0  0  0  0  0  0  0  0  0  0
  -32.3120   14.8800  -19.3980 O   0  0  0  0  0  0  0  0  0  0  0  0
  -33.7600   11.9660  -20.3550 C   0  0  0  0  0  0  0  0  0  0  0  0
  -34.4570   10.9950  -20.1310 O   0  0  0  0  0  0  0  0  0  0  0  0
  2  1  1  0  0  0  0
  2  6  1  0  0  0  0
  3  2  2  0  0  0  0
  4  3  1  0  0  0  0
  4  5  1  0  0  0  0
  5  6  2  0  0  0  0
  5 13  1  0  0  0  0
  7  3  1  0  0  0  0
  8  7  1  0  0  0  0
  9  8  1  0  0  0  0
  9 11  1  0  0  0  0
 10  9  1  0  0  0  0
 12  8  2  0  0  0  0
 13 14  1  0  0  0  0
 15 14  1  0  0  0  0
 16 15  1  0  0  0  0
 17 16  1  0  0  0  0
 17 20  2  0  0  0  0
 18 17  1  0  0  0  0
 19 18  2  0  0  0  0
 19 21  1  0  0  0  0
 21 22  2  0  0  0  0
 21 16  1  0  0  0  0
M  END
>  <MODEL>
1

>  <REMARK>
 VINA RESULT:      -6.3      0.000      0.000
  Name = ZINC31792221
                            x       y       z     vdW  Elec       q    Type
                         _______ _______ _______ _____ _____    ______ ____

>  <TORSDO>
F 6

>  <vina_score>
-6.3

$$$$
ZINC05840091
 OpenBabel01091702063D

 26 28  0  0  1  0  0  0  0  0999 V2000
  -28.1110   13.3790  -20.1400 C   0  0  0  0  0  0  0  0  0  0  0  0
  -29.1120   12.5140  -19.7450 C   0  0  0  0  0  0  0  0  0  0  0  0
  -29.7160   11.6800  -20.6760 C   0  0  0  0  0  0  0  0  0  0  0  0
  -29.3130   11.7170  -22.0060 C   0  0  0  0  0  0  0  0  0  0  0  0
  -28.3130   12.5830  -22.3990 C   0  0  0  0  0  0  0  0  0  0  0  0
  -27.7130   13.4190  -21.4690 C   0  0  0  0  0  0  0  0  0  0  0  0
  -30.7300   10.8030  -20.2760 N   0  0  0  0  0  0  0  0  0  0  0  0
  -30.5460    9.8400  -20.1970 H   0  0  0  0  0  0  0  0  0  0  0  0
  -31.9620   11.2790  -19.9980 C   0  0  0  0  0  0  0  0  0  0  0  0
  -32.7390   11.7720  -20.9470 N   0  0  0  0  0  0  0  0  0  0  0  0
  -33.9400   12.2920  -20.7210 C   0  0  0  0  0  0  0  0  0  0  0  0
  -34.3390   12.6630  -19.5080 N   0  0  0  0  0  0  0  0  0  0  0  0
  -33.4650   12.4610  -18.5250 C   0  0  2  0  0  0  0  0  0  0  0  0
  -33.1650   13.0590  -17.4160 N   0  0  0  0  0  0  0  0  0  0  0  0
  -31.9910   12.6330  -16.9310 C   0  0  0  0  0  0  0  0  0  0  0  0
  -31.5150   11.6050  -17.5760 N   0  0  0  0  0  0  0  0  0  0  0  0
  -32.5090   11.2610  -18.5940 C   0  0  2  0  0  0  0  0  0  0  0  0
  -26.7320   14.2760  -21.8590 O   0  0  0  0  0  0  0  0  0  0  0  0
  -26.2140   14.0820  -22.6160 H   0  0  0  0  0  0  0  0  0  0  0  0
  -27.4550   14.2840  -19.1300 C   0  0  0  0  0  0  0  0  0  0  0  0
  -28.2080   15.5550  -19.0750 N   0  0  0  0  0  0  0  0  0  0  0  0
  -27.6340   16.2980  -19.4730 H   0  0  0  0  0  0  0  0  0  0  0  0
  -28.6170   14.5980  -16.8600 C   0  0  0  0  0  0  0  0  0  0  0  0
  -28.5260   15.8930  -17.6720 C   0  0  0  0  0  0  0  0  0  0  0  0
  -29.4540   15.4380  -19.8620 C   0  0  0  0  0  0  0  0  0  0  0  0
  -30.0850   16.8260  -19.9910 C   0  0  0  0  0  0  0  0  0  0  0  0
  1  2  1  0  0  0  0
  1 20  1  0  0  0  0
  3  7  1  0  0  0  0
  3  2  2  0  0  0  0
  4  3  1  0  0  0  0
  5  4  2  0  0  0  0
  5  6  1  0  0  0  0
  6  1  2  0  0  0  0
  7  8  1  0  0  0  0
  7  9  1  0  0  0  0
 10 11  1  0  0  0  0
 10  9  2  0  0  0  0
 11 12  2  0  0  0  0
 13 12  1  6  0  0  0
 13 14  1  0  0  0  0
 14 15  1  0  0  0  0
 16 15  1  0  0  0  0
 17  9  1  6  0  0  0
 17 13  1  0  0  0  0
 17 16  1  0  0  0  0
 18  6  1  0  0  0  0
 19 18  1  0  0  0  0
 20 21  1  0  0  0  0
 21 24  1  0  0  0  0
 22 21  1  0  0  0  0
 24 23  1  0  0  0  0
 25 21  1  0  0  0  0
 26 25  1  0  0  0  0
M  END
>  <MODEL>
1

>  <REMARK>
 VINA RESULT:      -6.3      0.000      0.000
  Name = ZINC05840091
                            x       y       z     vdW  Elec       q    Type
                         _______ _______ _______ _____ _____    ______ ____

>  <TORSDO>
F 7

>  <vina_score>
-6.3

$$$$
ZINC31448830
 OpenBabel01091702083D

 25 26  0  0  1  0  0  0  0  0999 V2000
  -28.6110   12.6670  -21.1390 C   0  0  0  0  0  0  0  0  0  0  0  0
  -27.3130   12.4710  -20.9590 N   0  0  0  0  0  0  0  0  0  0  0  0
  -26.8780   11.6900  -21.3700 H   0  0  0  0  0  0  0  0  0  0  0  0
  -26.5910   13.3170  -20.2280 C   0  0  1  0  0  0  0  0  0  0  0  0
  -27.2190   14.4120  -19.6420 C   0  0  0  0  0  0  0  0  0  0  0  0
  -28.5850   14.5820  -19.8490 C   0  0  0  0  0  0  0  0  0  0  0  0
  -29.2410   13.6990  -20.5960 N   0  0  0  0  0  0  0  0  0  0  0  0
  -25.2320   13.1080  -20.0490 N   0  0  0  0  0  0  0  0  0  0  0  0
  -24.8340   12.2370  -20.2780 H   0  0  0  0  0  0  0  0  0  0  0  0
  -24.6660   13.8300  -19.6920 H   0  0  0  0  0  0  0  0  0  0  0  0
  -29.2510   15.6590  -19.2850 N   0  0  0  0  0  0  0  0  0  0  0  0
  -30.2320   15.6410  -19.2010 H   0  0  0  0  0  0  0  0  0  0  0  0
  -28.7440   16.4400  -18.9670 H   0  0  0  0  0  0  0  0  0  0  0  0
  -29.5240   11.5230  -22.1200 S   0  0  0  0  0  0  0  0  0  0  0  0
  -31.2060   12.1170  -21.8120 C   0  0  0  0  0  0  0  0  0  0  0  0
  -32.0270   11.0040  -21.1580 C   0  0  0  0  0  0  0  0  0  0  0  0
  -31.8460   13.0800  -16.9470 C   0  0  0  0  0  0  0  0  0  0  0  0
  -32.5470   11.8780  -17.5860 C   0  0  0  0  0  0  0  0  0  0  0  0
  -32.8410   10.8050  -16.5360 C   0  0  0  0  0  0  0  0  0  0  0  0
  -31.7090   11.3030  -18.7100 C   0  0  0  0  0  0  0  0  0  0  0  0
  -32.4550   11.4340  -19.8240 N   0  0  0  0  0  0  0  0  0  0  0  0
  -33.6400   11.9990  -19.5620 C   0  0  0  0  0  0  0  0  0  0  0  0
  -34.4870   12.2170  -20.4050 O   0  0  0  0  0  0  0  0  0  0  0  0
  -30.5980   10.8270  -18.6250 O   0  0  0  0  0  0  0  0  0  0  0  0
  -33.7880   12.2990  -18.2590 N   0  0  0  0  0  0  0  0  0  0  0  0
  1  2  1  0  0  0  0
  1  7  2  0  0  0  0
  2  4  1  0  0  0  0
  3  2  1  0  0  0  0
  4  8  1  1  0  0  0
  4  5  1  0  0  0  0
  6  5  2  0  0  0  0
  6 11  1  0  0  0  0
  7  6  1  0  0  0  0
  8 10  1  0  0  0  0
  9  8  1  0  0  0  0
 11 12  1  0  0  0  0
 11 13  1  0  0  0  0
 14 15  1  0  0  0  0
 14  1  1  0  0  0  0
 15 16  1  0  0  0  0
 16 21  1  0  0  0  0
 18 17  1  0  0  0  0
 18 19  1  0  0  0  0
 20 24  2  0  0  0  0
 20 18  1  0  0  0  0
 21 22  1  0  0  0  0
 21 20  1  0  0  0  0
 22 25  1  0  0  0  0
 23 22  2  0  0  0  0
 25 18  1  0  0  0  0
M  END
>  <MODEL>
1

>  <REMARK>
 VINA RESULT:      -6.3      0.000      0.000
  Name = ZINC31448830
                            x       y       z     vdW  Elec       q    Type
                         _______ _______ _______ _____ _____    ______ ____

>  <TORSDO>
F 6

>  <vina_score>
-6.3

$$$$
ZINC10315609
 OpenBabel01091701513D

 26 27  0  0  0  0  0  0  0  0999 V2000
  -27.9180   12.5090  -21.9830 N   0  0  0  0  0  0  0  0  0  0  0  0
  -27.2600   12.7590  -22.7210 H   0  0  0  0  0  0  0  0  0  0  0  0
  -27.4200   12.0800  -21.2020 H   0  0  0  0  0  0  0  0  0  0  0  0
  -28.5970   13.7320  -21.5130 C   0  0  0  0  0  0  0  0  0  0  0  0
  -27.0420   13.3970  -18.0880 C   0  0  0  0  0  0  0  0  0  0  0  0
  -27.8380   14.2370  -17.3290 C   0  0  0  0  0  0  0  0  0  0  0  0
  -28.8830   14.9190  -17.9170 C   0  0  0  0  0  0  0  0  0  0  0  0
  -29.1370   14.7600  -19.2810 C   0  0  0  0  0  0  0  0  0  0  0  0
  -28.3290   13.9110  -20.0410 C   0  0  0  0  0  0  0  0  0  0  0  0
  -27.2910   13.2310  -19.4390 C   0  0  0  0  0  0  0  0  0  0  0  0
  -30.2550   15.4860  -19.9180 C   0  0  0  0  0  0  0  0  0  0  0  0
  -31.4400   14.8710  -20.1000 O   0  0  0  0  0  0  0  0  0  0  0  0
  -30.1060   16.6370  -20.2770 O   0  0  0  0  0  0  0  0  0  0  0  0
  -28.9030   11.5510  -22.5190 C   0  0  0  0  0  0  0  0  0  0  0  0
  -30.2560   11.7950  -21.8470 C   0  0  0  0  0  0  0  0  0  0  0  0
  -30.4590   10.8060  -20.7850 N   0  0  0  0  0  0  0  0  0  0  0  0
  -30.0560    9.9110  -20.8620 H   0  0  0  0  0  0  0  0  0  0  0  0
  -31.2220   11.1330  -19.6630 C   0  0  0  0  0  0  0  0  0  0  0  0
  -32.5980   10.9440  -19.6760 C   0  0  0  0  0  0  0  0  0  0  0  0
  -33.3500   11.2680  -18.5640 C   0  0  0  0  0  0  0  0  0  0  0  0
  -32.7340   11.7820  -17.4370 C   0  0  0  0  0  0  0  0  0  0  0  0
  -31.3650   11.9720  -17.4200 C   0  0  0  0  0  0  0  0  0  0  0  0
  -30.6070   11.6500  -18.5290 C   0  0  0  0  0  0  0  0  0  0  0  0
  -33.5430   12.1290  -16.2470 N   0  0  0  0  0  0  0  0  0  0  0  0
  -34.2280   11.2800  -15.7080 O   0  0  0  0  0  0  0  0  0  0  0  0
  -33.5220   13.2650  -15.8070 O   0  0  0  0  0  0  0  0  0  0  0  0
  1  4  1  0  0  0  0
  1  3  1  0  0  0  0
  2  1  1  0  0  0  0
  4  9  1  0  0  0  0
  5  6  2  0  0  0  0
  7  6  1  0  0  0  0
  8  7  2  0  0  0  0
  9 10  2  0  0  0  0
  9  8  1  0  0  0  0
 10  5  1  0  0  0  0
 11  8  1  0  0  0  0
 12 11  1  0  0  0  0
 13 11  2  0  0  0  0
 14  1  1  0  0  0  0
 14 15  1  0  0  0  0
 15 16  1  0  0  0  0
 16 18  1  0  0  0  0
 17 16  1  0  0  0  0
 18 23  1  0  0  0  0
 19 18  2  0  0  0  0
 19 20  1  0  0  0  0
 20 21  2  0  0  0  0
 21 22  1  0  0  0  0
 21 24  1  0  0  0  0
 23 22  2  0  0  0  0
 24 26  2  0  0  0  0
 24 25  2  0  0  0  0
M  END
>  <MODEL>
1

>  <REMARK>
 VINA RESULT:      -6.3      0.000      0.000
  Name = ZINC10315609
                            x       y       z     vdW  Elec       q    Type
                         _______ _______ _______ _____ _____    ______ ____

>  <TORSDO>
F 8

>  <vina_score>
-6.3

$$$$
ZINC06928583
 OpenBabel01091702133D

 23 24  0  0  1  0  0  0  0  0999 V2000
  -30.9520   11.4160  -19.1180 C   0  0  2  0  0  0  0  0  0  0  0  0
  -29.6220   11.9330  -19.6920 C   0  0  1  0  0  0  0  0  0  0  0  0
  -29.8360   12.1480  -21.1230 N   0  0  0  0  0  0  0  0  0  0  0  0
  -31.0890   11.8430  -21.4830 C   0  0  0  0  0  0  0  0  0  0  0  0
  -31.5210   11.9380  -22.6120 O   0  0  0  0  0  0  0  0  0  0  0  0
  -31.8800   11.3670  -20.3130 C   0  0  0  0  0  0  0  0  0  0  0  0
  -33.0360   11.0160  -20.3170 O   0  0  0  0  0  0  0  0  0  0  0  0
  -29.2440   13.2310  -19.0260 C   0  0  0  0  0  0  0  0  0  0  0  0
  -29.7260   14.4280  -19.5210 C   0  0  0  0  0  0  0  0  0  0  0  0
  -29.3830   15.6180  -18.9080 C   0  0  0  0  0  0  0  0  0  0  0  0
  -28.5490   15.6110  -17.8040 C   0  0  0  0  0  0  0  0  0  0  0  0
  -28.0610   14.4150  -17.3130 C   0  0  0  0  0  0  0  0  0  0  0  0
  -28.4090   13.2250  -17.9240 C   0  0  0  0  0  0  0  0  0  0  0  0
  -33.0430   11.6850  -17.2240 C   0  0  0  0  0  0  0  0  0  0  0  0
  -31.5900   12.5610  -17.8650 S   0  0  0  0  0  0  0  0  0  0  0  0
  -32.0310   13.7430  -18.5190 O   0  0  0  0  0  0  0  0  0  0  0  0
  -30.6310   12.6660  -16.8210 O   0  0  0  0  0  0  0  0  0  0  0  0
  -28.8100   12.6420  -22.0450 C   0  0  0  0  0  0  0  0  0  0  0  0
  -27.4310   12.4990  -21.3980 C   0  0  0  0  0  0  0  0  0  0  0  0
  -26.7590   13.8110  -21.4040 N   0  0  0  0  0  0  0  0  0  0  0  0
  -27.1160   14.3710  -22.1780 H   0  0  0  0  0  0  0  0  0  0  0  0
  -26.9430   14.2920  -20.5230 H   0  0  0  0  0  0  0  0  0  0  0  0
  -25.7540   13.6770  -21.5160 H   0  0  0  0  0  0  0  0  0  0  0  0
  1 15  1  1  0  0  0
  2  1  1  0  0  0  0
  2  8  1  1  0  0  0
  3  2  1  0  0  0  0
  4  3  1  0  0  0  0
  4  6  1  0  0  0  0
  5  4  2  0  0  0  0
  6  1  1  0  0  0  0
  7  6  2  0  0  0  0
  8 13  1  0  0  0  0
  9  8  2  0  0  0  0
  9 10  1  0  0  0  0
 10 11  2  0  0  0  0
 11 12  1  0  0  0  0
 13 12  2  0  0  0  0
 15 14  1  0  0  0  0
 15 17  2  0  0  0  0
 16 15  2  0  0  0  0
 18 19  1  0  0  0  0
 18  3  1  0  0  0  0
 20 19  1  0  0  0  0
 20 22  1  0  0  0  0
 21 20  1  0  0  0  0
 23 20  1  0  0  0  0
M  END
>  <MODEL>
1

>  <REMARK>
 VINA RESULT:      -6.3      0.000      0.000
  Name = ZINC06928583
                            x       y       z     vdW  Elec       q    Type
                         _______ _______ _______ _____ _____    ______ ____

>  <TORSDO>
F 5

>  <vina_score>
-6.3

$$$$
ZINC05996380
 OpenBabel01091702133D

 19 19  0  0  0  0  0  0  0  0999 V2000
  -29.7470   14.8380  -18.7730 C   0  0  0  0  0  0  0  0  0  0  0  0
  -30.1460   13.7280  -18.0510 C   0  0  0  0  0  0  0  0  0  0  0  0
  -31.3540   13.1160  -18.3290 C   0  0  0  0  0  0  0  0  0  0  0  0
  -32.1690   13.6170  -19.3320 C   0  0  0  0  0  0  0  0  0  0  0  0
  -31.7660   14.7310  -20.0620 C   0  0  0  0  0  0  0  0  0  0  0  0
  -30.5550   15.3410  -19.7750 C   0  0  0  0  0  0  0  0  0  0  0  0
  -32.5590   15.2220  -21.0510 O   0  0  0  0  0  0  0  0  0  0  0  0
  -33.0650   15.9960  -20.9050 H   0  0  0  0  0  0  0  0  0  0  0  0
  -28.4290   15.5000  -18.4660 C   0  0  0  0  0  0  0  0  0  0  0  0
  -27.2980   14.4830  -18.6280 C   0  0  0  0  0  0  0  0  0  0  0  0
  -26.3000   13.3020  -20.4920 C   0  0  0  0  0  0  0  0  0  0  0  0
  -26.7120   14.6200  -19.9750 N   0  0  0  0  0  0  0  0  0  0  0  0
  -25.8930   15.2260  -19.9200 H   0  0  0  0  0  0  0  0  0  0  0  0
  -27.4050   15.0270  -20.6030 H   0  0  0  0  0  0  0  0  0  0  0  0
  -33.3580   13.0170  -19.6060 O   0  0  0  0  0  0  0  0  0  0  0  0
  -33.2540   11.8450  -20.5700 S   0  0  0  0  0  0  0  0  0  0  0  0
  -32.3640   12.2890  -21.7230 O   0  0  0  0  0  0  0  0  0  0  0  0
  -32.5500   10.8180  -19.8870 O   0  0  0  0  0  0  0  0  0  0  0  0
  -34.5520   11.6480  -21.1120 O   0  0  0  0  0  0  0  0  0  0  0  0
  1  9  1  0  0  0  0
  1  2  2  0  0  0  0
  3  2  1  0  0  0  0
  4  3  2  0  0  0  0
  5  6  2  0  0  0  0
  5  4  1  0  0  0  0
  6  1  1  0  0  0  0
  7  8  1  0  0  0  0
  7  5  1  0  0  0  0
 10  9  1  0  0  0  0
 11 12  1  0  0  0  0
 12 13  1  0  0  0  0
 12 10  1  0  0  0  0
 14 12  1  0  0  0  0
 15  4  1  0  0  0  0
 16 18  1  0  0  0  0
 16 15  1  0  0  0  0
 17 16  2  0  0  0  0
 19 16  2  0  0  0  0
M  END
>  <MODEL>
1

>  <REMARK>
 VINA RESULT:      -6.3      0.000      0.000
  Name = ZINC05996380
                            x       y       z     vdW  Elec       q    Type
                         _______ _______ _______ _____ _____    ______ ____

>  <TORSDO>
F 6

>  <vina_score>
-6.3

$$$$
ZINC04504181
 OpenBabel01091701553D

 24 25  0  0  1  0  0  0  0  0999 V2000
  -28.2970   15.1130  -19.7050 N   0  0  0  0  0  0  0  0  0  0  0  0
  -28.2170   16.0680  -20.0540 H   0  0  0  0  0  0  0  0  0  0  0  0
  -28.7450   14.5220  -20.4060 H   0  0  0  0  0  0  0  0  0  0  0  0
  -26.9480   14.5920  -19.4180 C   0  0  0  0  0  0  0  0  0  0  0  0
  -26.5010   13.6930  -20.5730 C   0  0  2  0  0  0  0  0  0  0  0  0
  -30.5730   10.9360  -20.9130 C   0  0  0  0  0  0  0  0  0  0  0  0
  -29.4300   11.7810  -21.2700 N   0  0  0  0  0  0  0  0  0  0  0  0
  -28.5580   12.2480  -20.4430 N   0  0  0  0  0  0  0  0  0  0  0  0
  -27.6920   12.9550  -21.1260 C   0  0  0  0  0  0  0  0  0  0  0  0
  -28.0700   12.9030  -22.4030 N   0  0  0  0  0  0  0  0  0  0  0  0
  -29.1360   12.1770  -22.4590 N   0  0  0  0  0  0  0  0  0  0  0  0
  -25.5350   12.7520  -20.0990 O   0  0  0  0  0  0  0  0  0  0  0  0
  -25.7840   12.4540  -19.2110 H   0  0  0  0  0  0  0  0  0  0  0  0
  -29.1160   15.1180  -18.4790 C   0  0  0  0  0  0  0  0  0  0  0  0
  -30.4510   14.4820  -18.7730 C   0  0  0  0  0  0  0  0  0  0  0  0
  -31.1210   14.7970  -19.9410 C   0  0  0  0  0  0  0  0  0  0  0  0
  -32.3430   14.2120  -20.2190 C   0  0  0  0  0  0  0  0  0  0  0  0
  -32.9030   13.3180  -19.3210 C   0  0  0  0  0  0  0  0  0  0  0  0
  -32.2310   13.0060  -18.1430 C   0  0  0  0  0  0  0  0  0  0  0  0
  -31.0040   13.5910  -17.8740 C   0  0  0  0  0  0  0  0  0  0  0  0
  -34.1070   12.7460  -19.5900 O   0  0  0  0  0  0  0  0  0  0  0  0
  -34.1400   11.7580  -20.6230 C   0  0  0  0  0  0  0  0  0  0  0  0
  -32.7760   12.1270  -17.2590 O   0  0  0  0  0  0  0  0  0  0  0  0
  -33.4170   12.6790  -16.1080 C   0  0  0  0  0  0  0  0  0  0  0  0
  1  4  1  0  0  0  0
  1 14  1  0  0  0  0
  2  1  1  0  0  0  0
  3  1  1  0  0  0  0
  5  9  1  1  0  0  0
  5 12  1  0  0  0  0
  5  4  1  0  0  0  0
  7  6  1  0  0  0  0
  7  8  1  0  0  0  0
  9  8  2  0  0  0  0
 10  9  1  0  0  0  0
 11 10  2  0  0  0  0
 11  7  1  0  0  0  0
 12 13  1  0  0  0  0
 15 14  1  0  0  0  0
 15 20  2  0  0  0  0
 16 15  1  0  0  0  0
 17 16  2  0  0  0  0
 17 18  1  0  0  0  0
 18 19  2  0  0  0  0
 19 20  1  0  0  0  0
 19 23  1  0  0  0  0
 21 18  1  0  0  0  0
 22 21  1  0  0  0  0
 23 24  1  0  0  0  0
M  END
>  <MODEL>
1

>  <REMARK>
 VINA RESULT:      -6.3      0.000      0.000
  Name = ZINC04504181
                            x       y       z     vdW  Elec       q    Type
                         _______ _______ _______ _____ _____    ______ ____

>  <TORSDO>
F 8

>  <vina_score>
-6.3

$$$$
ZINC06223307
 OpenBabel01091701563D

 22 23  0  0  0  0  0  0  0  0999 V2000
  -29.9230   14.0910  -17.9080 N   0  0  0  0  0  0  0  0  0  0  0  0
  -30.4880   12.9230  -17.8610 C   0  0  0  0  0  0  0  0  0  0  0  0
  -31.5930   12.6070  -18.7720 C   0  0  0  0  0  0  0  0  0  0  0  0
  -31.3540   12.0190  -20.0150 C   0  0  0  0  0  0  0  0  0  0  0  0
  -30.0970   11.7320  -20.4030 O   0  0  0  0  0  0  0  0  0  0  0  0
  -32.4130   11.7410  -20.8310 N   0  0  0  0  0  0  0  0  0  0  0  0
  -32.2490   11.3270  -21.7100 H   0  0  0  0  0  0  0  0  0  0  0  0
  -33.6720   12.0220  -20.4600 C   0  0  0  0  0  0  0  0  0  0  0  0
  -33.9620   12.5870  -19.2770 N   0  0  0  0  0  0  0  0  0  0  0  0
  -34.8990   12.7810  -19.0460 H   0  0  0  0  0  0  0  0  0  0  0  0
  -34.5810   11.7560  -21.2230 O   0  0  0  0  0  0  0  0  0  0  0  0
  -32.9830   12.8920  -18.4000 C   0  0  0  0  0  0  0  0  0  0  0  0
  -33.2470   13.3990  -17.3250 O   0  0  0  0  0  0  0  0  0  0  0  0
  -28.8180   14.4070  -16.9980 C   0  0  0  0  0  0  0  0  0  0  0  0
  -27.4860   14.1770  -17.7140 C   0  0  0  0  0  0  0  0  0  0  0  0
  -27.4350   15.0290  -18.9840 C   0  0  0  0  0  0  0  0  0  0  0  0
  -27.7700   13.3960  -22.1690 C   0  0  0  0  0  0  0  0  0  0  0  0
  -27.9850   14.4390  -21.3450 C   0  0  0  0  0  0  0  0  0  0  0  0
  -27.4270   14.1530  -20.1590 N   0  0  0  0  0  0  0  0  0  0  0  0
  -26.8700   12.9750  -20.2190 C   0  0  0  0  0  0  0  0  0  0  0  0
  -27.0650   12.4660  -21.4540 N   0  0  0  0  0  0  0  0  0  0  0  0
  -26.7590   11.5890  -21.7800 H   0  0  0  0  0  0  0  0  0  0  0  0
  1  2  2  0  0  0  0
  1 14  1  0  0  0  0
  3 12  1  0  0  0  0
  3  2  1  0  0  0  0
  4  3  1  0  0  0  0
  5  4  2  0  0  0  0
  6  8  1  0  0  0  0
  6  4  1  0  0  0  0
  7  6  1  0  0  0  0
  8  9  1  0  0  0  0
  9 10  1  0  0  0  0
  9 12  1  0  0  0  0
 11  8  2  0  0  0  0
 12 13  2  0  0  0  0
 15 14  1  0  0  0  0
 16 15  1  0  0  0  0
 17 21  1  0  0  0  0
 17 18  2  0  0  0  0
 18 19  1  0  0  0  0
 19 16  1  0  0  0  0
 20 19  1  0  0  0  0
 21 20  1  0  0  0  0
 22 21  1  0  0  0  0
M  END
>  <MODEL>
1

>  <REMARK>
 VINA RESULT:      -6.3      0.000      0.000
  Name = ZINC06223307
                            x       y       z     vdW  Elec       q    Type
                         _______ _______ _______ _____ _____    ______ ____

>  <TORSDO>
F 5

>  <vina_score>
-6.3

$$$$
ZINC08554408
 OpenBabel01091701513D

 23 25  0  0  1  0  0  0  0  0999 V2000
  -32.7020   12.9610  -20.7010 C   0  0  1  0  0  0  0  0  0  0  0  0
  -31.8670   11.9400  -21.4260 C   0  0  0  0  0  0  0  0  0  0  0  0
  -31.4590   10.9620  -20.6300 O   0  0  0  0  0  0  0  0  0  0  0  0
  -31.9660   11.0920  -19.0170 P   0  0  0  0  0  0  0  0  0  0  0  0
  -33.5200   10.8120  -18.3180 O   0  0  0  0  0  0  0  0  0  0  0  0
  -33.4290   11.4300  -17.0170 C   0  0  0  0  0  0  0  0  0  0  0  0
  -31.9840   11.3750  -16.5170 C   0  0  0  0  0  0  0  0  0  0  0  0
  -31.0600   11.5110  -17.6100 O   0  0  0  0  0  0  0  0  0  0  0  0
  -31.5970   12.0050  -22.6130 O   0  0  0  0  0  0  0  0  0  0  0  0
  -32.3780   12.8380  -19.2690 N   0  0  0  0  0  0  0  0  0  0  0  0
  -31.6100   13.4520  -18.9990 H   0  0  0  0  0  0  0  0  0  0  0  0
  -33.1820   13.1000  -18.6990 H   0  0  0  0  0  0  0  0  0  0  0  0
  -32.3490   14.3650  -21.1950 C   0  0  0  0  0  0  0  0  0  0  0  0
  -31.9340   15.2340  -20.0060 C   0  0  0  0  0  0  0  0  0  0  0  0
  -29.6220   14.3950  -20.2680 N   0  0  0  0  0  0  0  0  0  0  0  0
  -29.9990   13.5000  -20.4250 H   0  0  0  0  0  0  0  0  0  0  0  0
  -30.4410   15.4390  -20.0300 C   0  0  0  0  0  0  0  0  0  0  0  0
  -29.9770   16.5420  -19.8350 O   0  0  0  0  0  0  0  0  0  0  0  0
  -26.2290   12.9950  -20.4380 C   0  0  0  0  0  0  0  0  0  0  0  0
  -26.6990   13.0390  -18.9700 C   0  0  0  0  0  0  0  0  0  0  0  0
  -27.4450   14.2620  -18.8070 O   0  0  0  0  0  0  0  0  0  0  0  0
  -27.9970   14.6180  -20.2930 P   0  0  0  0  0  0  0  0  0  0  0  0
  -27.3690   13.4330  -21.2170 O   0  0  0  0  0  0  0  0  0  0  0  0
  1 13  1  6  0  0  0
  1 10  1  0  0  0  0
  2  1  1  0  0  0  0
  2  3  1  0  0  0  0
  3  4  1  0  0  0  0
  4  5  1  0  0  0  0
  4  8  1  0  0  0  0
  5  6  1  0  0  0  0
  6  7  1  0  0  0  0
  8  7  1  0  0  0  0
  9  2  2  0  0  0  0
 10  4  1  0  0  0  0
 10 11  1  0  0  0  0
 10 12  1  0  0  0  0
 13 14  1  0  0  0  0
 15 17  1  0  0  0  0
 16 15  1  0  0  0  0
 17 14  1  0  0  0  0
 17 18  2  0  0  0  0
 19 20  1  0  0  0  0
 20 21  1  0  0  0  0
 22 15  1  0  0  0  0
 22 21  1  0  0  0  0
 23 19  1  0  0  0  0
 23 22  1  0  0  0  0
M  END
>  <MODEL>
1

>  <REMARK>
 VINA RESULT:      -6.3      0.000      0.000
  Name = ZINC08554408
                            x       y       z     vdW  Elec       q    Type
                         _______ _______ _______ _____ _____    ______ ____

>  <TORSDO>
F 4

>  <vina_score>
-6.3

$$$$
ZINC27646493
 OpenBabel01091702003D

 28 29  0  0  1  0  0  0  0  0999 V2000
  -27.2930   14.6000  -19.1390 C   0  0  0  0  0  0  0  0  0  0  0  0
  -27.2700   13.9970  -20.5460 C   0  0  0  0  0  0  0  0  0  0  0  0
  -28.0450   12.6790  -20.5490 C   0  0  0  0  0  0  0  0  0  0  0  0
  -31.7450   11.5140  -21.8500 C   0  0  0  0  0  0  0  0  0  0  0  0
  -31.7120   13.0010  -21.6000 C   0  0  2  0  0  0  0  0  0  0  0  0
  -30.4840   13.3250  -20.6940 C   0  0  2  0  0  0  0  0  0  0  0  0
  -30.7320   14.7360  -20.5010 N   0  0  0  0  0  0  0  0  0  0  0  0
  -30.0570   15.4470  -20.4090 H   0  0  0  0  0  0  0  0  0  0  0  0
  -32.0780   14.8820  -20.4730 C   0  0  0  0  0  0  0  0  0  0  0  0
  -32.6440   15.8800  -20.0740 O   0  0  0  0  0  0  0  0  0  0  0  0
  -29.2680   12.8080  -21.4590 C   0  0  2  0  0  0  0  0  0  0  0  0
  -32.7300   13.7830  -20.9630 N   0  0  0  0  0  0  0  0  0  0  0  0
  -33.6900   13.5760  -20.8930 H   0  0  0  0  0  0  0  0  0  0  0  0
  -29.9310   11.1450  -21.9510 S   0  0  0  0  0  0  0  0  0  0  0  0
  -27.6850   13.5210  -18.1290 C   0  0  0  0  0  0  0  0  0  0  0  0
  -29.0890   13.7720  -17.6450 C   0  0  0  0  0  0  0  0  0  0  0  0
  -29.9470   12.7430  -17.4990 N   0  0  0  0  0  0  0  0  0  0  0  0
  -29.6550   11.8260  -17.7090 H   0  0  0  0  0  0  0  0  0  0  0  0
  -29.4490   14.9020  -17.3870 O   0  0  0  0  0  0  0  0  0  0  0  0
  -31.2530   12.9780  -17.0490 N   0  0  0  0  0  0  0  0  0  0  0  0
  -31.5850   13.9000  -16.9610 H   0  0  0  0  0  0  0  0  0  0  0  0
  -32.0540   11.9400  -16.7350 C   0  0  0  0  0  0  0  0  0  0  0  0
  -31.6440   10.8030  -16.8430 O   0  0  0  0  0  0  0  0  0  0  0  0
  -33.4580   12.1920  -16.2500 C   0  0  0  0  0  0  0  0  0  0  0  0
  -33.9600   13.3890  -16.8480 O   0  0  0  0  0  0  0  0  0  0  0  0
  -33.9240   13.3850  -18.3110 N   0  0  0  0  0  0  0  0  0  0  0  0
  -32.9550   13.4270  -18.6260 H   0  0  0  0  0  0  0  0  0  0  0  0
  -34.3600   12.5320  -18.6600 H   0  0  0  0  0  0  0  0  0  0  0  0
  1 15  1  0  0  0  0
  2  1  1  0  0  0  0
  3  2  1  0  0  0  0
  5  4  1  1  0  0  0
  5 12  1  0  0  0  0
  5  6  1  0  0  0  0
  6  7  1  6  0  0  0
  7  9  1  0  0  0  0
  7  8  1  0  0  0  0
  9 10  2  0  0  0  0
 11  6  1  0  0  0  0
 11  3  1  1  0  0  0
 12 13  1  0  0  0  0
 12  9  1  0  0  0  0
 14  4  1  0  0  0  0
 14 11  1  0  0  0  0
 15 16  1  0  0  0  0
 16 17  1  0  0  0  0
 16 19  2  0  0  0  0
 17 20  1  0  0  0  0
 18 17  1  0  0  0  0
 20 21  1  0  0  0  0
 20 22  1  0  0  0  0
 22 24  1  0  0  0  0
 23 22  2  0  0  0  0
 25 24  1  0  0  0  0
 26 25  1  0  0  0  0
 27 26  1  0  0  0  0
 28 26  1  0  0  0  0
M  END
>  <MODEL>
1

>  <REMARK>
 VINA RESULT:      -6.3      0.000      0.000
  Name = ZINC27646493
                            x       y       z     vdW  Elec       q    Type
                         _______ _______ _______ _____ _____    ______ ____

>  <TORSDO>
F 9

>  <vina_score>
-6.3

$$$$
ZINC20407276
 OpenBabel01091702073D

 23 24  0  0  0  0  0  0  0  0999 V2000
  -30.7110   12.9150  -21.1990 C   0  0  0  0  0  0  0  0  0  0  0  0
  -29.6380   13.3440  -20.4690 N   0  0  0  0  0  0  0  0  0  0  0  0
  -28.5020   12.9260  -21.1010 C   0  0  0  0  0  0  0  0  0  0  0  0
  -28.8560   12.2670  -22.1780 N   0  0  0  0  0  0  0  0  0  0  0  0
  -30.2560   12.2560  -22.2380 N   0  0  0  0  0  0  0  0  0  0  0  0
  -30.8020   11.8270  -22.9360 H   0  0  0  0  0  0  0  0  0  0  0  0
  -32.0460   13.1350  -20.8940 N   0  0  0  0  0  0  0  0  0  0  0  0
  -32.6000   13.6970  -21.4830 H   0  0  0  0  0  0  0  0  0  0  0  0
  -32.5400   13.1750  -18.6060 C   0  0  0  0  0  0  0  0  0  0  0  0
  -32.6080   12.5560  -19.7490 N   0  0  0  0  0  0  0  0  0  0  0  0
  -34.9630   12.6780  -14.2500 C   0  0  0  0  0  0  0  0  0  0  0  0
  -34.1890   12.3410  -15.4980 C   0  0  0  0  0  0  0  0  0  0  0  0
  -33.7750   11.1100  -15.8580 C   0  0  0  0  0  0  0  0  0  0  0  0
  -33.0930   11.2430  -17.0810 C   0  0  0  0  0  0  0  0  0  0  0  0
  -33.1270   12.5670  -17.4080 C   0  0  0  0  0  0  0  0  0  0  0  0
  -33.7970   13.2190  -16.4360 O   0  0  0  0  0  0  0  0  0  0  0  0
  -26.8490   13.2200  -20.5640 S   0  0  0  0  0  0  0  0  0  0  0  0
  -26.9390   13.0590  -18.7600 C   0  0  0  0  0  0  0  0  0  0  0  0
  -27.5770   14.2930  -18.1770 C   0  0  0  0  0  0  0  0  0  0  0  0
  -27.4640   15.4750  -18.8130 N   0  0  0  0  0  0  0  0  0  0  0  0
  -27.8810   16.2820  -18.4310 H   0  0  0  0  0  0  0  0  0  0  0  0
  -26.9630   15.5340  -19.6590 H   0  0  0  0  0  0  0  0  0  0  0  0
  -28.1930   14.2210  -17.1350 O   0  0  0  0  0  0  0  0  0  0  0  0
  1  7  1  0  0  0  0
  1  2  2  0  0  0  0
  3 17  1  0  0  0  0
  3  2  1  0  0  0  0
  4  3  2  0  0  0  0
  5  4  1  0  0  0  0
  5  1  1  0  0  0  0
  6  5  1  0  0  0  0
  7 10  1  0  0  0  0
  8  7  1  0  0  0  0
  9 15  1  0  0  0  0
 10  9  2  0  0  0  0
 12 11  1  0  0  0  0
 13 12  2  0  0  0  0
 14 13  1  0  0  0  0
 15 14  2  0  0  0  0
 15 16  1  0  0  0  0
 16 12  1  0  0  0  0
 17 18  1  0  0  0  0
 18 19  1  0  0  0  0
 19 23  2  0  0  0  0
 20 21  1  0  0  0  0
 20 19  1  0  0  0  0
 22 20  1  0  0  0  0
M  END
>  <MODEL>
1

>  <REMARK>
 VINA RESULT:      -6.2      0.000      0.000
  Name = ZINC20407276
                            x       y       z     vdW  Elec       q    Type
                         _______ _______ _______ _____ _____    ______ ____

>  <TORSDO>
F 6

>  <vina_score>
-6.2

$$$$
ZINC01625773
 OpenBabel01091702093D

 24 25  0  0  1  0  0  0  0  0999 V2000
  -30.2270   11.2700  -19.0720 C   0  0  0  0  0  0  0  0  0  0  0  0
  -31.3510   11.2340  -19.7280 N   0  0  0  0  0  0  0  0  0  0  0  0
  -31.7490   12.4990  -20.0050 C   0  0  0  0  0  0  0  0  0  0  0  0
  -32.8640   13.0560  -20.6750 C   0  0  0  0  0  0  0  0  0  0  0  0
  -32.9480   14.4010  -20.7720 N   0  0  0  0  0  0  0  0  0  0  0  0
  -33.7140   14.8130  -21.2330 H   0  0  0  0  0  0  0  0  0  0  0  0
  -31.9770   15.1930  -20.2330 C   0  0  0  0  0  0  0  0  0  0  0  0
  -30.9370   14.6870  -19.6080 N   0  0  0  0  0  0  0  0  0  0  0  0
  -33.7270   12.3400  -21.1530 O   0  0  0  0  0  0  0  0  0  0  0  0
  -30.7860   13.3650  -19.4740 C   0  0  0  0  0  0  0  0  0  0  0  0
  -29.8420   12.5660  -18.8870 N   0  0  0  0  0  0  0  0  0  0  0  0
  -32.0890   16.5560  -20.3460 N   0  0  0  0  0  0  0  0  0  0  0  0
  -31.3390   17.0830  -20.7030 H   0  0  0  0  0  0  0  0  0  0  0  0
  -32.9210   17.0060  -20.0700 H   0  0  0  0  0  0  0  0  0  0  0  0
  -28.6360   13.0200  -18.1910 C   0  0  1  0  0  0  0  0  0  0  0  0
  -27.2790   13.1940  -19.3820 S   0  0  0  0  0  0  0  0  0  0  0  0
  -28.0440   12.8040  -20.9790 C   0  0  0  0  0  0  0  0  0  0  0  0
  -27.8140   13.9630  -21.9530 C   0  0  0  0  0  0  0  0  0  0  0  0
  -28.3700   15.1600  -21.4070 O   0  0  0  0  0  0  0  0  0  0  0  0
  -28.3000   15.8750  -22.0580 H   0  0  0  0  0  0  0  0  0  0  0  0
  -28.9080   14.3720  -17.5270 C   0  0  0  0  0  0  0  0  0  0  0  0
  -27.8740   15.3930  -18.0060 C   0  0  0  0  0  0  0  0  0  0  0  0
  -28.4970   16.3190  -18.8980 O   0  0  0  0  0  0  0  0  0  0  0  0
  -28.4350   15.9840  -19.8060 H   0  0  0  0  0  0  0  0  0  0  0  0
  1 11  1  0  0  0  0
  2  1  2  0  0  0  0
  3  2  1  0  0  0  0
  3 10  2  0  0  0  0
  4  3  1  0  0  0  0
  5  4  1  0  0  0  0
  5  7  1  0  0  0  0
  6  5  1  0  0  0  0
  7  8  2  0  0  0  0
  8 10  1  0  0  0  0
  9  4  2  0  0  0  0
 10 11  1  0  0  0  0
 11 15  1  0  0  0  0
 12  7  1  0  0  0  0
 12 14  1  0  0  0  0
 13 12  1  0  0  0  0
 15 16  1  6  0  0  0
 15 21  1  0  0  0  0
 17 16  1  0  0  0  0
 18 19  1  0  0  0  0
 18 17  1  0  0  0  0
 20 19  1  0  0  0  0
 22 21  1  0  0  0  0
 23 22  1  0  0  0  0
 24 23  1  0  0  0  0
M  END
>  <MODEL>
1

>  <REMARK>
 VINA RESULT:      -6.2      0.000      0.000
  Name = ZINC01625773
                            x       y       z     vdW  Elec       q    Type
                         _______ _______ _______ _____ _____    ______ ____

>  <TORSDO>
F 9

>  <vina_score>
-6.2

$$$$
ZINC23989706
 OpenBabel01091702093D

 26 28  0  0  0  0  0  0  0  0999 V2000
  -33.4730   12.2960  -16.4510 C   0  0  0  0  0  0  0  0  0  0  0  0
  -32.2650   12.3930  -17.3470 C   0  0  0  0  0  0  0  0  0  0  0  0
  -31.1150   12.9890  -17.0430 C   0  0  0  0  0  0  0  0  0  0  0  0
  -30.2640   12.8660  -18.1270 N   0  0  0  0  0  0  0  0  0  0  0  0
  -29.0020   13.1690  -18.6180 C   0  0  0  0  0  0  0  0  0  0  0  0
  -27.8840   13.8490  -18.1070 C   0  0  0  0  0  0  0  0  0  0  0  0
  -26.7780   13.9690  -18.8700 N   0  0  0  0  0  0  0  0  0  0  0  0
  -25.9930   14.4450  -18.5140 H   0  0  0  0  0  0  0  0  0  0  0  0
  -26.7300   13.4500  -20.1090 C   0  0  0  0  0  0  0  0  0  0  0  0
  -27.7780   12.7910  -20.6400 N   0  0  0  0  0  0  0  0  0  0  0  0
  -27.6870   12.2400  -21.9940 C   0  0  0  0  0  0  0  0  0  0  0  0
  -25.7160   13.5780  -20.7680 O   0  0  0  0  0  0  0  0  0  0  0  0
  -27.9120   14.3240  -16.9860 O   0  0  0  0  0  0  0  0  0  0  0  0
  -28.9430   12.6350  -19.9040 C   0  0  0  0  0  0  0  0  0  0  0  0
  -30.1130   12.0490  -20.1480 N   0  0  0  0  0  0  0  0  0  0  0  0
  -30.9110   12.1800  -19.0970 C   0  0  0  0  0  0  0  0  0  0  0  0
  -32.1590   11.8750  -18.6240 N   0  0  0  0  0  0  0  0  0  0  0  0
  -33.1990   11.1370  -19.3440 C   0  0  0  0  0  0  0  0  0  0  0  0
  -33.4900   11.8350  -20.6750 C   0  0  0  0  0  0  0  0  0  0  0  0
  -33.7230   13.2660  -20.4370 N   0  0  0  0  0  0  0  0  0  0  0  0
  -34.6650   13.4980  -20.7520 H   0  0  0  0  0  0  0  0  0  0  0  0
  -33.6200   13.4590  -19.4410 H   0  0  0  0  0  0  0  0  0  0  0  0
  -32.7630   14.0860  -21.1880 C   0  0  0  0  0  0  0  0  0  0  0  0
  -32.3200   15.2700  -20.3250 C   0  0  0  0  0  0  0  0  0  0  0  0
  -30.8960   15.3790  -20.3610 O   0  0  0  0  0  0  0  0  0  0  0  0
  -30.4030   16.6750  -20.0160 C   0  0  0  0  0  0  0  0  0  0  0  0
  2  3  2  0  0  0  0
  2  1  1  0  0  0  0
  4  3  1  0  0  0  0
  5  4  1  0  0  0  0
  5  6  1  0  0  0  0
  6 13  2  0  0  0  0
  7  8  1  0  0  0  0
  7  6  1  0  0  0  0
  9  7  1  0  0  0  0
 10  9  1  0  0  0  0
 10 14  1  0  0  0  0
 11 10  1  0  0  0  0
 12  9  2  0  0  0  0
 14  5  2  0  0  0  0
 15 14  1  0  0  0  0
 15 16  2  0  0  0  0
 16 17  1  0  0  0  0
 16  4  1  0  0  0  0
 17  2  1  0  0  0  0
 18 17  1  0  0  0  0
 19 20  1  0  0  0  0
 19 18  1  0  0  0  0
 20 22  1  0  0  0  0
 21 20  1  0  0  0  0
 23 20  1  0  0  0  0
 23 24  1  0  0  0  0
 25 24  1  0  0  0  0
 25 26  1  0  0  0  0
M  END
>  <MODEL>
1

>  <REMARK>
 VINA RESULT:      -6.2      0.000      0.000
  Name = ZINC23989706
                            x       y       z     vdW  Elec       q    Type
                         _______ _______ _______ _____ _____    ______ ____

>  <TORSDO>
F 6

>  <vina_score>
-6.2

$$$$
ZINC17005558
 OpenBabel01091702113D

 28 28  0  0  1  0  0  0  0  0999 V2000
  -30.6300   12.8320  -19.3080 C   0  0  1  0  0  0  0  0  0  0  0  0
  -29.2150   13.0480  -19.6200 N   0  0  0  0  0  0  0  0  0  0  0  0
  -28.4200   13.7150  -18.7370 C   0  0  0  0  0  0  0  0  0  0  0  0
  -27.1140   13.9080  -19.0380 C   0  0  0  0  0  0  0  0  0  0  0  0
  -26.6130   13.4120  -20.2590 C   0  0  0  0  0  0  0  0  0  0  0  0
  -27.4250   12.7690  -21.0880 N   0  0  0  0  0  0  0  0  0  0  0  0
  -28.7080   12.5860  -20.7790 C   0  0  0  0  0  0  0  0  0  0  0  0
  -29.4340   11.9930  -21.5580 O   0  0  0  0  0  0  0  0  0  0  0  0
  -25.2900   13.5950  -20.5910 N   0  0  0  0  0  0  0  0  0  0  0  0
  -24.6840   14.0540  -19.9660 H   0  0  0  0  0  0  0  0  0  0  0  0
  -24.9490   13.2650  -21.4530 H   0  0  0  0  0  0  0  0  0  0  0  0
  -30.8220   12.5710  -17.5220 S   0  0  0  0  0  0  0  0  0  0  0  0
  -32.5430   13.0360  -17.1930 C   0  0  0  0  0  0  0  0  0  0  0  0
  -34.3420   12.7100  -15.4900 C   0  0  0  0  0  0  0  0  0  0  0  0
  -33.1560   12.0500  -16.1970 C   0  0  0  0  0  0  0  0  0  0  0  0
  -33.6370   10.8030  -16.9430 C   0  0  0  0  0  0  0  0  0  0  0  0
  -31.4390   14.0600  -19.7320 C   0  0  1  0  0  0  0  0  0  0  0  0
  -30.5550   15.0590  -20.2440 O   0  0  0  0  0  0  0  0  0  0  0  0
  -30.4630   14.9480  -21.2040 H   0  0  0  0  0  0  0  0  0  0  0  0
  -32.4410   13.6610  -20.8170 C   0  0  1  0  0  0  0  0  0  0  0  0
  -31.7360   13.3120  -22.0110 O   0  0  0  0  0  0  0  0  0  0  0  0
  -30.8770   13.7640  -22.0230 H   0  0  0  0  0  0  0  0  0  0  0  0
  -33.2600   12.4600  -20.3390 C   0  0  1  0  0  0  0  0  0  0  0  0
  -34.5340   12.4660  -20.9860 O   0  0  0  0  0  0  0  0  0  0  0  0
  -34.9450   11.5920  -20.9010 H   0  0  0  0  0  0  0  0  0  0  0  0
  -32.5190   11.1670  -20.6850 C   0  0  0  0  0  0  0  0  0  0  0  0
  -32.7840   10.8140  -22.0430 O   0  0  0  0  0  0  0  0  0  0  0  0
  -33.4130   11.4470  -22.4240 H   0  0  0  0  0  0  0  0  0  0  0  0
  1  2  1  1  0  0  0
  1 12  1  0  0  0  0
  2  3  1  0  0  0  0
  4  3  2  0  0  0  0
  5  4  1  0  0  0  0
  6  7  1  0  0  0  0
  6  5  2  0  0  0  0
  7  2  1  0  0  0  0
  8  7  2  0  0  0  0
  9  5  1  0  0  0  0
  9 10  1  0  0  0  0
 11  9  1  0  0  0  0
 12 13  1  0  0  0  0
 13 15  1  0  0  0  0
 15 14  1  0  0  0  0
 16 15  1  0  0  0  0
 17 18  1  6  0  0  0
 17  1  1  0  0  0  0
 19 18  1  0  0  0  0
 20 21  1  6  0  0  0
 20 23  1  0  0  0  0
 20 17  1  0  0  0  0
 22 21  1  0  0  0  0
 23 24  1  6  0  0  0
 24 25  1  0  0  0  0
 26 23  1  0  0  0  0
 27 26  1  0  0  0  0
 28 27  1  0  0  0  0
M  END
>  <MODEL>
1

>  <REMARK>
 VINA RESULT:      -6.2      0.000      0.000
  Name = ZINC17005558
                            x       y       z     vdW  Elec       q    Type
                         _______ _______ _______ _____ _____    ______ ____

>  <TORSDO>
F 13

>  <vina_score>
-6.2

$$$$
ZINC04226538
 OpenBabel01091702113D

 22 23  0  0  1  0  0  0  0  0999 V2000
  -33.2460   13.5710  -21.4110 C   0  0  0  0  0  0  0  0  0  0  0  0
  -32.0750   13.4030  -20.4780 C   0  0  0  0  0  0  0  0  0  0  0  0
  -30.8490   13.5240  -21.0350 N   0  0  0  0  0  0  0  0  0  0  0  0
  -30.7260   13.7120  -21.9940 H   0  0  0  0  0  0  0  0  0  0  0  0
  -29.7800   13.3690  -20.1760 C   0  0  0  0  0  0  0  0  0  0  0  0
  -28.4860   13.4850  -20.7090 C   0  0  0  0  0  0  0  0  0  0  0  0
  -27.3890   13.3350  -19.8770 C   0  0  1  0  0  0  0  0  0  0  0  0
  -27.5620   13.0670  -18.5080 C   0  0  0  0  0  0  0  0  0  0  0  0
  -28.8070   12.9510  -17.9760 C   0  0  0  0  0  0  0  0  0  0  0  0
  -29.9370   13.0990  -18.7960 C   0  0  0  0  0  0  0  0  0  0  0  0
  -31.2450   12.9830  -18.2660 C   0  0  0  0  0  0  0  0  0  0  0  0
  -32.3130   13.1350  -19.1360 C   0  0  0  0  0  0  0  0  0  0  0  0
  -26.0260   13.4570  -20.4330 C   0  0  0  0  0  0  0  0  0  0  0  0
  -25.5980   14.6410  -20.9140 O   0  0  0  0  0  0  0  0  0  0  0  0
  -25.2900   12.4910  -20.4560 O   0  0  0  0  0  0  0  0  0  0  0  0
  -31.4510   12.7190  -16.9210 N   0  0  0  0  0  0  0  0  0  0  0  0
  -30.7810   12.9980  -16.2550 H   0  0  0  0  0  0  0  0  0  0  0  0
  -32.6670   12.0250  -16.4890 C   0  0  0  0  0  0  0  0  0  0  0  0
  -33.6840   13.0480  -15.9770 C   0  0  0  0  0  0  0  0  0  0  0  0
  -34.4580   12.4540  -14.7990 C   0  0  0  0  0  0  0  0  0  0  0  0
  -34.6330   13.4510  -13.7910 O   0  0  0  0  0  0  0  0  0  0  0  0
  -35.4320   13.2540  -13.2770 H   0  0  0  0  0  0  0  0  0  0  0  0
  1  2  1  0  0  0  0
  2 12  2  0  0  0  0
  3  2  1  0  0  0  0
  3  5  1  0  0  0  0
  4  3  1  0  0  0  0
  5 10  1  0  0  0  0
  6  5  2  0  0  0  0
  6  7  1  0  0  0  0
  7 13  1  6  0  0  0
  7  8  1  0  0  0  0
  8  9  2  0  0  0  0
 10 11  2  0  0  0  0
 10  9  1  0  0  0  0
 11 16  1  0  0  0  0
 12 11  1  0  0  0  0
 14 13  2  0  0  0  0
 15 13  1  0  0  0  0
 16 18  1  0  0  0  0
 16 17  1  0  0  0  0
 18 19  1  0  0  0  0
 19 20  1  0  0  0  0
 20 21  1  0  0  0  0
 21 22  1  0  0  0  0
M  END
>  <MODEL>
1

>  <REMARK>
 VINA RESULT:      -6.2      0.000      0.000
  Name = ZINC04226538
                            x       y       z     vdW  Elec       q    Type
                         _______ _______ _______ _____ _____    ______ ____

>  <TORSDO>
F 6

>  <vina_score>
-6.2

$$$$
ZINC12483756
 OpenBabel01091702153D

 29 31  0  0  1  0  0  0  0  0999 V2000
  -28.5240   13.3970  -20.3490 C   0  0  2  0  0  0  0  0  0  0  0  0
  -28.5920   12.6380  -19.0190 C   0  0  2  0  0  0  0  0  0  0  0  0
  -29.7970   13.1350  -18.2140 C   0  0  1  0  0  0  0  0  0  0  0  0
  -29.7280   14.6680  -18.1250 C   0  0  1  0  0  0  0  0  0  0  0  0
  -28.2710   15.0530  -17.7760 C   0  0  0  0  0  0  0  0  0  0  0  0
  -27.6140   15.2120  -19.0460 O   0  0  0  0  0  0  0  0  0  0  0  0
  -29.8760   15.1810  -19.4710 O   0  0  0  0  0  0  0  0  0  0  0  0
  -28.5870   14.9050  -20.0620 C   0  0  2  0  0  0  0  0  0  0  0  0
  -29.6680   13.0040  -21.1920 N   0  0  0  0  0  0  0  0  0  0  0  0
  -29.8110   13.7150  -21.9100 H   0  0  0  0  0  0  0  0  0  0  0  0
  -30.5020   12.9210  -20.6110 H   0  0  0  0  0  0  0  0  0  0  0  0
  -29.4010   11.7100  -21.8480 C   0  0  0  0  0  0  0  0  0  0  0  0
  -30.7240   11.1050  -22.3220 C   0  0  0  0  0  0  0  0  0  0  0  0
  -32.7440   10.8030  -21.0680 C   0  0  0  0  0  0  0  0  0  0  0  0
  -31.8080   11.7260  -21.6280 O   0  0  0  0  0  0  0  0  0  0  0  0
  -31.0410   12.7330  -18.8980 N   0  0  0  0  0  0  0  0  0  0  0  0
  -30.9390   12.9060  -19.9000 H   0  0  0  0  0  0  0  0  0  0  0  0
  -31.2120   11.7420  -18.7310 H   0  0  0  0  0  0  0  0  0  0  0  0
  -32.1820   13.5170  -18.3900 C   0  0  0  0  0  0  0  0  0  0  0  0
  -32.8850   12.7290  -17.3160 C   0  0  0  0  0  0  0  0  0  0  0  0
  -32.8880   11.3890  -17.1990 C   0  0  0  0  0  0  0  0  0  0  0  0
  -33.6630   11.0790  -16.0570 C   0  0  0  0  0  0  0  0  0  0  0  0
  -34.0930   12.2480  -15.5490 C   0  0  0  0  0  0  0  0  0  0  0  0
  -33.6190   13.2440  -16.3150 O   0  0  0  0  0  0  0  0  0  0  0  0
  -34.9600   12.4130  -14.3280 C   0  0  0  0  0  0  0  0  0  0  0  0
  -34.5840   13.6040  -13.6330 O   0  0  0  0  0  0  0  0  0  0  0  0
  -35.2190   14.3100  -13.8360 H   0  0  0  0  0  0  0  0  0  0  0  0
  -27.3940   12.8680  -18.2760 O   0  0  0  0  0  0  0  0  0  0  0  0
  -27.0120   13.7210  -18.5340 H   0  0  0  0  0  0  0  0  0  0  0  0
  1  9  1  6  0  0  0
  1  8  1  0  0  0  0
  1  2  1  0  0  0  0
  2 28  1  1  0  0  0
  2  3  1  0  0  0  0
  3 16  1  6  0  0  0
  3  4  1  0  0  0  0
  4  7  1  6  0  0  0
  4  5  1  0  0  0  0
  6  5  1  0  0  0  0
  8  7  1  1  0  0  0
  8  6  1  0  0  0  0
  9 11  1  0  0  0  0
 10  9  1  0  0  0  0
 12  9  1  0  0  0  0
 13 12  1  0  0  0  0
 13 15  1  0  0  0  0
 15 14  1  0  0  0  0
 16 18  1  0  0  0  0
 16 19  1  0  0  0  0
 17 16  1  0  0  0  0
 19 20  1  0  0  0  0
 20 21  2  0  0  0  0
 20 24  1  0  0  0  0
 21 22  1  0  0  0  0
 22 23  2  0  0  0  0
 23 25  1  0  0  0  0
 24 23  1  0  0  0  0
 25 26  1  0  0  0  0
 27 26  1  0  0  0  0
 29 28  1  0  0  0  0
M  END
>  <MODEL>
1

>  <REMARK>
 VINA RESULT:      -6.2      0.000      0.000
  Name = ZINC12483756
                            x       y       z     vdW  Elec       q    Type
                         _______ _______ _______ _____ _____    ______ ____

>  <TORSDO>
F 10

>  <vina_score>
-6.2

$$$$
ZINC24031219
 OpenBabel01091702163D

 25 26  0  0  0  0  0  0  0  0999 V2000
  -30.1730   13.0850  -17.9210 C   0  0  0  0  0  0  0  0  0  0  0  0
  -29.5660   12.7090  -19.1030 C   0  0  0  0  0  0  0  0  0  0  0  0
  -28.4690   13.4450  -19.5180 C   0  0  0  0  0  0  0  0  0  0  0  0
  -28.0620   14.5190  -18.7200 C   0  0  0  0  0  0  0  0  0  0  0  0
  -29.1930   14.4840  -17.4070 S   0  0  0  0  0  0  0  0  0  0  0  0
  -27.0150   15.3900  -18.9240 N   0  0  0  0  0  0  0  0  0  0  0  0
  -26.1010   15.1310  -18.6630 H   0  0  0  0  0  0  0  0  0  0  0  0
  -27.1810   16.2710  -19.3310 H   0  0  0  0  0  0  0  0  0  0  0  0
  -31.2940   12.5040  -17.2770 C   0  0  0  0  0  0  0  0  0  0  0  0
  -31.2470   11.3500  -16.8960 O   0  0  0  0  0  0  0  0  0  0  0  0
  -32.4160   13.2320  -17.0870 O   0  0  0  0  0  0  0  0  0  0  0  0
  -34.0720   12.8640  -15.3670 C   0  0  0  0  0  0  0  0  0  0  0  0
  -33.6120   12.5120  -16.7820 C   0  0  0  0  0  0  0  0  0  0  0  0
  -27.7760   13.1190  -20.7280 C   0  0  0  0  0  0  0  0  0  0  0  0
  -27.2260   12.8620  -21.6890 N   0  0  0  0  0  0  0  0  0  0  0  0
  -30.0740   11.5390  -19.9060 C   0  0  0  0  0  0  0  0  0  0  0  0
  -30.8350   12.1410  -21.4330 S   0  0  0  0  0  0  0  0  0  0  0  0
  -32.5380   11.9200  -21.0330 C   0  0  0  0  0  0  0  0  0  0  0  0
  -33.2650   10.8550  -21.2800 N   0  0  0  0  0  0  0  0  0  0  0  0
  -34.4640   11.0380  -20.8550 N   0  0  0  0  0  0  0  0  0  0  0  0
  -34.5710   12.2180  -20.3120 C   0  0  0  0  0  0  0  0  0  0  0  0
  -33.3490   12.8240  -20.4120 N   0  0  0  0  0  0  0  0  0  0  0  0
  -33.0100   14.0730  -19.9740 N   0  0  0  0  0  0  0  0  0  0  0  0
  -33.4400   14.4460  -19.1700 H   0  0  0  0  0  0  0  0  0  0  0  0
  -32.3370   14.6000  -20.4610 H   0  0  0  0  0  0  0  0  0  0  0  0
  1  5  1  0  0  0  0
  1  9  1  0  0  0  0
  2  1  2  0  0  0  0
  3  2  1  0  0  0  0
  3  4  2  0  0  0  0
  4  5  1  0  0  0  0
  6  4  1  0  0  0  0
  6  7  1  0  0  0  0
  8  6  1  0  0  0  0
  9 11  1  0  0  0  0
  9 10  2  0  0  0  0
 11 13  1  0  0  0  0
 13 12  1  0  0  0  0
 14  3  1  0  0  0  0
 15 14  3  0  0  0  0
 16  2  1  0  0  0  0
 17 18  1  0  0  0  0
 17 16  1  0  0  0  0
 18 22  1  0  0  0  0
 19 18  2  0  0  0  0
 19 20  1  0  0  0  0
 20 21  2  0  0  0  0
 22 21  1  0  0  0  0
 22 23  1  0  0  0  0
 23 24  1  0  0  0  0
 25 23  1  0  0  0  0
M  END
>  <MODEL>
1

>  <REMARK>
 VINA RESULT:      -6.2      0.000      0.000
  Name = ZINC24031219
                            x       y       z     vdW  Elec       q    Type
                         _______ _______ _______ _____ _____    ______ ____

>  <TORSDO>
F 9

>  <vina_score>
-6.2

$$$$
ZINC22791525
 OpenBabel01091702163D

 26 27  0  0  0  0  0  0  0  0999 V2000
  -31.9840   12.2980  -21.3550 S   0  0  0  0  0  0  0  0  0  0  0  0
  -31.9270   11.0770  -22.0780 O   0  0  0  0  0  0  0  0  0  0  0  0
  -32.7180   13.4240  -21.8140 O   0  0  0  0  0  0  0  0  0  0  0  0
  -32.5740   11.9300  -19.8510 N   0  0  0  0  0  0  0  0  0  0  0  0
  -31.7470   11.2110  -18.8710 C   0  0  0  0  0  0  0  0  0  0  0  0
  -31.7700   11.9990  -17.5510 C   0  0  0  0  0  0  0  0  0  0  0  0
  -33.1650   12.2190  -17.1430 N   0  0  0  0  0  0  0  0  0  0  0  0
  -33.6260   11.3100  -17.1100 H   0  0  0  0  0  0  0  0  0  0  0  0
  -33.8810   13.0470  -18.1230 C   0  0  0  0  0  0  0  0  0  0  0  0
  -33.9420   12.3080  -19.4640 C   0  0  0  0  0  0  0  0  0  0  0  0
  -33.2330   12.8130  -15.8010 C   0  0  0  0  0  0  0  0  0  0  0  0
  -34.6560   12.6750  -15.2550 C   0  0  0  0  0  0  0  0  0  0  0  0
  -34.6840   13.1060  -13.8510 N   0  0  0  0  0  0  0  0  0  0  0  0
  -34.0340   13.8800  -13.7180 H   0  0  0  0  0  0  0  0  0  0  0  0
  -35.6270   13.4090  -13.6060 H   0  0  0  0  0  0  0  0  0  0  0  0
  -34.4120   12.3260  -13.2510 H   0  0  0  0  0  0  0  0  0  0  0  0
  -27.7020   13.6800  -20.8120 C   0  0  0  0  0  0  0  0  0  0  0  0
  -27.9820   12.5610  -21.5850 C   0  0  0  0  0  0  0  0  0  0  0  0
  -29.2870   12.1390  -21.7440 C   0  0  0  0  0  0  0  0  0  0  0  0
  -30.3190   12.8360  -21.1430 C   0  0  0  0  0  0  0  0  0  0  0  0
  -30.0450   13.9570  -20.3730 C   0  0  0  0  0  0  0  0  0  0  0  0
  -28.7340   14.3790  -20.2070 C   0  0  0  0  0  0  0  0  0  0  0  0
  -25.4520   13.0910  -20.3160 C   0  0  0  0  0  0  0  0  0  0  0  0
  -26.4170   14.0910  -20.6510 O   0  0  0  0  0  0  0  0  0  0  0  0
  -31.0600   14.6410  -19.7820 O   0  0  0  0  0  0  0  0  0  0  0  0
  -31.1100   16.0510  -20.0100 C   0  0  0  0  0  0  0  0  0  0  0  0
  1 20  1  0  0  0  0
  1  4  1  0  0  0  0
  2  1  2  0  0  0  0
  3  1  2  0  0  0  0
  4 10  1  0  0  0  0
  4  5  1  0  0  0  0
  5  6  1  0  0  0  0
  6  7  1  0  0  0  0
  7  8  1  0  0  0  0
  7 11  1  0  0  0  0
  9  7  1  0  0  0  0
 10  9  1  0  0  0  0
 11 12  1  0  0  0  0
 12 13  1  0  0  0  0
 13 14  1  0  0  0  0
 13 15  1  0  0  0  0
 13 16  1  0  0  0  0
 17 24  1  0  0  0  0
 17 22  2  0  0  0  0
 18 17  1  0  0  0  0
 19 18  2  0  0  0  0
 19 20  1  0  0  0  0
 20 21  2  0  0  0  0
 21 22  1  0  0  0  0
 21 25  1  0  0  0  0
 24 23  1  0  0  0  0
 26 25  1  0  0  0  0
M  END
>  <MODEL>
1

>  <REMARK>
 VINA RESULT:      -6.2      0.000      0.000
  Name = ZINC22791525
                            x       y       z     vdW  Elec       q    Type
                         _______ _______ _______ _____ _____    ______ ____

>  <TORSDO>
F 7

>  <vina_score>
-6.2

$$$$
ZINC21018929
 OpenBabel01091702173D

 23 23  0  0  1  0  0  0  0  0999 V2000
  -29.7210   15.2540  -19.5730 C   0  0  2  0  0  0  0  0  0  0  0  0
  -30.1180   16.6630  -20.0210 C   0  0  0  0  0  0  0  0  0  0  0  0
  -34.3210   11.7710  -19.8900 C   0  0  0  0  0  0  0  0  0  0  0  0
  -33.1220   12.6800  -19.8070 C   0  0  0  0  0  0  0  0  0  0  0  0
  -32.6080   13.2520  -20.9550 C   0  0  0  0  0  0  0  0  0  0  0  0
  -31.5070   14.0850  -20.8790 C   0  0  0  0  0  0  0  0  0  0  0  0
  -30.9210   14.3450  -19.6550 C   0  0  0  0  0  0  0  0  0  0  0  0
  -31.4340   13.7730  -18.5070 C   0  0  0  0  0  0  0  0  0  0  0  0
  -32.5350   12.9400  -18.5830 C   0  0  0  0  0  0  0  0  0  0  0  0
  -33.0890   12.3330  -17.3520 N   0  0  0  0  0  0  0  0  0  0  0  0
  -33.7720   13.0020  -16.5970 O   0  0  0  0  0  0  0  0  0  0  0  0
  -32.8640   11.1640  -17.0950 O   0  0  0  0  0  0  0  0  0  0  0  0
  -29.2340   15.2990  -18.1880 N   0  0  0  0  0  0  0  0  0  0  0  0
  -29.4120   16.2310  -17.8120 H   0  0  0  0  0  0  0  0  0  0  0  0
  -29.7250   14.5930  -17.6390 H   0  0  0  0  0  0  0  0  0  0  0  0
  -27.7900   15.0370  -18.1280 C   0  0  0  0  0  0  0  0  0  0  0  0
  -27.5460   13.5270  -18.1350 C   0  0  0  0  0  0  0  0  0  0  0  0
  -26.2600   13.2430  -18.7790 N   0  0  0  0  0  0  0  0  0  0  0  0
  -25.9530   12.3330  -18.4340 H   0  0  0  0  0  0  0  0  0  0  0  0
  -26.1560   13.1900  -20.4300 S   0  0  0  0  0  0  0  0  0  0  0  0
  -27.8070   12.6880  -20.9860 C   0  0  0  0  0  0  0  0  0  0  0  0
  -25.2140   12.1610  -20.7020 O   0  0  0  0  0  0  0  0  0  0  0  0
  -25.8940   14.5320  -20.8200 O   0  0  0  0  0  0  0  0  0  0  0  0
  1  2  1  1  0  0  0
  1 13  1  0  0  0  0
  3  4  1  0  0  0  0
  4  9  2  0  0  0  0
  5  6  2  0  0  0  0
  5  4  1  0  0  0  0
  6  7  1  0  0  0  0
  7  1  1  0  0  0  0
  7  8  2  0  0  0  0
  9  8  1  0  0  0  0
  9 10  1  0  0  0  0
 10 12  2  0  0  0  0
 10 11  2  0  0  0  0
 13 16  1  0  0  0  0
 13 14  1  0  0  0  0
 13 15  1  0  0  0  0
 17 16  1  0  0  0  0
 18 19  1  0  0  0  0
 18 17  1  0  0  0  0
 20 18  1  0  0  0  0
 21 20  1  0  0  0  0
 22 20  2  0  0  0  0
 23 20  2  0  0  0  0
M  END
>  <MODEL>
1

>  <REMARK>
 VINA RESULT:      -6.2      0.000      0.000
  Name = ZINC21018929
                            x       y       z     vdW  Elec       q    Type
                         _______ _______ _______ _____ _____    ______ ____

>  <TORSDO>
F 7

>  <vina_score>
-6.2

$$$$
ZINC31819625
 OpenBabel01091702183D

 26 27  0  0  1  0  0  0  0  0999 V2000
  -30.3700   11.3990  -20.8910 S   0  0  0  0  0  0  0  0  0  0  0  0
  -28.9900   12.4870  -20.7510 C   0  0  0  0  0  0  0  0  0  0  0  0
  -28.7840   13.3930  -21.6960 N   0  0  0  0  0  0  0  0  0  0  0  0
  -29.3990   13.4440  -22.4640 H   0  0  0  0  0  0  0  0  0  0  0  0
  -27.7550   14.2350  -21.6210 C   0  0  1  0  0  0  0  0  0  0  0  0
  -26.8860   14.1460  -20.5370 C   0  0  0  0  0  0  0  0  0  0  0  0
  -27.1320   13.1790  -19.5670 C   0  0  0  0  0  0  0  0  0  0  0  0
  -28.1840   12.3750  -19.7060 N   0  0  0  0  0  0  0  0  0  0  0  0
  -27.5510   15.1840  -22.6100 N   0  0  0  0  0  0  0  0  0  0  0  0
  -26.7100   15.1850  -23.1240 H   0  0  0  0  0  0  0  0  0  0  0  0
  -28.2450   15.8550  -22.8000 H   0  0  0  0  0  0  0  0  0  0  0  0
  -26.2930   13.0550  -18.4710 N   0  0  0  0  0  0  0  0  0  0  0  0
  -26.6420   12.7020  -17.6210 H   0  0  0  0  0  0  0  0  0  0  0  0
  -25.3470   13.3190  -18.5430 H   0  0  0  0  0  0  0  0  0  0  0  0
  -31.5670   12.5100  -21.6730 C   0  0  0  0  0  0  0  0  0  0  0  0
  -32.1810   13.4020  -20.6250 C   0  0  0  0  0  0  0  0  0  0  0  0
  -31.6440   14.4420  -20.3260 O   0  0  0  0  0  0  0  0  0  0  0  0
  -33.4660   12.9980  -19.9490 C   0  0  2  0  0  0  0  0  0  0  0  0
  -34.4080   12.9560  -15.0360 C   0  0  0  0  0  0  0  0  0  0  0  0
  -33.5520   12.6320  -16.2320 C   0  0  0  0  0  0  0  0  0  0  0  0
  -32.3660   11.9860  -16.0850 C   0  0  0  0  0  0  0  0  0  0  0  0
  -31.8310   11.8890  -17.7880 S   0  0  0  0  0  0  0  0  0  0  0  0
  -33.1960   12.6940  -18.4980 C   0  0  0  0  0  0  0  0  0  0  0  0
  -33.9300   12.9750  -17.4460 N   0  0  0  0  0  0  0  0  0  0  0  0
  -34.0110   11.8000  -20.6090 C   0  0  0  0  0  0  0  0  0  0  0  0
  -34.4310   10.8760  -21.1170 N   0  0  0  0  0  0  0  0  0  0  0  0
  1  2  1  0  0  0  0
  2  8  2  0  0  0  0
  3  5  1  0  0  0  0
  3  2  1  0  0  0  0
  4  3  1  0  0  0  0
  5  9  1  6  0  0  0
  5  6  1  0  0  0  0
  6  7  2  0  0  0  0
  7 12  1  0  0  0  0
  8  7  1  0  0  0  0
 10  9  1  0  0  0  0
 11  9  1  0  0  0  0
 12 13  1  0  0  0  0
 14 12  1  0  0  0  0
 15  1  1  0  0  0  0
 15 16  1  0  0  0  0
 16 17  2  0  0  0  0
 18 16  1  6  0  0  0
 18 23  1  0  0  0  0
 20 21  2  0  0  0  0
 20 19  1  0  0  0  0
 22 21  1  0  0  0  0
 23 22  1  0  0  0  0
 23 24  2  0  0  0  0
 24 20  1  0  0  0  0
 25 18  1  0  0  0  0
 26 25  3  0  0  0  0
M  END
>  <MODEL>
1

>  <REMARK>
 VINA RESULT:      -6.2      0.000      0.000
  Name = ZINC31819625
                            x       y       z     vdW  Elec       q    Type
                         _______ _______ _______ _____ _____    ______ ____

>  <TORSDO>
F 8

>  <vina_score>
-6.2

$$$$
ZINC05164508
 OpenBabel01091701563D

 22 22  0  0  1  0  0  0  0  0999 V2000
  -31.6860   13.0110  -20.5380 N   0  0  0  0  0  0  0  0  0  0  0  0
  -32.0240   13.8470  -20.9330 H   0  0  0  0  0  0  0  0  0  0  0  0
  -30.4250   12.6070  -20.7900 C   0  0  0  0  0  0  0  0  0  0  0  0
  -29.6270   13.3470  -21.5840 N   0  0  0  0  0  0  0  0  0  0  0  0
  -29.9640   14.1830  -21.9790 H   0  0  0  0  0  0  0  0  0  0  0  0
  -30.0080   11.5740  -20.3010 O   0  0  0  0  0  0  0  0  0  0  0  0
  -32.5550   12.2060  -19.6750 C   0  0  2  0  0  0  0  0  0  0  0  0
  -33.6700   11.6150  -20.4960 C   0  0  0  0  0  0  0  0  0  0  0  0
  -34.9400   11.9860  -20.2700 O   0  0  0  0  0  0  0  0  0  0  0  0
  -33.4220   10.8080  -21.3600 O   0  0  0  0  0  0  0  0  0  0  0  0
  -33.1440   13.0920  -18.5760 C   0  0  0  0  0  0  0  0  0  0  0  0
  -33.4960   12.8280  -16.1160 C   0  0  0  0  0  0  0  0  0  0  0  0
  -32.4630   12.7730  -17.2430 C   0  0  0  0  0  0  0  0  0  0  0  0
  -31.8510   11.3720  -17.3060 C   0  0  0  0  0  0  0  0  0  0  0  0
  -28.2560   12.9080  -21.8570 C   0  0  0  0  0  0  0  0  0  0  0  0
  -27.2820   14.0390  -21.5200 C   0  0  0  0  0  0  0  0  0  0  0  0
  -26.5490   13.7100  -20.2180 C   0  0  0  0  0  0  0  0  0  0  0  0
  -27.4600   13.8900  -19.0850 N   0  0  0  0  0  0  0  0  0  0  0  0
  -28.1070   15.0450  -18.7390 C   0  0  0  0  0  0  0  0  0  0  0  0
  -28.8410   14.7660  -17.6440 C   0  0  0  0  0  0  0  0  0  0  0  0
  -28.6390   13.4790  -17.3260 N   0  0  0  0  0  0  0  0  0  0  0  0
  -27.8130   12.9480  -18.1840 C   0  0  0  0  0  0  0  0  0  0  0  0
  2  1  1  0  0  0  0
  3  1  1  0  0  0  0
  3  6  2  0  0  0  0
  4  3  1  0  0  0  0
  5  4  1  0  0  0  0
  7  1  1  6  0  0  0
  7 11  1  0  0  0  0
  8  9  1  0  0  0  0
  8  7  1  0  0  0  0
 10  8  2  0  0  0  0
 11 13  1  0  0  0  0
 13 12  1  0  0  0  0
 14 13  1  0  0  0  0
 15  4  1  0  0  0  0
 15 16  1  0  0  0  0
 16 17  1  0  0  0  0
 17 18  1  0  0  0  0
 18 19  1  0  0  0  0
 18 22  1  0  0  0  0
 19 20  2  0  0  0  0
 20 21  1  0  0  0  0
 22 21  2  0  0  0  0
M  END
>  <MODEL>
1

>  <REMARK>
 VINA RESULT:      -6.2      0.000      0.000
  Name = ZINC05164508
                            x       y       z     vdW  Elec       q    Type
                         _______ _______ _______ _____ _____    ______ ____

>  <TORSDO>
F 8

>  <vina_score>
-6.2

$$$$
ZINC06094146
 OpenBabel01091702003D

 28 29  0  0  1  0  0  0  0  0999 V2000
  -29.7910   15.7140  -19.4280 C   0  0  0  0  0  0  0  0  0  0  0  0
  -28.9950   15.0980  -20.4920 N   0  0  0  0  0  0  0  0  0  0  0  0
  -29.2830   15.1760  -21.4300 H   0  0  0  0  0  0  0  0  0  0  0  0
  -27.8670   14.4260  -20.1880 C   0  0  0  0  0  0  0  0  0  0  0  0
  -27.5120   14.3300  -19.0320 O   0  0  0  0  0  0  0  0  0  0  0  0
  -27.0490   13.7920  -21.2830 C   0  0  1  0  0  0  0  0  0  0  0  0
  -26.4010   12.5780  -20.7560 N   0  0  0  0  0  0  0  0  0  0  0  0
  -25.7640   12.8320  -20.0000 H   0  0  0  0  0  0  0  0  0  0  0  0
  -27.1140   11.9410  -20.3990 H   0  0  0  0  0  0  0  0  0  0  0  0
  -25.8790   12.1190  -21.5020 H   0  0  0  0  0  0  0  0  0  0  0  0
  -27.9590   13.4430  -22.4630 C   0  0  0  0  0  0  0  0  0  0  0  0
  -28.3120   11.9550  -22.4110 C   0  0  0  0  0  0  0  0  0  0  0  0
  -29.6910   11.7860  -21.8280 C   0  0  0  0  0  0  0  0  0  0  0  0
  -30.7730   11.9960  -22.5940 O   0  0  0  0  0  0  0  0  0  0  0  0
  -29.8230   11.4630  -20.6710 O   0  0  0  0  0  0  0  0  0  0  0  0
  -31.1760   16.0720  -19.9700 C   0  0  0  0  0  0  0  0  0  0  0  0
  -32.6170   11.2110  -18.1360 C   0  0  0  0  0  0  0  0  0  0  0  0
  -33.1620   11.5040  -19.3660 C   0  0  0  0  0  0  0  0  0  0  0  0
  -32.8850   12.7230  -19.9760 C   0  0  0  0  0  0  0  0  0  0  0  0
  -32.0470   13.6480  -19.3290 C   0  0  0  0  0  0  0  0  0  0  0  0
  -31.9600   14.8080  -20.2190 C   0  0  0  0  0  0  0  0  0  0  0  0
  -32.7090   14.5340  -21.2970 C   0  0  0  0  0  0  0  0  0  0  0  0
  -31.4990   13.3400  -18.0810 C   0  0  0  0  0  0  0  0  0  0  0  0
  -33.2700   13.2930  -21.1710 N   0  0  0  0  0  0  0  0  0  0  0  0
  -33.8610   12.8690  -21.8360 H   0  0  0  0  0  0  0  0  0  0  0  0
  -31.7860   12.1250  -17.4920 C   0  0  0  0  0  0  0  0  0  0  0  0
  -31.2560   11.8180  -16.2780 O   0  0  0  0  0  0  0  0  0  0  0  0
  -31.5140   11.0320  -15.8380 H   0  0  0  0  0  0  0  0  0  0  0  0
  2  4  1  0  0  0  0
  2  1  1  0  0  0  0
  3  2  1  0  0  0  0
  4  5  2  0  0  0  0
  6 11  1  6  0  0  0
  6  7  1  0  0  0  0
  6  4  1  0  0  0  0
  7  9  1  0  0  0  0
  7  8  1  0  0  0  0
 10  7  1  0  0  0  0
 11 12  1  0  0  0  0
 12 13  1  0  0  0  0
 13 15  1  0  0  0  0
 14 13  2  0  0  0  0
 16  1  1  0  0  0  0
 17 26  2  0  0  0  0
 18 17  1  0  0  0  0
 19 18  2  0  0  0  0
 19 20  1  0  0  0  0
 20 23  2  0  0  0  0
 21 16  1  0  0  0  0
 21 20  1  0  0  0  0
 22 24  1  0  0  0  0
 22 21  2  0  0  0  0
 23 26  1  0  0  0  0
 24 19  1  0  0  0  0
 25 24  1  0  0  0  0
 26 27  1  0  0  0  0
 27 28  1  0  0  0  0
M  END
>  <MODEL>
1

>  <REMARK>
 VINA RESULT:      -6.2      0.000      0.000
  Name = ZINC06094146
                            x       y       z     vdW  Elec       q    Type
                         _______ _______ _______ _____ _____    ______ ____

>  <TORSDO>
F 9

>  <vina_score>
-6.2

$$$$
ZINC06413685
 OpenBabel01091702043D

 23 24  0  0  0  0  0  0  0  0999 V2000
  -29.3680   14.8930  -17.3500 C   0  0  0  0  0  0  0  0  0  0  0  0
  -29.1160   14.3670  -18.6940 N   0  0  0  0  0  0  0  0  0  0  0  0
  -30.1350   13.7430  -19.3950 C   0  0  0  0  0  0  0  0  0  0  0  0
  -29.8680   13.2520  -20.6690 C   0  0  0  0  0  0  0  0  0  0  0  0
  -31.0520   12.6880  -21.1270 N   0  0  0  0  0  0  0  0  0  0  0  0
  -31.9720   12.8540  -20.1380 C   0  0  0  0  0  0  0  0  0  0  0  0
  -28.5780   13.4010  -21.2060 C   0  0  0  0  0  0  0  0  0  0  0  0
  -27.6250   14.0170  -20.4760 N   0  0  0  0  0  0  0  0  0  0  0  0
  -26.2800   14.1760  -21.0310 C   0  0  0  0  0  0  0  0  0  0  0  0
  -28.3210   12.9790  -22.3200 O   0  0  0  0  0  0  0  0  0  0  0  0
  -31.4140   13.4790  -19.1210 N   0  0  0  0  0  0  0  0  0  0  0  0
  -27.8920   14.4840  -19.2430 C   0  0  0  0  0  0  0  0  0  0  0  0
  -27.0080   15.0290  -18.6110 O   0  0  0  0  0  0  0  0  0  0  0  0
  -33.6480   12.3140  -20.2060 S   0  0  0  0  0  0  0  0  0  0  0  0
  -33.5670   10.8960  -19.0850 C   0  0  0  0  0  0  0  0  0  0  0  0
  -33.1920   11.3660  -17.7030 C   0  0  0  0  0  0  0  0  0  0  0  0
  -33.8520   12.3970  -17.1400 N   0  0  0  0  0  0  0  0  0  0  0  0
  -34.5800   12.8420  -17.6310 H   0  0  0  0  0  0  0  0  0  0  0  0
  -32.2960   10.8170  -17.0990 O   0  0  0  0  0  0  0  0  0  0  0  0
  -33.4870   12.8540  -15.7970 C   0  0  0  0  0  0  0  0  0  0  0  0
  -34.6870   12.6980  -14.8610 C   0  0  0  0  0  0  0  0  0  0  0  0
  -34.5400   13.5780  -13.7450 O   0  0  0  0  0  0  0  0  0  0  0  0
  -33.9600   14.3170  -13.9900 H   0  0  0  0  0  0  0  0  0  0  0  0
  2  1  1  0  0  0  0
  3 11  1  0  0  0  0
  3  2  1  0  0  0  0
  4  3  2  0  0  0  0
  5  4  1  0  0  0  0
  5  6  1  0  0  0  0
  6 11  2  0  0  0  0
  7  4  1  0  0  0  0
  7  8  1  0  0  0  0
  8 12  1  0  0  0  0
  9  8  1  0  0  0  0
 10  7  2  0  0  0  0
 12  2  1  0  0  0  0
 12 13  2  0  0  0  0
 14  6  1  0  0  0  0
 14 15  1  0  0  0  0
 15 16  1  0  0  0  0
 16 17  1  0  0  0  0
 16 19  2  0  0  0  0
 17 20  1  0  0  0  0
 18 17  1  0  0  0  0
 20 21  1  0  0  0  0
 21 22  1  0  0  0  0
 23 22  1  0  0  0  0
M  END
>  <MODEL>
1

>  <REMARK>
 VINA RESULT:      -6.1      0.000      0.000
  Name = ZINC06413685
                            x       y       z     vdW  Elec       q    Type
                         _______ _______ _______ _____ _____    ______ ____

>  <TORSDO>
F 6

>  <vina_score>
-6.1

$$$$
ZINC02309206
 OpenBabel01091702053D

 22 22  0  0  0  0  0  0  0  0999 V2000
  -29.1480   12.2500  -21.2800 C   0  0  0  0  0  0  0  0  0  0  0  0
  -30.2750   12.1050  -20.4930 C   0  0  0  0  0  0  0  0  0  0  0  0
  -30.1740   11.8140  -19.0520 C   0  0  0  0  0  0  0  0  0  0  0  0
  -31.3160   11.6840  -18.3460 N   0  0  0  0  0  0  0  0  0  0  0  0
  -31.2670   11.4850  -17.3830 H   0  0  0  0  0  0  0  0  0  0  0  0
  -32.5170   11.8190  -18.9260 C   0  0  0  0  0  0  0  0  0  0  0  0
  -32.6830   12.0770  -20.2310 N   0  0  0  0  0  0  0  0  0  0  0  0
  -34.0410   12.2000  -20.7690 C   0  0  0  0  0  0  0  0  0  0  0  0
  -33.5080   11.6960  -18.2330 O   0  0  0  0  0  0  0  0  0  0  0  0
  -29.0900   11.6930  -18.5130 O   0  0  0  0  0  0  0  0  0  0  0  0
  -31.6300   12.2330  -21.0580 C   0  0  0  0  0  0  0  0  0  0  0  0
  -31.7930   12.4730  -22.2400 O   0  0  0  0  0  0  0  0  0  0  0  0
  -27.9250   12.2530  -20.7130 N   0  0  0  0  0  0  0  0  0  0  0  0
  -27.5420   11.4160  -20.3650 H   0  0  0  0  0  0  0  0  0  0  0  0
  -27.1670   13.5030  -20.6120 C   0  0  0  0  0  0  0  0  0  0  0  0
  -28.0800   14.6820  -20.9560 C   0  0  0  0  0  0  0  0  0  0  0  0
  -28.3520   15.4600  -19.7400 N   0  0  0  0  0  0  0  0  0  0  0  0
  -28.0140   16.4110  -19.8920 H   0  0  0  0  0  0  0  0  0  0  0  0
  -30.3620   16.8210  -20.0720 C   0  0  0  0  0  0  0  0  0  0  0  0
  -29.7950   15.5320  -19.4720 C   0  0  0  0  0  0  0  0  0  0  0  0
  -27.6300   14.9050  -18.5870 C   0  0  0  0  0  0  0  0  0  0  0  0
  -28.5360   14.9360  -17.3540 C   0  0  0  0  0  0  0  0  0  0  0  0
  1 13  1  0  0  0  0
  1  2  2  0  0  0  0
  2  3  1  0  0  0  0
  3 10  2  0  0  0  0
  3  4  1  0  0  0  0
  4  5  1  0  0  0  0
  6  4  1  0  0  0  0
  6  9  2  0  0  0  0
  7  6  1  0  0  0  0
  8  7  1  0  0  0  0
 11  2  1  0  0  0  0
 11  7  1  0  0  0  0
 12 11  2  0  0  0  0
 13 15  1  0  0  0  0
 13 14  1  0  0  0  0
 16 15  1  0  0  0  0
 16 17  1  0  0  0  0
 17 20  1  0  0  0  0
 17 21  1  0  0  0  0
 18 17  1  0  0  0  0
 19 20  1  0  0  0  0
 21 22  1  0  0  0  0
M  END
>  <MODEL>
1

>  <REMARK>
 VINA RESULT:      -6.1      0.000      0.000
  Name = ZINC02309206
                            x       y       z     vdW  Elec       q    Type
                         _______ _______ _______ _____ _____    ______ ____

>  <TORSDO>
F 6

>  <vina_score>
-6.1

$$$$
ZINC27792258
 OpenBabel01091702093D

 22 22  0  0  1  0  0  0  0  0999 V2000
  -30.8320   13.0130  -19.6490 C   0  0  1  0  0  0  0  0  0  0  0  0
  -29.7700   13.8490  -18.9820 C   0  0  0  0  0  0  0  0  0  0  0  0
  -29.4680   15.1040  -19.4750 C   0  0  0  0  0  0  0  0  0  0  0  0
  -28.4970   15.8730  -18.8620 C   0  0  0  0  0  0  0  0  0  0  0  0
  -27.8220   15.3830  -17.7600 C   0  0  0  0  0  0  0  0  0  0  0  0
  -28.1200   14.1260  -17.2690 C   0  0  0  0  0  0  0  0  0  0  0  0
  -29.0940   13.3580  -17.8810 C   0  0  0  0  0  0  0  0  0  0  0  0
  -29.3620   11.9330  -21.3550 C   0  0  0  0  0  0  0  0  0  0  0  0
  -30.5280   12.9000  -21.1440 C   0  0  1  0  0  0  0  0  0  0  0  0
  -31.7120   12.3990  -21.8470 N   0  0  0  0  0  0  0  0  0  0  0  0
  -32.7960   12.9250  -21.6650 O   0  0  0  0  0  0  0  0  0  0  0  0
  -31.6130   11.4570  -22.6120 O   0  0  0  0  0  0  0  0  0  0  0  0
  -30.8510   11.3560  -18.9090 S   0  0  0  0  0  0  0  0  0  0  0  0
  -32.5190   11.2050  -18.2130 C   0  0  0  0  0  0  0  0  0  0  0  0
  -33.0040   12.5800  -17.7480 C   0  0  1  0  0  0  0  0  0  0  0  0
  -34.0400   13.0710  -18.6680 N   0  0  0  0  0  0  0  0  0  0  0  0
  -34.1750   12.3950  -19.4190 H   0  0  0  0  0  0  0  0  0  0  0  0
  -34.9150   13.1940  -18.1590 H   0  0  0  0  0  0  0  0  0  0  0  0
  -33.7470   13.9650  -19.0630 H   0  0  0  0  0  0  0  0  0  0  0  0
  -33.5790   12.4660  -16.3600 C   0  0  0  0  0  0  0  0  0  0  0  0
  -33.8940   11.2600  -15.8620 O   0  0  0  0  0  0  0  0  0  0  0  0
  -33.7560   13.4580  -15.6950 O   0  0  0  0  0  0  0  0  0  0  0  0
  1  2  1  1  0  0  0
  1 13  1  0  0  0  0
  2  7  1  0  0  0  0
  3  2  2  0  0  0  0
  3  4  1  0  0  0  0
  4  5  2  0  0  0  0
  5  6  1  0  0  0  0
  7  6  2  0  0  0  0
  8  9  1  0  0  0  0
  9 10  1  6  0  0  0
  9  1  1  0  0  0  0
 10 11  2  0  0  0  0
 12 10  2  0  0  0  0
 13 14  1  0  0  0  0
 14 15  1  0  0  0  0
 15 16  1  6  0  0  0
 15 20  1  0  0  0  0
 16 18  1  0  0  0  0
 17 16  1  0  0  0  0
 19 16  1  0  0  0  0
 20 21  2  0  0  0  0
 20 22  1  0  0  0  0
M  END
>  <MODEL>
1

>  <REMARK>
 VINA RESULT:      -6.1      0.000      0.000
  Name = ZINC27792258
                            x       y       z     vdW  Elec       q    Type
                         _______ _______ _______ _____ _____    ______ ____

>  <TORSDO>
F 8

>  <vina_score>
-6.1

$$$$
ZINC27469748
 OpenBabel01091702103D

 26 27  0  0  0  0  0  0  0  0999 V2000
  -33.1690   11.5520  -19.7400 C   0  0  0  0  0  0  0  0  0  0  0  0
  -31.9780   11.1700  -20.2420 N   0  0  0  0  0  0  0  0  0  0  0  0
  -31.8350   10.8230  -21.6650 C   0  0  0  0  0  0  0  0  0  0  0  0
  -30.6560   11.6140  -22.2430 C   0  0  0  0  0  0  0  0  0  0  0  0
  -29.4610   11.3760  -21.4230 N   0  0  0  0  0  0  0  0  0  0  0  0
  -29.3150   10.3670  -21.3730 H   0  0  0  0  0  0  0  0  0  0  0  0
  -29.6500   11.8670  -20.0510 C   0  0  0  0  0  0  0  0  0  0  0  0
  -30.7870   11.0860  -19.3830 C   0  0  0  0  0  0  0  0  0  0  0  0
  -34.1140   11.7280  -20.4830 O   0  0  0  0  0  0  0  0  0  0  0  0
  -33.2800   13.0360  -17.5630 C   0  0  0  0  0  0  0  0  0  0  0  0
  -33.4680   12.7320  -16.2690 C   0  0  0  0  0  0  0  0  0  0  0  0
  -33.6190   11.4040  -16.1470 O   0  0  0  0  0  0  0  0  0  0  0  0
  -33.5420   10.8040  -17.3390 C   0  0  0  0  0  0  0  0  0  0  0  0
  -33.3230   11.7580  -18.2890 C   0  0  0  0  0  0  0  0  0  0  0  0
  -28.2720   11.9770  -22.0390 C   0  0  0  0  0  0  0  0  0  0  0  0
  -28.1040   13.4100  -21.5320 C   0  0  0  0  0  0  0  0  0  0  0  0
  -26.5620   13.5400  -20.5840 S   0  0  0  0  0  0  0  0  0  0  0  0
  -25.9490   14.7840  -20.8930 O   0  0  0  0  0  0  0  0  0  0  0  0
  -25.8220   12.3400  -20.7630 O   0  0  0  0  0  0  0  0  0  0  0  0
  -27.1510   13.6020  -18.8690 C   0  0  0  0  0  0  0  0  0  0  0  0
  -27.4970   15.0460  -18.5010 C   0  0  0  0  0  0  0  0  0  0  0  0
  -28.9750   15.2730  -18.6930 C   0  0  0  0  0  0  0  0  0  0  0  0
  -29.4080   16.1190  -19.6490 N   0  0  0  0  0  0  0  0  0  0  0  0
  -30.3730   16.2670  -19.7730 H   0  0  0  0  0  0  0  0  0  0  0  0
  -28.7590   16.5880  -20.2220 H   0  0  0  0  0  0  0  0  0  0  0  0
  -29.7740   14.6950  -17.9870 O   0  0  0  0  0  0  0  0  0  0  0  0
  1 14  1  0  0  0  0
  2  1  1  0  0  0  0
  2  8  1  0  0  0  0
  3  2  1  0  0  0  0
  4  3  1  0  0  0  0
  4  5  1  0  0  0  0
  5  6  1  0  0  0  0
  5  7  1  0  0  0  0
  7  8  1  0  0  0  0
  9  1  2  0  0  0  0
 10 11  2  0  0  0  0
 11 12  1  0  0  0  0
 13 12  1  0  0  0  0
 14 10  1  0  0  0  0
 14 13  2  0  0  0  0
 15 16  1  0  0  0  0
 15  5  1  0  0  0  0
 16 17  1  0  0  0  0
 17 20  1  0  0  0  0
 18 17  2  0  0  0  0
 19 17  2  0  0  0  0
 20 21  1  0  0  0  0
 22 21  1  0  0  0  0
 22 26  2  0  0  0  0
 23 22  1  0  0  0  0
 24 23  1  0  0  0  0
 25 23  1  0  0  0  0
M  END
>  <MODEL>
1

>  <REMARK>
 VINA RESULT:      -6.1      0.000      0.000
  Name = ZINC27469748
                            x       y       z     vdW  Elec       q    Type
                         _______ _______ _______ _____ _____    ______ ____

>  <TORSDO>
F 7

>  <vina_score>
-6.1

$$$$
ZINC00399536
 OpenBabel01091702103D

 26 27  0  0  1  0  0  0  0  0999 V2000
  -30.0830   12.6860  -20.7270 C   0  0  0  0  0  0  0  0  0  0  0  0
  -30.1510   11.5570  -19.9220 C   0  0  0  0  0  0  0  0  0  0  0  0
  -30.7960   11.6200  -18.7030 C   0  0  0  0  0  0  0  0  0  0  0  0
  -31.3830   12.8020  -18.2880 C   0  0  0  0  0  0  0  0  0  0  0  0
  -31.3210   13.9250  -19.0920 C   0  0  0  0  0  0  0  0  0  0  0  0
  -30.6730   13.8690  -20.3100 C   0  0  0  0  0  0  0  0  0  0  0  0
  -29.4450   12.6280  -21.9260 O   0  0  0  0  0  0  0  0  0  0  0  0
  -28.1640   13.0400  -21.9570 C   0  0  0  0  0  0  0  0  0  0  0  0
  -27.8560   14.0210  -22.6030 O   0  0  0  0  0  0  0  0  0  0  0  0
  -27.2230   12.3610  -21.2760 O   0  0  0  0  0  0  0  0  0  0  0  0
  -26.3100   13.1410  -20.4590 C   0  0  0  0  0  0  0  0  0  0  0  0
  -28.4800   15.0240  -17.2980 C   0  0  0  0  0  0  0  0  0  0  0  0
  -28.1670   15.7350  -18.4410 C   0  0  0  0  0  0  0  0  0  0  0  0
  -27.4640   15.1260  -19.4630 C   0  0  0  0  0  0  0  0  0  0  0  0
  -27.0750   13.8050  -19.3430 C   0  0  0  0  0  0  0  0  0  0  0  0
  -27.3930   13.0920  -18.2030 C   0  0  0  0  0  0  0  0  0  0  0  0
  -28.0900   13.7030  -17.1770 C   0  0  0  0  0  0  0  0  0  0  0  0
  -32.0920   12.8640  -16.9610 C   0  0  0  0  0  0  0  0  0  0  0  0
  -33.4910   12.2600  -17.1000 C   0  0  2  0  0  0  0  0  0  0  0  0
  -34.2560   13.0470  -18.0830 N   0  0  0  0  0  0  0  0  0  0  0  0
  -34.2200   12.5850  -18.9910 H   0  0  0  0  0  0  0  0  0  0  0  0
  -35.2270   13.1210  -17.7770 H   0  0  0  0  0  0  0  0  0  0  0  0
  -33.8530   13.9800  -18.1600 H   0  0  0  0  0  0  0  0  0  0  0  0
  -34.1810   12.2770  -15.7600 C   0  0  0  0  0  0  0  0  0  0  0  0
  -34.6450   11.1340  -15.2300 O   0  0  0  0  0  0  0  0  0  0  0  0
  -34.3170   13.3180  -15.1630 O   0  0  0  0  0  0  0  0  0  0  0  0
  1  6  2  0  0  0  0
  1  2  1  0  0  0  0
  2  3  2  0  0  0  0
  3  4  1  0  0  0  0
  4 18  1  0  0  0  0
  5  4  2  0  0  0  0
  6  5  1  0  0  0  0
  7  1  1  0  0  0  0
  8  7  1  0  0  0  0
  8 10  1  0  0  0  0
  9  8  2  0  0  0  0
 10 11  1  0  0  0  0
 11 15  1  0  0  0  0
 12 17  1  0  0  0  0
 13 12  2  0  0  0  0
 14 15  2  0  0  0  0
 14 13  1  0  0  0  0
 15 16  1  0  0  0  0
 16 17  2  0  0  0  0
 19 20  1  6  0  0  0
 19 18  1  0  0  0  0
 19 24  1  0  0  0  0
 20 22  1  0  0  0  0
 21 20  1  0  0  0  0
 23 20  1  0  0  0  0
 24 25  2  0  0  0  0
 24 26  1  0  0  0  0
M  END
>  <MODEL>
1

>  <REMARK>
 VINA RESULT:      -6.1      0.000      0.000
  Name = ZINC00399536
                            x       y       z     vdW  Elec       q    Type
                         _______ _______ _______ _____ _____    ______ ____

>  <TORSDO>
F 9

>  <vina_score>
-6.1

$$$$
ZINC03376800
 OpenBabel01091702113D

 25 26  0  0  0  0  0  0  0  0999 V2000
  -27.9130   14.6970  -18.8770 C   0  0  0  0  0  0  0  0  0  0  0  0
  -27.4480   15.2970  -17.9290 O   0  0  0  0  0  0  0  0  0  0  0  0
  -29.9590   12.4560  -18.2030 C   0  0  0  0  0  0  0  0  0  0  0  0
  -30.2290   13.7870  -18.8560 C   0  0  0  0  0  0  0  0  0  0  0  0
  -31.4810   14.2700  -19.2950 C   0  0  0  0  0  0  0  0  0  0  0  0
  -31.2680   15.5280  -19.8310 C   0  0  0  0  0  0  0  0  0  0  0  0
  -32.3270   16.4210  -20.4230 C   0  0  0  0  0  0  0  0  0  0  0  0
  -29.9630   15.8210  -19.7350 N   0  0  0  0  0  0  0  0  0  0  0  0
  -29.5420   16.6580  -20.0380 H   0  0  0  0  0  0  0  0  0  0  0  0
  -29.3010   14.7640  -19.1450 C   0  0  0  0  0  0  0  0  0  0  0  0
  -32.7710   13.5660  -19.2000 C   0  0  0  0  0  0  0  0  0  0  0  0
  -33.3450   13.4920  -18.1320 O   0  0  0  0  0  0  0  0  0  0  0  0
  -33.3140   13.0030  -20.2970 O   0  0  0  0  0  0  0  0  0  0  0  0
  -34.2940   11.9530  -20.0830 C   0  0  0  0  0  0  0  0  0  0  0  0
  -27.0130   13.8810  -19.7680 C   0  0  0  0  0  0  0  0  0  0  0  0
  -27.4370   14.1930  -21.5050 S   0  0  0  0  0  0  0  0  0  0  0  0
  -28.4900   12.8470  -21.9350 C   0  0  0  0  0  0  0  0  0  0  0  0
  -29.8540   12.8340  -21.8470 N   0  0  0  0  0  0  0  0  0  0  0  0
  -30.4200   13.5740  -21.5310 H   0  0  0  0  0  0  0  0  0  0  0  0
  -30.2920   11.6120  -22.2730 C   0  0  0  0  0  0  0  0  0  0  0  0
  -29.2450   10.9010  -22.6120 N   0  0  0  0  0  0  0  0  0  0  0  0
  -28.1030   11.6850  -22.4030 N   0  0  0  0  0  0  0  0  0  0  0  0
  -31.6160   11.1980  -22.3380 N   0  0  0  0  0  0  0  0  0  0  0  0
  -32.1520   11.1340  -21.5140 H   0  0  0  0  0  0  0  0  0  0  0  0
  -32.0180   10.9680  -23.2060 H   0  0  0  0  0  0  0  0  0  0  0  0
  1  2  2  0  0  0  0
  4  3  1  0  0  0  0
  5 11  1  0  0  0  0
  5  4  1  0  0  0  0
  6  8  1  0  0  0  0
  6  5  2  0  0  0  0
  7  6  1  0  0  0  0
  8 10  1  0  0  0  0
  9  8  1  0  0  0  0
 10  1  1  0  0  0  0
 10  4  2  0  0  0  0
 11 12  2  0  0  0  0
 13 14  1  0  0  0  0
 13 11  1  0  0  0  0
 15  1  1  0  0  0  0
 16 15  1  0  0  0  0
 17 18  1  0  0  0  0
 17 16  1  0  0  0  0
 18 19  1  0  0  0  0
 20 18  1  0  0  0  0
 21 22  1  0  0  0  0
 21 20  2  0  0  0  0
 22 17  2  0  0  0  0
 23 20  1  0  0  0  0
 23 24  1  0  0  0  0
 25 23  1  0  0  0  0
M  END
>  <MODEL>
1

>  <REMARK>
 VINA RESULT:      -6.1      0.000      0.000
  Name = ZINC03376800
                            x       y       z     vdW  Elec       q    Type
                         _______ _______ _______ _____ _____    ______ ____

>  <TORSDO>
F 7

>  <vina_score>
-6.1

$$$$
ZINC29477247
 OpenBabel01091702123D

 26 26  0  0  1  0  0  0  0  0999 V2000
  -29.5840   12.6040  -18.4610 C   0  0  0  0  0  0  0  0  0  0  0  0
  -29.4250   12.1340  -19.7170 C   0  0  0  0  0  0  0  0  0  0  0  0
  -28.2710   12.3600  -20.4120 N   0  0  0  0  0  0  0  0  0  0  0  0
  -28.2000   11.9980  -21.3260 H   0  0  0  0  0  0  0  0  0  0  0  0
  -27.2310   13.0470  -19.9230 C   0  0  0  0  0  0  0  0  0  0  0  0
  -27.2420   13.5780  -18.6840 N   0  0  0  0  0  0  0  0  0  0  0  0
  -26.4660   14.0790  -18.3430 H   0  0  0  0  0  0  0  0  0  0  0  0
  -26.2450   13.1970  -20.6180 O   0  0  0  0  0  0  0  0  0  0  0  0
  -28.4420   13.3910  -17.8510 C   0  0  1  0  0  0  0  0  0  0  0  0
  -28.9730   14.7740  -17.4690 C   0  0  0  0  0  0  0  0  0  0  0  0
  -30.7810   12.3750  -17.7420 C   0  0  0  0  0  0  0  0  0  0  0  0
  -30.8990   11.3770  -17.0580 O   0  0  0  0  0  0  0  0  0  0  0  0
  -31.7920   13.2670  -17.8150 O   0  0  0  0  0  0  0  0  0  0  0  0
  -33.5610   12.9090  -16.2070 C   0  0  0  0  0  0  0  0  0  0  0  0
  -33.1180   12.7560  -17.6640 C   0  0  0  0  0  0  0  0  0  0  0  0
  -30.5360   11.3470  -20.3610 C   0  0  0  0  0  0  0  0  0  0  0  0
  -31.0720   12.1850  -21.8730 S   0  0  0  0  0  0  0  0  0  0  0  0
  -32.0790   13.4540  -21.1790 C   0  0  0  0  0  0  0  0  0  0  0  0
  -31.5310   14.5550  -20.7450 N   0  0  0  0  0  0  0  0  0  0  0  0
  -30.5500   14.6370  -20.7100 H   0  0  0  0  0  0  0  0  0  0  0  0
  -33.4400   13.2840  -21.0960 N   0  0  0  0  0  0  0  0  0  0  0  0
  -34.0400   13.8220  -21.6630 H   0  0  0  0  0  0  0  0  0  0  0  0
  -33.8170   12.6220  -20.4710 H   0  0  0  0  0  0  0  0  0  0  0  0
  -32.3760   15.6700  -20.3090 C   0  0  0  0  0  0  0  0  0  0  0  0
  -31.5710   16.9440  -20.3180 C   0  0  0  0  0  0  0  0  0  0  0  0
  -30.2860   16.9100  -20.0630 C   0  0  0  0  0  0  0  0  0  0  0  0
  1  9  1  0  0  0  0
  1 11  1  0  0  0  0
  2  1  2  0  0  0  0
  3  5  1  0  0  0  0
  3  2  1  0  0  0  0
  4  3  1  0  0  0  0
  5  6  1  0  0  0  0
  6  7  1  0  0  0  0
  6  9  1  0  0  0  0
  8  5  2  0  0  0  0
  9 10  1  6  0  0  0
 11 12  2  0  0  0  0
 13 11  1  0  0  0  0
 13 15  1  0  0  0  0
 15 14  1  0  0  0  0
 16  2  1  0  0  0  0
 17 18  1  0  0  0  0
 17 16  1  0  0  0  0
 18 21  2  0  0  0  0
 18 19  1  0  0  0  0
 19 20  1  0  0  0  0
 19 24  1  0  0  0  0
 21 23  1  0  0  0  0
 22 21  1  0  0  0  0
 25 24  1  0  0  0  0
 25 26  2  0  0  0  0
M  END
>  <MODEL>
1

>  <REMARK>
 VINA RESULT:      -6.1      0.000      0.000
  Name = ZINC29477247
                            x       y       z     vdW  Elec       q    Type
                         _______ _______ _______ _____ _____    ______ ____

>  <TORSDO>
F 9

>  <vina_score>
-6.1

$$$$
ZINC29550972
 OpenBabel01091702163D

 19 19  0  0  1  0  0  0  0  0999 V2000
  -31.8770   14.1870  -19.4240 C   0  0  0  0  0  0  0  0  0  0  0  0
  -30.6840   13.5360  -19.9690 N   0  0  0  0  0  0  0  0  0  0  0  0
  -30.7760   12.7350  -20.5350 H   0  0  0  0  0  0  0  0  0  0  0  0
  -29.1980   14.8110  -18.5410 C   0  0  0  0  0  0  0  0  0  0  0  0
  -27.9340   15.3040  -18.3010 C   0  0  0  0  0  0  0  0  0  0  0  0
  -26.9400   15.0530  -19.1320 N   0  0  0  0  0  0  0  0  0  0  0  0
  -26.0460   15.4150  -18.9320 H   0  0  0  0  0  0  0  0  0  0  0  0
  -27.1090   14.3310  -20.2230 C   0  0  0  0  0  0  0  0  0  0  0  0
  -28.3440   13.8060  -20.5390 C   0  0  0  0  0  0  0  0  0  0  0  0
  -29.4210   14.0480  -19.6870 C   0  0  1  0  0  0  0  0  0  0  0  0
  -32.9880   13.1500  -19.2440 C   0  0  0  0  0  0  0  0  0  0  0  0
  -32.7240   12.2430  -17.6850 P   0  0  0  0  0  0  0  0  0  0  0  0
  -33.2210   13.1450  -16.4480 O   0  0  0  0  0  0  0  0  0  0  0  0
  -31.1570   11.9140  -17.5140 O   0  0  0  0  0  0  0  0  0  0  0  0
  -33.4930   10.9790  -17.7140 O   0  0  0  0  0  0  0  0  0  0  0  0
  -32.9600   11.9800  -20.6410 P   0  0  0  0  0  0  0  0  0  0  0  0
  -34.4250   11.3460  -20.8400 O   0  0  0  0  0  0  0  0  0  0  0  0
  -31.9040   10.8030  -20.3340 O   0  0  0  0  0  0  0  0  0  0  0  0
  -32.5580   12.6940  -21.8740 O   0  0  0  0  0  0  0  0  0  0  0  0
  1 11  1  0  0  0  0
  2  1  1  0  0  0  0
  3  2  1  0  0  0  0
  4  5  2  0  0  0  0
  6  7  1  0  0  0  0
  6  5  1  0  0  0  0
  8  6  1  0  0  0  0
  9  8  2  0  0  0  0
  9 10  1  0  0  0  0
 10  2  1  1  0  0  0
 10  4  1  0  0  0  0
 11 12  1  0  0  0  0
 12 14  1  0  0  0  0
 12 13  1  0  0  0  0
 15 12  2  0  0  0  0
 16 18  1  0  0  0  0
 16 11  1  0  0  0  0
 17 16  1  0  0  0  0
 19 16  2  0  0  0  0
M  END
>  <MODEL>
1

>  <REMARK>
 VINA RESULT:      -6.1      0.000      0.000
  Name = ZINC29550972
                            x       y       z     vdW  Elec       q    Type
                         _______ _______ _______ _____ _____    ______ ____

>  <TORSDO>
F 5

>  <vina_score>
-6.1

$$$$
ZINC05734855
 OpenBabel01091701543D

 27 28  0  0  1  0  0  0  0  0999 V2000
  -32.3110   11.1170  -18.7220 N   0  0  0  0  0  0  0  0  0  0  0  0
  -31.0300   11.3500  -19.1350 C   0  0  0  0  0  0  0  0  0  0  0  0
  -30.0220   11.3900  -18.2430 O   0  0  0  0  0  0  0  0  0  0  0  0
  -30.7800   11.5450  -20.4950 C   0  0  1  0  0  0  0  0  0  0  0  0
  -31.9190   11.4950  -21.4180 C   0  0  0  0  0  0  0  0  0  0  0  0
  -33.1480   11.2530  -20.9170 N   0  0  0  0  0  0  0  0  0  0  0  0
  -33.9210   11.2080  -21.5240 H   0  0  0  0  0  0  0  0  0  0  0  0
  -31.7570   11.6630  -22.6120 O   0  0  0  0  0  0  0  0  0  0  0  0
  -33.3290   11.0730  -19.5980 C   0  0  0  0  0  0  0  0  0  0  0  0
  -34.4510   10.8640  -19.1810 O   0  0  0  0  0  0  0  0  0  0  0  0
  -29.4210   11.7970  -20.9840 C   0  0  0  0  0  0  0  0  0  0  0  0
  -29.1880   12.8120  -21.7590 N   0  0  0  0  0  0  0  0  0  0  0  0
  -27.8310   13.0650  -22.2480 C   0  0  0  0  0  0  0  0  0  0  0  0
  -27.3810   14.4580  -21.8050 C   0  0  0  0  0  0  0  0  0  0  0  0
  -26.4900   14.3360  -20.5670 C   0  0  0  0  0  0  0  0  0  0  0  0
  -27.3280   14.2780  -19.3670 N   0  0  0  0  0  0  0  0  0  0  0  0
  -28.3040   15.1450  -19.0580 C   0  0  0  0  0  0  0  0  0  0  0  0
  -28.8450   14.7650  -17.8860 C   0  0  0  0  0  0  0  0  0  0  0  0
  -28.1730   13.6410  -17.4860 N   0  0  0  0  0  0  0  0  0  0  0  0
  -28.3330   13.1270  -16.6620 H   0  0  0  0  0  0  0  0  0  0  0  0
  -27.2470   13.3710  -18.4310 C   0  0  0  0  0  0  0  0  0  0  0  0
  -32.5800   10.9110  -17.2970 C   0  0  0  0  0  0  0  0  0  0  0  0
  -32.4550   12.2450  -16.5570 C   0  0  0  0  0  0  0  0  0  0  0  0
  -33.8180   12.6390  -15.9840 C   0  0  0  0  0  0  0  0  0  0  0  0
  -34.4140   11.4510  -15.2240 C   0  0  0  0  0  0  0  0  0  0  0  0
  -36.0000   10.8070  -13.4050 C   0  0  0  0  0  0  0  0  0  0  0  0
  -35.2100   11.9630  -14.0220 C   0  0  0  0  0  0  0  0  0  0  0  0
  1 22  1  0  0  0  0
  2  1  1  0  0  0  0
  2  3  2  0  0  0  0
  4 11  1  1  0  0  0
  4  2  1  0  0  0  0
  5  6  1  0  0  0  0
  5  4  1  0  0  0  0
  6  9  1  0  0  0  0
  7  6  1  0  0  0  0
  8  5  2  0  0  0  0
  9 10  2  0  0  0  0
  9  1  1  0  0  0  0
 12 11  2  0  0  0  0
 13 14  1  0  0  0  0
 13 12  1  0  0  0  0
 14 15  1  0  0  0  0
 15 16  1  0  0  0  0
 16 17  1  0  0  0  0
 16 21  1  0  0  0  0
 17 18  2  0  0  0  0
 18 19  1  0  0  0  0
 19 20  1  0  0  0  0
 21 19  1  0  0  0  0
 22 23  1  0  0  0  0
 23 24  1  0  0  0  0
 24 25  1  0  0  0  0
 25 27  1  0  0  0  0
 27 26  1  0  0  0  0
M  END
>  <MODEL>
1

>  <REMARK>
 VINA RESULT:      -6.1      0.000      0.000
  Name = ZINC05734855
                            x       y       z     vdW  Elec       q    Type
                         _______ _______ _______ _____ _____    ______ ____

>  <TORSDO>
F 10

>  <vina_score>
-6.1

$$$$
ZINC31998538
 OpenBabel01091701533D

 22 23  0  0  0  0  0  0  0  0999 V2000
  -29.4970   11.7560  -21.3610 N   0  0  0  0  0  0  0  0  0  0  0  0
  -28.8350   12.3870  -20.3440 C   0  0  0  0  0  0  0  0  0  0  0  0
  -27.8620   13.1950  -20.9560 C   0  0  0  0  0  0  0  0  0  0  0  0
  -27.9710   13.0370  -22.2870 N   0  0  0  0  0  0  0  0  0  0  0  0
  -27.0230   13.9640  -20.1240 C   0  0  0  0  0  0  0  0  0  0  0  0
  -27.1990   13.8940  -18.8090 N   0  0  0  0  0  0  0  0  0  0  0  0
  -28.1280   13.1160  -18.2820 C   0  0  0  0  0  0  0  0  0  0  0  0
  -28.9310   12.3770  -19.0170 N   0  0  0  0  0  0  0  0  0  0  0  0
  -28.9150   12.2040  -22.5570 N   0  0  0  0  0  0  0  0  0  0  0  0
  -26.0500   14.7830  -20.6630 N   0  0  0  0  0  0  0  0  0  0  0  0
  -26.1730   15.1690  -21.5600 H   0  0  0  0  0  0  0  0  0  0  0  0
  -25.2330   14.9810  -20.1500 H   0  0  0  0  0  0  0  0  0  0  0  0
  -30.6020   10.8030  -21.2290 C   0  0  0  0  0  0  0  0  0  0  0  0
  -31.9040   11.4660  -21.6840 C   0  0  0  0  0  0  0  0  0  0  0  0
  -32.9350   11.1930  -20.7330 O   0  0  0  0  0  0  0  0  0  0  0  0
  -33.5690   12.3630  -20.2130 C   0  0  0  0  0  0  0  0  0  0  0  0
  -32.8110   12.8080  -18.6160 P   0  0  1  0  0  0  0  0  0  0  0  0
  -33.9620   13.2380  -17.5760 O   0  0  0  0  0  0  0  0  0  0  0  0
  -32.0720   11.6420  -18.0800 O   0  0  0  0  0  0  0  0  0  0  0  0
  -31.7930   14.0370  -18.8290 O   0  0  0  0  0  0  0  0  0  0  0  0
  -30.5070   15.7140  -20.0000 C   0  0  0  0  0  0  0  0  0  0  0  0
  -31.7270   14.7920  -20.0400 C   0  0  0  0  0  0  0  0  0  0  0  0
  1 13  1  0  0  0  0
  1  2  1  0  0  0  0
  2  8  1  0  0  0  0
  3  2  2  0  0  0  0
  3  5  1  0  0  0  0
  4  3  1  0  0  0  0
  5  6  2  0  0  0  0
  6  7  1  0  0  0  0
  8  7  2  0  0  0  0
  9  4  2  0  0  0  0
  9  1  1  0  0  0  0
 10 12  1  0  0  0  0
 10  5  1  0  0  0  0
 11 10  1  0  0  0  0
 14 13  1  0  0  0  0
 14 15  1  0  0  0  0
 15 16  1  0  0  0  0
 17 16  1  6  0  0  0
 17 19  2  0  0  0  0
 17 18  1  0  0  0  0
 20 17  1  0  0  0  0
 22 21  1  0  0  0  0
 22 20  1  0  0  0  0
M  END
>  <MODEL>
1

>  <REMARK>
 VINA RESULT:      -6.1      0.000      0.000
  Name = ZINC31998538
                            x       y       z     vdW  Elec       q    Type
                         _______ _______ _______ _____ _____    ______ ____

>  <TORSDO>
F 8

>  <vina_score>
-6.1

$$$$
ZINC31384614
 OpenBabel01091701553D

 26 26  0  0  1  0  0  0  0  0999 V2000
  -29.8170   12.4570  -20.3890 N   0  0  0  0  0  0  0  0  0  0  0  0
  -29.5920   12.0600  -19.5170 H   0  0  0  0  0  0  0  0  0  0  0  0
  -30.9170   12.0480  -21.0530 C   0  0  0  0  0  0  0  0  0  0  0  0
  -31.1940   12.5370  -22.1270 O   0  0  0  0  0  0  0  0  0  0  0  0
  -28.9570   13.4920  -20.9670 C   0  0  0  0  0  0  0  0  0  0  0  0
  -27.9890   14.0060  -19.8980 C   0  0  1  0  0  0  0  0  0  0  0  0
  -26.6050   14.2090  -20.5190 C   0  0  0  0  0  0  0  0  0  0  0  0
  -26.7590   14.6310  -21.9810 C   0  0  0  0  0  0  0  0  0  0  0  0
  -25.8160   12.9000  -20.4450 C   0  0  0  0  0  0  0  0  0  0  0  0
  -28.4800   15.2840  -19.3660 N   0  0  0  0  0  0  0  0  0  0  0  0
  -28.0000   16.0340  -19.8610 H   0  0  0  0  0  0  0  0  0  0  0  0
  -30.2160   16.8660  -20.0600 C   0  0  0  0  0  0  0  0  0  0  0  0
  -29.9220   15.4350  -19.6060 C   0  0  0  0  0  0  0  0  0  0  0  0
  -28.1680   15.4140  -17.9360 C   0  0  0  0  0  0  0  0  0  0  0  0
  -28.8180   14.2620  -17.1660 C   0  0  0  0  0  0  0  0  0  0  0  0
  -31.8030   10.9830  -20.4590 C   0  0  0  0  0  0  0  0  0  0  0  0
  -32.3510   11.4630  -19.1400 C   0  0  0  0  0  0  0  0  0  0  0  0
  -33.5810   12.0460  -19.0690 C   0  0  0  0  0  0  0  0  0  0  0  0
  -34.4090   12.2140  -20.3170 C   0  0  0  0  0  0  0  0  0  0  0  0
  -34.0510   12.4640  -17.8920 N   0  0  0  0  0  0  0  0  0  0  0  0
  -33.3580   12.3320  -16.7930 C   0  0  0  0  0  0  0  0  0  0  0  0
  -33.9360   12.8290  -15.4930 C   0  0  0  0  0  0  0  0  0  0  0  0
  -32.1350   11.7650  -16.7970 N   0  0  0  0  0  0  0  0  0  0  0  0
  -31.6320   11.6760  -15.9550 H   0  0  0  0  0  0  0  0  0  0  0  0
  -31.6020   11.3190  -17.9540 C   0  0  0  0  0  0  0  0  0  0  0  0
  -30.4970   10.8040  -17.9740 O   0  0  0  0  0  0  0  0  0  0  0  0
  1  2  1  0  0  0  0
  3 16  1  0  0  0  0
  3  1  1  0  0  0  0
  4  3  2  0  0  0  0
  5  1  1  0  0  0  0
  6  5  1  6  0  0  0
  6 10  1  0  0  0  0
  7  9  1  0  0  0  0
  7  6  1  0  0  0  0
  8  7  1  0  0  0  0
 10 14  1  0  0  0  0
 11 10  1  0  0  0  0
 12 13  1  0  0  0  0
 13 10  1  0  0  0  0
 14 15  1  0  0  0  0
 16 17  1  0  0  0  0
 17 18  2  0  0  0  0
 17 25  1  0  0  0  0
 18 20  1  0  0  0  0
 19 18  1  0  0  0  0
 20 21  2  0  0  0  0
 21 22  1  0  0  0  0
 23 21  1  0  0  0  0
 23 24  1  0  0  0  0
 25 23  1  0  0  0  0
 26 25  2  0  0  0  0
M  END
>  <MODEL>
1

>  <REMARK>
 VINA RESULT:      -6.1      0.000      0.000
  Name = ZINC31384614
                            x       y       z     vdW  Elec       q    Type
                         _______ _______ _______ _____ _____    ______ ____

>  <TORSDO>
F 8

>  <vina_score>
-6.1

$$$$
ZINC04039469
 OpenBabel01091701543D

 24 25  0  0  1  0  0  0  0  0999 V2000
  -28.0460   13.3360  -19.5350 C   0  0  0  0  0  0  0  0  0  0  0  0
  -27.9370   14.1310  -18.4380 C   0  0  0  0  0  0  0  0  0  0  0  0
  -29.0960   14.5240  -17.7390 C   0  0  0  0  0  0  0  0  0  0  0  0
  -30.3210   14.1440  -18.1330 O   0  0  0  0  0  0  0  0  0  0  0  0
  -30.5010   13.3650  -19.2210 C   0  0  0  0  0  0  0  0  0  0  0  0
  -31.7730   12.9800  -19.6160 C   0  0  0  0  0  0  0  0  0  0  0  0
  -31.9360   12.1850  -20.7390 C   0  0  0  0  0  0  0  0  0  0  0  0
  -33.1820   11.8130  -21.1260 O   0  0  0  0  0  0  0  0  0  0  0  0
  -30.8290   11.7630  -21.4730 C   0  0  0  0  0  0  0  0  0  0  0  0
  -29.5680   12.1270  -21.0950 C   0  0  0  0  0  0  0  0  0  0  0  0
  -28.9820   15.2270  -16.7500 O   0  0  0  0  0  0  0  0  0  0  0  0
  -29.3870   12.9300  -19.9640 C   0  0  0  0  0  0  0  0  0  0  0  0
  -26.8240   12.9020  -20.3010 C   0  0  0  0  0  0  0  0  0  0  0  0
  -27.3410   14.5650  -22.0920 C   0  0  0  0  0  0  0  0  0  0  0  0
  -26.2780   14.0840  -21.1040 C   0  0  0  0  0  0  0  0  0  0  0  0
  -32.9760   13.4310  -18.8280 C   0  0  0  0  0  0  0  0  0  0  0  0
  -33.5580   12.2710  -18.1270 N   0  0  0  0  0  0  0  0  0  0  0  0
  -34.5650   12.4080  -18.0390 H   0  0  0  0  0  0  0  0  0  0  0  0
  -33.3660   11.4230  -18.6620 H   0  0  0  0  0  0  0  0  0  0  0  0
  -32.9720   12.1390  -16.7790 C   0  0  2  0  0  0  0  0  0  0  0  0
  -32.2330   10.8040  -16.6730 C   0  0  0  0  0  0  0  0  0  0  0  0
  -34.0740   12.1870  -15.7540 C   0  0  0  0  0  0  0  0  0  0  0  0
  -34.5240   11.0520  -15.1960 O   0  0  0  0  0  0  0  0  0  0  0  0
  -34.5540   13.2490  -15.4330 O   0  0  0  0  0  0  0  0  0  0  0  0
  1  2  2  0  0  0  0
  2  3  1  0  0  0  0
  3 11  2  0  0  0  0
  4  3  1  0  0  0  0
  5  4  1  0  0  0  0
  6  5  1  0  0  0  0
  6 16  1  0  0  0  0
  7  6  2  0  0  0  0
  8  7  1  0  0  0  0
  9 10  2  0  0  0  0
  9  7  1  0  0  0  0
 10 12  1  0  0  0  0
 12  1  1  0  0  0  0
 12  5  2  0  0  0  0
 13  1  1  0  0  0  0
 14 15  1  0  0  0  0
 15 13  1  0  0  0  0
 16 17  1  0  0  0  0
 17 18  1  0  0  0  0
 19 17  1  0  0  0  0
 20 17  1  6  0  0  0
 20 21  1  0  0  0  0
 20 22  1  0  0  0  0
 22 24  2  0  0  0  0
 22 23  1  0  0  0  0
M  END
>  <MODEL>
1

>  <REMARK>
 VINA RESULT:      -6.1      0.000      0.000
  Name = ZINC04039469
                            x       y       z     vdW  Elec       q    Type
                         _______ _______ _______ _____ _____    ______ ____

>  <TORSDO>
F 6

>  <vina_score>
-6.1

$$$$
ZINC27654081
 OpenBabel01091701563D

 27 28  0  0  0  0  0  0  0  0999 V2000
  -28.4920   14.8390  -17.7080 C   0  0  0  0  0  0  0  0  0  0  0  0
  -27.4660   15.0770  -18.4710 N   0  0  0  0  0  0  0  0  0  0  0  0
  -27.5510   14.3160  -19.5910 C   0  0  0  0  0  0  0  0  0  0  0  0
  -26.7520   14.1520  -20.7330 C   0  0  0  0  0  0  0  0  0  0  0  0
  -25.6060   14.8590  -20.8820 O   0  0  0  0  0  0  0  0  0  0  0  0
  -27.1430   13.2910  -21.6630 N   0  0  0  0  0  0  0  0  0  0  0  0
  -26.5910   13.1660  -22.4690 H   0  0  0  0  0  0  0  0  0  0  0  0
  -28.2640   12.5940  -21.5260 C   0  0  0  0  0  0  0  0  0  0  0  0
  -29.0490   12.7210  -20.4690 N   0  0  0  0  0  0  0  0  0  0  0  0
  -28.7300   13.5580  -19.4880 C   0  0  0  0  0  0  0  0  0  0  0  0
  -29.3020   13.9080  -18.2910 N   0  0  0  0  0  0  0  0  0  0  0  0
  -28.6240   11.7050  -22.5250 N   0  0  0  0  0  0  0  0  0  0  0  0
  -28.6750   12.0080  -23.4600 H   0  0  0  0  0  0  0  0  0  0  0  0
  -28.8300   10.7690  -22.3000 H   0  0  0  0  0  0  0  0  0  0  0  0
  -30.5530   13.3800  -17.7400 C   0  0  0  0  0  0  0  0  0  0  0  0
  -30.4580   11.9600  -17.6210 O   0  0  0  0  0  0  0  0  0  0  0  0
  -31.7200   11.3020  -17.4960 C   0  0  0  0  0  0  0  0  0  0  0  0
  -32.1730   10.8030  -18.8710 C   0  0  0  0  0  0  0  0  0  0  0  0
  -33.4250   11.4450  -19.2300 O   0  0  0  0  0  0  0  0  0  0  0  0
  -33.5480   11.8730  -20.4970 C   0  0  0  0  0  0  0  0  0  0  0  0
  -34.6170   11.8080  -21.0560 O   0  0  0  0  0  0  0  0  0  0  0  0
  -32.3520   12.4350  -21.2210 C   0  0  0  0  0  0  0  0  0  0  0  0
  -32.3390   13.9590  -21.0800 C   0  0  0  0  0  0  0  0  0  0  0  0
  -33.1020   14.3460  -19.8870 N   0  0  0  0  0  0  0  0  0  0  0  0
  -32.8860   13.7080  -19.1220 H   0  0  0  0  0  0  0  0  0  0  0  0
  -32.8510   15.2970  -19.6170 H   0  0  0  0  0  0  0  0  0  0  0  0
  -34.1000   14.3030  -20.0940 H   0  0  0  0  0  0  0  0  0  0  0  0
  2  1  2  0  0  0  0
  3 10  2  0  0  0  0
  3  2  1  0  0  0  0
  4  3  1  0  0  0  0
  5  4  2  0  0  0  0
  6  8  1  0  0  0  0
  6  4  1  0  0  0  0
  7  6  1  0  0  0  0
  8  9  2  0  0  0  0
  9 10  1  0  0  0  0
 10 11  1  0  0  0  0
 11 15  1  0  0  0  0
 11  1  1  0  0  0  0
 12 14  1  0  0  0  0
 12  8  1  0  0  0  0
 13 12  1  0  0  0  0
 15 16  1  0  0  0  0
 16 17  1  0  0  0  0
 18 17  1  0  0  0  0
 19 18  1  0  0  0  0
 20 19  1  0  0  0  0
 21 20  2  0  0  0  0
 22 23  1  0  0  0  0
 22 20  1  0  0  0  0
 23 24  1  0  0  0  0
 24 26  1  0  0  0  0
 24 25  1  0  0  0  0
 27 24  1  0  0  0  0
M  END
>  <MODEL>
1

>  <REMARK>
 VINA RESULT:      -6.1      0.000      0.000
  Name = ZINC27654081
                            x       y       z     vdW  Elec       q    Type
                         _______ _______ _______ _____ _____    ______ ____

>  <TORSDO>
F 10

>  <vina_score>
-6.1

$$$$
ZINC14709525
 OpenBabel01091701593D

 19 19  0  0  1  0  0  0  0  0999 V2000
  -31.7460   12.6730  -17.7610 C   0  0  0  0  0  0  0  0  0  0  0  0
  -33.0000   12.9960  -18.5300 C   0  0  0  0  0  0  0  0  0  0  0  0
  -33.9990   13.3550  -17.9380 O   0  0  0  0  0  0  0  0  0  0  0  0
  -33.0170   12.8820  -19.9410 C   0  0  1  0  0  0  0  0  0  0  0  0
  -32.2740   13.7540  -20.7150 C   0  0  0  0  0  0  0  0  0  0  0  0
  -31.6030   13.2960  -21.7920 N   0  0  0  0  0  0  0  0  0  0  0  0
  -31.6430   12.3410  -22.0270 H   0  0  0  0  0  0  0  0  0  0  0  0
  -32.2120   15.2160  -20.3550 C   0  0  0  0  0  0  0  0  0  0  0  0
  -33.8050   11.8620  -20.5660 C   0  0  0  0  0  0  0  0  0  0  0  0
  -34.4310   11.0550  -21.0620 N   0  0  0  0  0  0  0  0  0  0  0  0
  -30.8350   11.3630  -18.6150 S   0  0  0  0  0  0  0  0  0  0  0  0
  -27.6270   13.1960  -19.8650 C   0  0  0  0  0  0  0  0  0  0  0  0
  -28.8290   12.5990  -20.1250 N   0  0  0  0  0  0  0  0  0  0  0  0
  -29.2590   12.4840  -21.0030 H   0  0  0  0  0  0  0  0  0  0  0  0
  -29.3100   12.1930  -18.9130 C   0  0  0  0  0  0  0  0  0  0  0  0
  -28.4230   12.5440  -18.0110 N   0  0  0  0  0  0  0  0  0  0  0  0
  -27.4320   13.1340  -18.5780 N   0  0  0  0  0  0  0  0  0  0  0  0
  -27.5180   14.4560  -21.9990 C   0  0  0  0  0  0  0  0  0  0  0  0
  -26.6970   13.8110  -20.8800 C   0  0  0  0  0  0  0  0  0  0  0  0
  2  3  2  0  0  0  0
  2  1  1  0  0  0  0
  4  5  1  1  0  0  0
  4  2  1  0  0  0  0
  5  8  1  0  0  0  0
  6  5  2  0  0  0  0
  7  6  1  0  0  0  0
  9  4  1  0  0  0  0
 10  9  3  0  0  0  0
 11  1  1  0  0  0  0
 12 17  2  0  0  0  0
 13 12  1  0  0  0  0
 13 15  1  0  0  0  0
 14 13  1  0  0  0  0
 15 11  1  0  0  0  0
 15 16  2  0  0  0  0
 17 16  1  0  0  0  0
 18 19  1  0  0  0  0
 19 12  1  0  0  0  0
M  END
>  <MODEL>
1

>  <REMARK>
 VINA RESULT:      -6.1      0.000      0.000
  Name = ZINC14709525
                            x       y       z     vdW  Elec       q    Type
                         _______ _______ _______ _____ _____    ______ ____

>  <TORSDO>
F 7

>  <vina_score>
-6.1

$$$$
ZINC18153419
 OpenBabel01091702003D

 26 28  0  0  1  0  0  0  0  0999 V2000
  -31.8710   11.5050  -18.3750 N   0  0  0  0  0  0  0  0  0  0  0  0
  -30.7040   12.1610  -18.6140 C   0  0  1  0  0  0  0  0  0  0  0  0
  -30.2750   12.6620  -17.4390 N   0  0  0  0  0  0  0  0  0  0  0  0
  -29.4520   13.1820  -17.2930 H   0  0  0  0  0  0  0  0  0  0  0  0
  -31.2150   12.3050  -16.4630 N   0  0  0  0  0  0  0  0  0  0  0  0
  -30.0570   12.2900  -19.8620 C   0  0  0  0  0  0  0  0  0  0  0  0
  -30.4160   11.6830  -21.0760 C   0  0  0  0  0  0  0  0  0  0  0  0
  -29.5720   12.0440  -22.0150 N   0  0  0  0  0  0  0  0  0  0  0  0
  -28.6250   12.8760  -21.5510 C   0  0  0  0  0  0  0  0  0  0  0  0
  -27.5310   13.5160  -22.1520 C   0  0  0  0  0  0  0  0  0  0  0  0
  -26.7230   14.3220  -21.4070 C   0  0  0  0  0  0  0  0  0  0  0  0
  -26.9630   14.5240  -20.0530 C   0  0  0  0  0  0  0  0  0  0  0  0
  -28.0210   13.9160  -19.4360 C   0  0  0  0  0  0  0  0  0  0  0  0
  -28.8620   13.0860  -20.1720 C   0  0  0  0  0  0  0  0  0  0  0  0
  -32.1580   11.6130  -17.0370 C   0  0  0  0  0  0  0  0  0  0  0  0
  -32.6820   10.8030  -19.3740 C   0  0  0  0  0  0  0  0  0  0  0  0
  -33.8920   11.6630  -19.7450 C   0  0  0  0  0  0  0  0  0  0  0  0
  -33.1930   13.4700  -21.1570 C   0  0  0  0  0  0  0  0  0  0  0  0
  -33.7380   12.1510  -21.0790 O   0  0  0  0  0  0  0  0  0  0  0  0
  -33.5670   10.9300  -16.2300 S   0  0  0  0  0  0  0  0  0  0  0  0
  -34.4730   12.4480  -15.8410 C   0  0  0  0  0  0  0  0  0  0  0  0
  -35.0660   12.3390  -14.4590 C   0  0  0  0  0  0  0  0  0  0  0  0
  -34.7710   13.2650  -13.5250 N   0  0  0  0  0  0  0  0  0  0  0  0
  -35.1580   13.1940  -12.6230 H   0  0  0  0  0  0  0  0  0  0  0  0
  -34.1690   14.0120  -13.7450 H   0  0  0  0  0  0  0  0  0  0  0  0
  -35.8080   11.4190  -14.1890 O   0  0  0  0  0  0  0  0  0  0  0  0
  1 15  1  0  0  0  0
  2  6  1  1  0  0  0
  2  1  1  0  0  0  0
  2  3  1  0  0  0  0
  3  4  1  0  0  0  0
  3  5  1  0  0  0  0
  7  6  2  0  0  0  0
  8  9  1  0  0  0  0
  8  7  1  0  0  0  0
  9 14  1  0  0  0  0
 10  9  2  0  0  0  0
 10 11  1  0  0  0  0
 11 12  2  0  0  0  0
 12 13  1  0  0  0  0
 14  6  1  0  0  0  0
 14 13  2  0  0  0  0
 15  5  2  0  0  0  0
 15 20  1  0  0  0  0
 16  1  1  0  0  0  0
 17 16  1  0  0  0  0
 18 19  1  0  0  0  0
 19 17  1  0  0  0  0
 20 21  1  0  0  0  0
 21 22  1  0  0  0  0
 22 26  2  0  0  0  0
 22 23  1  0  0  0  0
 23 24  1  0  0  0  0
 25 23  1  0  0  0  0
M  END
>  <MODEL>
1

>  <REMARK>
 VINA RESULT:      -6.1      0.000      0.000
  Name = ZINC18153419
                            x       y       z     vdW  Elec       q    Type
                         _______ _______ _______ _____ _____    ______ ____

>  <TORSDO>
F 6

>  <vina_score>
-6.1

$$$$
ZINC20199200
 OpenBabel01091701523D

 21 21  0  0  0  0  0  0  0  0999 V2000
  -27.7990   14.8200  -18.4330 C   0  0  0  0  0  0  0  0  0  0  0  0
  -31.6520   11.9760  -17.2570 C   0  0  0  0  0  0  0  0  0  0  0  0
  -31.0940   13.1050  -18.0070 N   0  0  0  0  0  0  0  0  0  0  0  0
  -29.7690   13.4150  -17.8780 C   0  0  0  0  0  0  0  0  0  0  0  0
  -29.2560   14.4580  -18.5660 C   0  0  0  0  0  0  0  0  0  0  0  0
  -30.1050   15.2060  -19.4180 C   0  0  0  0  0  0  0  0  0  0  0  0
  -31.4060   14.8640  -19.5220 N   0  0  0  0  0  0  0  0  0  0  0  0
  -32.2940   15.6290  -20.4000 C   0  0  0  0  0  0  0  0  0  0  0  0
  -29.6650   16.1470  -20.0520 O   0  0  0  0  0  0  0  0  0  0  0  0
  -31.8910   13.8220  -18.8210 C   0  0  0  0  0  0  0  0  0  0  0  0
  -33.0650   13.5260  -18.9230 O   0  0  0  0  0  0  0  0  0  0  0  0
  -27.1870   14.8810  -19.7670 N   0  0  0  0  0  0  0  0  0  0  0  0
  -27.7090   15.5470  -20.3350 H   0  0  0  0  0  0  0  0  0  0  0  0
  -26.2140   15.1750  -19.6740 H   0  0  0  0  0  0  0  0  0  0  0  0
  -27.2300   13.5670  -20.4250 C   0  0  0  0  0  0  0  0  0  0  0  0
  -27.7100   13.7370  -21.8680 C   0  0  0  0  0  0  0  0  0  0  0  0
  -28.4730   12.5910  -22.2530 O   0  0  0  0  0  0  0  0  0  0  0  0
  -29.2880   12.0580  -21.2070 C   0  0  0  0  0  0  0  0  0  0  0  0
  -30.6770   11.7320  -21.7580 C   0  0  0  0  0  0  0  0  0  0  0  0
  -31.2450   12.9050  -22.3420 O   0  0  0  0  0  0  0  0  0  0  0  0
  -31.9040   13.2810  -21.7370 H   0  0  0  0  0  0  0  0  0  0  0  0
  3  4  1  0  0  0  0
  3  2  1  0  0  0  0
  5  1  1  0  0  0  0
  5  4  2  0  0  0  0
  6  5  1  0  0  0  0
  7  6  1  0  0  0  0
  7 10  1  0  0  0  0
  8  7  1  0  0  0  0
  9  6  2  0  0  0  0
 10  3  1  0  0  0  0
 11 10  2  0  0  0  0
 12 14  1  0  0  0  0
 12  1  1  0  0  0  0
 13 12  1  0  0  0  0
 15 12  1  0  0  0  0
 16 15  1  0  0  0  0
 17 16  1  0  0  0  0
 17 18  1  0  0  0  0
 19 18  1  0  0  0  0
 20 19  1  0  0  0  0
 20 21  1  0  0  0  0
M  END
>  <MODEL>
1

>  <REMARK>
 VINA RESULT:      -6.0      0.000      0.000
  Name = ZINC20199200
                            x       y       z     vdW  Elec       q    Type
                         _______ _______ _______ _____ _____    ______ ____

>  <TORSDO>
F 8

>  <vina_score>
-6.0

$$$$
ZINC19731960
 OpenBabel01091702013D

 23 24  0  0  1  0  0  0  0  0999 V2000
  -31.9140   15.5860  -19.9390 C   0  0  0  0  0  0  0  0  0  0  0  0
  -32.3790   14.6140  -21.0260 C   0  0  0  0  0  0  0  0  0  0  0  0
  -31.4310   12.3860  -21.0470 C   0  0  0  0  0  0  0  0  0  0  0  0
  -32.4620   13.2570  -20.4670 N   0  0  0  0  0  0  0  0  0  0  0  0
  -33.3730   12.8720  -20.7130 H   0  0  0  0  0  0  0  0  0  0  0  0
  -32.3640   13.2860  -19.0010 C   0  0  2  0  0  0  0  0  0  0  0  0
  -31.1990   12.3950  -18.5410 C   0  0  0  0  0  0  0  0  0  0  0  0
  -31.2840   12.1630  -17.0130 C   0  0  0  0  0  0  0  0  0  0  0  0
  -33.0880   12.3030  -16.6830 S   0  0  0  0  0  0  0  0  0  0  0  0
  -33.5930   11.0250  -16.3260 O   0  0  0  0  0  0  0  0  0  0  0  0
  -33.3150   13.4120  -15.8230 O   0  0  0  0  0  0  0  0  0  0  0  0
  -33.6760   12.7290  -18.3770 C   0  0  0  0  0  0  0  0  0  0  0  0
  -30.5580   16.1760  -20.3300 C   0  0  0  0  0  0  0  0  0  0  0  0
  -29.6810   16.1410  -19.2030 O   0  0  0  0  0  0  0  0  0  0  0  0
  -28.7910   15.1150  -19.1450 C   0  0  0  0  0  0  0  0  0  0  0  0
  -28.2290   14.7510  -17.9290 C   0  0  0  0  0  0  0  0  0  0  0  0
  -27.3240   13.7090  -17.8680 C   0  0  0  0  0  0  0  0  0  0  0  0
  -26.9760   13.0250  -19.0170 C   0  0  0  0  0  0  0  0  0  0  0  0
  -27.5290   13.3890  -20.2380 C   0  0  0  0  0  0  0  0  0  0  0  0
  -28.4430   14.4330  -20.3000 C   0  0  0  0  0  0  0  0  0  0  0  0
  -27.1730   12.7020  -21.4010 N   0  0  0  0  0  0  0  0  0  0  0  0
  -27.8690   12.4060  -22.0310 H   0  0  0  0  0  0  0  0  0  0  0  0
  -26.2250   12.5140  -21.5900 H   0  0  0  0  0  0  0  0  0  0  0  0
  2  4  1  0  0  0  0
  2  1  1  0  0  0  0
  3  4  1  0  0  0  0
  5  4  1  0  0  0  0
  6  4  1  6  0  0  0
  6  7  1  0  0  0  0
  6 12  1  0  0  0  0
  7  8  1  0  0  0  0
  8  9  1  0  0  0  0
  9 10  2  0  0  0  0
  9 11  2  0  0  0  0
 12  9  1  0  0  0  0
 13  1  1  0  0  0  0
 13 14  1  0  0  0  0
 14 15  1  0  0  0  0
 15 16  2  0  0  0  0
 16 17  1  0  0  0  0
 18 17  2  0  0  0  0
 19 18  1  0  0  0  0
 20 19  2  0  0  0  0
 20 15  1  0  0  0  0
 21 19  1  0  0  0  0
 22 21  1  0  0  0  0
 23 21  1  0  0  0  0
M  END
>  <MODEL>
1

>  <REMARK>
 VINA RESULT:      -6.0      0.000      0.000
  Name = ZINC19731960
                            x       y       z     vdW  Elec       q    Type
                         _______ _______ _______ _____ _____    ______ ____

>  <TORSDO>
F 7

>  <vina_score>
-6.0

$$$$
ZINC19504327
 OpenBabel01091702043D

 20 20  0  0  1  0  0  0  0  0999 V2000
  -28.1460   13.4340  -20.6720 C   0  0  0  0  0  0  0  0  0  0  0  0
  -28.7670   12.3610  -21.2910 C   0  0  0  0  0  0  0  0  0  0  0  0
  -30.0790   12.0500  -20.9820 C   0  0  0  0  0  0  0  0  0  0  0  0
  -30.7710   12.8040  -20.0530 C   0  0  0  0  0  0  0  0  0  0  0  0
  -30.1540   13.8720  -19.4280 C   0  0  0  0  0  0  0  0  0  0  0  0
  -28.8400   14.1900  -19.7320 C   0  0  0  0  0  0  0  0  0  0  0  0
  -25.8390   12.9140  -20.4160 C   0  0  0  0  0  0  0  0  0  0  0  0
  -26.8570   13.7450  -20.9780 O   0  0  0  0  0  0  0  0  0  0  0  0
  -32.1990   12.4600  -19.7190 C   0  0  1  0  0  0  0  0  0  0  0  0
  -32.6220   13.2220  -18.5360 N   0  0  0  0  0  0  0  0  0  0  0  0
  -33.5390   12.8940  -18.2300 H   0  0  0  0  0  0  0  0  0  0  0  0
  -31.9450   13.0870  -17.7850 H   0  0  0  0  0  0  0  0  0  0  0  0
  -32.6760   14.2120  -18.7710 H   0  0  0  0  0  0  0  0  0  0  0  0
  -33.0870   12.8110  -20.8850 C   0  0  0  0  0  0  0  0  0  0  0  0
  -32.7660   13.8390  -21.6870 O   0  0  0  0  0  0  0  0  0  0  0  0
  -34.0870   12.1680  -21.0980 O   0  0  0  0  0  0  0  0  0  0  0  0
  -28.2320   15.2400  -19.1180 O   0  0  0  0  0  0  0  0  0  0  0  0
  -27.7730   15.0330  -17.7810 C   0  0  0  0  0  0  0  0  0  0  0  0
  -28.8030   15.3340  -16.8820 F   0  0  0  0  0  0  0  0  0  0  0  0
  -27.3910   13.6970  -17.6210 F   0  0  0  0  0  0  0  0  0  0  0  0
  1  6  2  0  0  0  0
  2  3  2  0  0  0  0
  2  1  1  0  0  0  0
  3  4  1  0  0  0  0
  4  9  1  0  0  0  0
  4  5  2  0  0  0  0
  6  5  1  0  0  0  0
  6 17  1  0  0  0  0
  8  1  1  0  0  0  0
  8  7  1  0  0  0  0
  9 14  1  6  0  0  0
  9 10  1  0  0  0  0
 10 11  1  0  0  0  0
 10 12  1  0  0  0  0
 13 10  1  0  0  0  0
 15 14  2  0  0  0  0
 16 14  1  0  0  0  0
 17 18  1  0  0  0  0
 18 20  1  0  0  0  0
 18 19  1  0  0  0  0
M  END
>  <MODEL>
1

>  <REMARK>
 VINA RESULT:      -6.0      0.000      0.000
  Name = ZINC19504327
                            x       y       z     vdW  Elec       q    Type
                         _______ _______ _______ _____ _____    ______ ____

>  <TORSDO>
F 6

>  <vina_score>
-6.0

$$$$
ZINC04314877
 OpenBabel01091702043D

 26 28  0  0  0  0  0  0  0  0999 V2000
  -28.9560   14.2190  -17.3190 C   0  0  0  0  0  0  0  0  0  0  0  0
  -28.6920   13.9380  -18.7320 N   0  0  0  0  0  0  0  0  0  0  0  0
  -29.6310   13.2540  -19.4880 C   0  0  0  0  0  0  0  0  0  0  0  0
  -29.3560   12.9990  -20.8260 C   0  0  0  0  0  0  0  0  0  0  0  0
  -30.4500   12.3160  -21.3210 N   0  0  0  0  0  0  0  0  0  0  0  0
  -31.3220   12.1800  -20.3050 C   0  0  0  0  0  0  0  0  0  0  0  0
  -28.1340   13.4420  -21.3750 C   0  0  0  0  0  0  0  0  0  0  0  0
  -27.2590   14.1020  -20.5880 N   0  0  0  0  0  0  0  0  0  0  0  0
  -25.9880   14.5640  -21.1500 C   0  0  0  0  0  0  0  0  0  0  0  0
  -27.8700   13.2290  -22.5450 O   0  0  0  0  0  0  0  0  0  0  0  0
  -30.8330   12.7370  -19.2260 N   0  0  0  0  0  0  0  0  0  0  0  0
  -27.5350   14.3380  -19.2930 C   0  0  0  0  0  0  0  0  0  0  0  0
  -26.7220   14.9330  -18.6120 O   0  0  0  0  0  0  0  0  0  0  0  0
  -32.6620   11.4950  -20.3960 C   0  0  0  0  0  0  0  0  0  0  0  0
  -33.3350   11.5740  -19.0830 N   0  0  0  0  0  0  0  0  0  0  0  0
  -34.2720   11.1780  -19.1650 H   0  0  0  0  0  0  0  0  0  0  0  0
  -33.4500   12.9870  -18.6600 C   0  0  0  0  0  0  0  0  0  0  0  0
  -34.2530   13.0520  -17.3590 C   0  0  0  0  0  0  0  0  0  0  0  0
  -33.5310   12.2460  -16.2770 C   0  0  0  0  0  0  0  0  0  0  0  0
  -33.3530   10.8030  -16.7590 C   0  0  0  0  0  0  0  0  0  0  0  0
  -32.5750   10.8030  -18.0780 C   0  0  0  0  0  0  0  0  0  0  0  0
  -34.3470   12.2570  -15.0100 C   0  0  0  0  0  0  0  0  0  0  0  0
  -34.9700   11.1350  -14.6010 N   0  0  0  0  0  0  0  0  0  0  0  0
  -35.5040   11.1430  -13.7730 H   0  0  0  0  0  0  0  0  0  0  0  0
  -34.8920   10.3080  -15.1290 H   0  0  0  0  0  0  0  0  0  0  0  0
  -34.4420   13.2760  -14.3600 O   0  0  0  0  0  0  0  0  0  0  0  0
  2  1  1  0  0  0  0
  3 11  1  0  0  0  0
  3  2  1  0  0  0  0
  4  3  2  0  0  0  0
  5  4  1  0  0  0  0
  5  6  1  0  0  0  0
  6 11  2  0  0  0  0
  7  4  1  0  0  0  0
  7  8  1  0  0  0  0
  8 12  1  0  0  0  0
  9  8  1  0  0  0  0
 10  7  2  0  0  0  0
 12  2  1  0  0  0  0
 12 13  2  0  0  0  0
 14  6  1  0  0  0  0
 14 15  1  0  0  0  0
 15 17  1  0  0  0  0
 15 21  1  0  0  0  0
 16 15  1  0  0  0  0
 17 18  1  0  0  0  0
 18 19  1  0  0  0  0
 19 22  1  0  0  0  0
 20 19  1  0  0  0  0
 21 20  1  0  0  0  0
 22 23  1  0  0  0  0
 22 26  2  0  0  0  0
 23 24  1  0  0  0  0
 25 23  1  0  0  0  0
M  END
>  <MODEL>
1

>  <REMARK>
 VINA RESULT:      -6.0      0.000      0.000
  Name = ZINC04314877
                            x       y       z     vdW  Elec       q    Type
                         _______ _______ _______ _____ _____    ______ ____

>  <TORSDO>
F 3

>  <vina_score>
-6.0

$$$$
ZINC05116227
 OpenBabel01091702053D

 22 22  0  0  0  0  0  0  0  0999 V2000
  -31.0910   12.3640  -20.6050 N   0  0  0  0  0  0  0  0  0  0  0  0
  -27.8150   15.2420  -18.3340 C   0  0  0  0  0  0  0  0  0  0  0  0
  -28.2110   14.3620  -19.4910 C   0  0  0  0  0  0  0  0  0  0  0  0
  -29.4600   13.7730  -19.5150 C   0  0  0  0  0  0  0  0  0  0  0  0
  -29.8250   12.9620  -20.5820 C   0  0  0  0  0  0  0  0  0  0  0  0
  -28.9320   12.7400  -21.6220 C   0  0  0  0  0  0  0  0  0  0  0  0
  -27.6850   13.3330  -21.6000 C   0  0  0  0  0  0  0  0  0  0  0  0
  -27.3210   14.1440  -20.5340 C   0  0  0  0  0  0  0  0  0  0  0  0
  -26.0550   14.7420  -20.5110 N   0  0  0  0  0  0  0  0  0  0  0  0
  -25.2490   14.1850  -20.4180 H   0  0  0  0  0  0  0  0  0  0  0  0
  -25.9710   15.7200  -20.5840 H   0  0  0  0  0  0  0  0  0  0  0  0
  -32.2550   13.1290  -21.0560 C   0  0  0  0  0  0  0  0  0  0  0  0
  -33.5300   12.3330  -20.7730 C   0  0  0  0  0  0  0  0  0  0  0  0
  -32.3110   14.4620  -20.3080 C   0  0  0  0  0  0  0  0  0  0  0  0
  -31.2490   10.9720  -20.1770 C   0  0  0  0  0  0  0  0  0  0  0  0
  -30.6790   10.8030  -18.7670 C   0  0  0  0  0  0  0  0  0  0  0  0
  -31.8210   10.8320  -17.7490 C   0  0  0  0  0  0  0  0  0  0  0  0
  -31.8380   12.1870  -17.0390 C   0  0  0  0  0  0  0  0  0  0  0  0
  -33.5310   12.5770  -16.5210 S   0  0  0  0  0  0  0  0  0  0  0  0
  -33.3710   13.5430  -15.3550 O   0  0  0  0  0  0  0  0  0  0  0  0
  -34.1490   11.4280  -15.9590 O   0  0  0  0  0  0  0  0  0  0  0  0
  -34.1890   13.3330  -17.5290 O   0  0  0  0  0  0  0  0  0  0  0  0
  1  5  1  0  0  0  0
  1 15  1  0  0  0  0
  3  2  1  0  0  0  0
  4  3  1  0  0  0  0
  5  4  2  0  0  0  0
  6  7  2  0  0  0  0
  6  5  1  0  0  0  0
  7  8  1  0  0  0  0
  8  9  1  0  0  0  0
  8  3  2  0  0  0  0
  9 10  1  0  0  0  0
 11  9  1  0  0  0  0
 12 13  1  0  0  0  0
 12  1  1  0  0  0  0
 12 14  1  0  0  0  0
 15 16  1  0  0  0  0
 16 17  1  0  0  0  0
 17 18  1  0  0  0  0
 18 19  1  0  0  0  0
 19 21  2  0  0  0  0
 19 20  1  0  0  0  0
 22 19  2  0  0  0  0
M  END
>  <MODEL>
1

>  <REMARK>
 VINA RESULT:      -6.0      0.000      0.000
  Name = ZINC05116227
                            x       y       z     vdW  Elec       q    Type
                         _______ _______ _______ _____ _____    ______ ____

>  <TORSDO>
F 8

>  <vina_score>
-6.0

$$$$
ZINC20843215
 OpenBabel01091702063D

 21 21  0  0  0  0  0  0  0  0999 V2000
  -32.5990   13.4250  -20.3610 S   0  0  0  0  0  0  0  0  0  0  0  0
  -29.5770   14.9310  -18.4080 C   0  0  0  0  0  0  0  0  0  0  0  0
  -29.7360   15.7820  -19.3810 N   0  0  0  0  0  0  0  0  0  0  0  0
  -30.7150   15.4200  -20.1290 N   0  0  0  0  0  0  0  0  0  0  0  0
  -31.2360   14.3050  -19.6720 C   0  0  0  0  0  0  0  0  0  0  0  0
  -30.5230   13.9570  -18.5620 N   0  0  0  0  0  0  0  0  0  0  0  0
  -30.7190   12.8640  -17.7650 N   0  0  0  0  0  0  0  0  0  0  0  0
  -30.0630   12.6390  -17.0680 H   0  0  0  0  0  0  0  0  0  0  0  0
  -31.5190   12.3010  -17.8890 H   0  0  0  0  0  0  0  0  0  0  0  0
  -27.3650   14.0930  -17.6660 C   0  0  0  0  0  0  0  0  0  0  0  0
  -28.5410   15.0060  -17.3160 C   0  0  0  0  0  0  0  0  0  0  0  0
  -31.7650   12.5700  -21.7220 C   0  0  0  0  0  0  0  0  0  0  0  0
  -30.3990   12.1220  -21.2710 C   0  0  0  0  0  0  0  0  0  0  0  0
  -29.2990   12.7680  -21.7070 N   0  0  0  0  0  0  0  0  0  0  0  0
  -29.3890   13.5330  -22.3200 H   0  0  0  0  0  0  0  0  0  0  0  0
  -30.2890   11.1800  -20.5160 O   0  0  0  0  0  0  0  0  0  0  0  0
  -28.0290   12.3510  -21.2890 N   0  0  0  0  0  0  0  0  0  0  0  0
  -27.8420   11.3930  -21.1660 H   0  0  0  0  0  0  0  0  0  0  0  0
  -27.0640   13.2620  -21.0550 C   0  0  0  0  0  0  0  0  0  0  0  0
  -25.6980   12.8130  -20.6040 C   0  0  0  0  0  0  0  0  0  0  0  0
  -27.2940   14.4420  -21.2080 O   0  0  0  0  0  0  0  0  0  0  0  0
  1  5  1  0  0  0  0
  2 11  1  0  0  0  0
  3  2  2  0  0  0  0
  4  5  2  0  0  0  0
  4  3  1  0  0  0  0
  5  6  1  0  0  0  0
  6  2  1  0  0  0  0
  6  7  1  0  0  0  0
  7  8  1  0  0  0  0
  9  7  1  0  0  0  0
 10 11  1  0  0  0  0
 12 13  1  0  0  0  0
 12  1  1  0  0  0  0
 13 16  2  0  0  0  0
 14 17  1  0  0  0  0
 14 13  1  0  0  0  0
 15 14  1  0  0  0  0
 17 18  1  0  0  0  0
 17 19  1  0  0  0  0
 19 20  1  0  0  0  0
 21 19  2  0  0  0  0
M  END
>  <MODEL>
1

>  <REMARK>
 VINA RESULT:      -6.0      0.000      0.000
  Name = ZINC20843215
                            x       y       z     vdW  Elec       q    Type
                         _______ _______ _______ _____ _____    ______ ____

>  <TORSDO>
F 6

>  <vina_score>
-6.0

$$$$
ZINC19751959
 OpenBabel01091702083D

 23 24  0  0  1  0  0  0  0  0999 V2000
  -29.1570   13.5110  -19.9700 N   0  0  0  0  0  0  0  0  0  0  0  0
  -30.5040   13.2580  -19.7950 C   0  0  0  0  0  0  0  0  0  0  0  0
  -31.3890   13.4360  -18.7390 C   0  0  0  0  0  0  0  0  0  0  0  0
  -32.7130   13.0730  -18.8820 C   0  0  0  0  0  0  0  0  0  0  0  0
  -33.1680   12.5260  -20.0840 C   0  0  0  0  0  0  0  0  0  0  0  0
  -32.2990   12.3440  -21.1410 C   0  0  0  0  0  0  0  0  0  0  0  0
  -30.9570   12.7090  -21.0060 C   0  0  0  0  0  0  0  0  0  0  0  0
  -29.8860   12.6560  -21.8400 N   0  0  0  0  0  0  0  0  0  0  0  0
  -28.8340   13.1250  -21.2350 C   0  0  0  0  0  0  0  0  0  0  0  0
  -28.3490   13.3000  -17.6710 C   0  0  0  0  0  0  0  0  0  0  0  0
  -28.2450   14.0870  -18.9790 C   0  0  2  0  0  0  0  0  0  0  0  0
  -28.6180   15.5270  -18.7300 C   0  0  0  0  0  0  0  0  0  0  0  0
  -29.3990   16.1780  -19.6050 O   0  0  0  0  0  0  0  0  0  0  0  0
  -28.2140   16.0930  -17.7430 O   0  0  0  0  0  0  0  0  0  0  0  0
  -33.5790   13.2470  -17.8480 O   0  0  0  0  0  0  0  0  0  0  0  0
  -33.2100   12.6780  -16.5910 C   0  0  0  0  0  0  0  0  0  0  0  0
  -34.4760   12.1760  -20.2170 O   0  0  0  0  0  0  0  0  0  0  0  0
  -34.8060   10.8040  -19.9940 C   0  0  0  0  0  0  0  0  0  0  0  0
  -27.4600   13.2240  -21.8440 C   0  0  0  0  0  0  0  0  0  0  0  0
  -26.5350   12.3470  -21.1140 N   0  0  0  0  0  0  0  0  0  0  0  0
  -26.3370   12.7490  -20.1980 H   0  0  0  0  0  0  0  0  0  0  0  0
  -26.9610   11.4270  -20.9970 H   0  0  0  0  0  0  0  0  0  0  0  0
  -25.6660   12.2550  -21.6400 H   0  0  0  0  0  0  0  0  0  0  0  0
  1  2  1  0  0  0  0
  2  3  2  0  0  0  0
  4  3  1  0  0  0  0
  4 15  1  0  0  0  0
  5  4  2  0  0  0  0
  6  7  2  0  0  0  0
  6  5  1  0  0  0  0
  7  2  1  0  0  0  0
  8  9  2  0  0  0  0
  8  7  1  0  0  0  0
  9  1  1  0  0  0  0
 11  1  1  6  0  0  0
 11 12  1  0  0  0  0
 11 10  1  0  0  0  0
 12 14  1  0  0  0  0
 13 12  2  0  0  0  0
 15 16  1  0  0  0  0
 17  5  1  0  0  0  0
 17 18  1  0  0  0  0
 19  9  1  0  0  0  0
 19 20  1  0  0  0  0
 20 22  1  0  0  0  0
 20 21  1  0  0  0  0
 23 20  1  0  0  0  0
M  END
>  <MODEL>
1

>  <REMARK>
 VINA RESULT:      -6.0      0.000      0.000
  Name = ZINC19751959
                            x       y       z     vdW  Elec       q    Type
                         _______ _______ _______ _____ _____    ______ ____

>  <TORSDO>
F 6

>  <vina_score>
-6.0

$$$$
ZINC04226596
 OpenBabel01091702093D

 23 24  0  0  1  0  0  0  0  0999 V2000
  -29.2770   14.3240  -19.6320 C   0  0  1  0  0  0  0  0  0  0  0  0
  -29.8330   15.5520  -19.9600 C   0  0  0  0  0  0  0  0  0  0  0  0
  -31.2120   15.7040  -19.9520 C   0  0  0  0  0  0  0  0  0  0  0  0
  -32.0950   14.7240  -19.6440 N   0  0  0  0  0  0  0  0  0  0  0  0
  -33.0680   14.8750  -19.6500 H   0  0  0  0  0  0  0  0  0  0  0  0
  -31.5500   13.5040  -19.3220 C   0  0  0  0  0  0  0  0  0  0  0  0
  -32.4330   12.4440  -18.9910 C   0  0  0  0  0  0  0  0  0  0  0  0
  -31.9090   11.2010  -18.6600 C   0  0  0  0  0  0  0  0  0  0  0  0
  -30.5390   10.9890  -18.6530 C   0  0  0  0  0  0  0  0  0  0  0  0
  -29.6700   11.9940  -18.9680 C   0  0  0  0  0  0  0  0  0  0  0  0
  -31.8030   17.0440  -20.3050 C   0  0  0  0  0  0  0  0  0  0  0  0
  -30.1560   13.2640  -19.3070 C   0  0  0  0  0  0  0  0  0  0  0  0
  -33.8890   12.6600  -18.9980 C   0  0  0  0  0  0  0  0  0  0  0  0
  -34.6470   12.1110  -19.9680 O   0  0  0  0  0  0  0  0  0  0  0  0
  -34.4080   13.3330  -18.1300 O   0  0  0  0  0  0  0  0  0  0  0  0
  -27.9030   14.1410  -19.6320 N   0  0  0  0  0  0  0  0  0  0  0  0
  -27.3310   14.7120  -19.0690 H   0  0  0  0  0  0  0  0  0  0  0  0
  -27.3020   13.0980  -20.4660 C   0  0  1  0  0  0  0  0  0  0  0  0
  -28.3640   12.1050  -22.4980 C   0  0  0  0  0  0  0  0  0  0  0  0
  -27.6680   13.3440  -21.9320 C   0  0  0  0  0  0  0  0  0  0  0  0
  -25.7820   13.1310  -20.3070 C   0  0  0  0  0  0  0  0  0  0  0  0
  -25.2130   11.9670  -20.9090 O   0  0  0  0  0  0  0  0  0  0  0  0
  -25.8900   11.5130  -21.4360 H   0  0  0  0  0  0  0  0  0  0  0  0
  1 16  1  6  0  0  0
  1 12  1  0  0  0  0
  2  3  2  0  0  0  0
  2  1  1  0  0  0  0
  3  4  1  0  0  0  0
  4  6  1  0  0  0  0
  5  4  1  0  0  0  0
  6 12  2  0  0  0  0
  6  7  1  0  0  0  0
  7  8  2  0  0  0  0
  8  9  1  0  0  0  0
 10  9  2  0  0  0  0
 11  3  1  0  0  0  0
 12 10  1  0  0  0  0
 13  7  1  0  0  0  0
 13 15  1  0  0  0  0
 14 13  2  0  0  0  0
 16 17  1  0  0  0  0
 18 20  1  6  0  0  0
 18 21  1  0  0  0  0
 18 16  1  0  0  0  0
 19 20  1  0  0  0  0
 22 21  1  0  0  0  0
 23 22  1  0  0  0  0
M  END
>  <MODEL>
1

>  <REMARK>
 VINA RESULT:      -6.0      0.000      0.000
  Name = ZINC04226596
                            x       y       z     vdW  Elec       q    Type
                         _______ _______ _______ _____ _____    ______ ____

>  <TORSDO>
F 6

>  <vina_score>
-6.0

$$$$
ZINC03624639
 OpenBabel01091702133D

 21 21  0  0  0  0  0  0  0  0999 V2000
  -29.9760   12.1460  -21.2840 C   0  0  0  0  0  0  0  0  0  0  0  0
  -30.9270   13.0380  -21.9740 N   0  0  0  0  0  0  0  0  0  0  0  0
  -30.4940   13.9520  -22.1000 H   0  0  0  0  0  0  0  0  0  0  0  0
  -31.1680   12.6370  -22.8800 H   0  0  0  0  0  0  0  0  0  0  0  0
  -32.1550   13.1960  -21.1710 C   0  0  0  0  0  0  0  0  0  0  0  0
  -31.8860   12.7180  -19.7430 C   0  0  0  0  0  0  0  0  0  0  0  0
  -33.4410   12.6920  -18.8110 S   0  0  0  0  0  0  0  0  0  0  0  0
  -32.8430   12.2550  -16.8250 P   0  0  0  0  0  0  0  0  0  0  0  0
  -31.2450   12.0670  -16.7760 O   0  0  0  0  0  0  0  0  0  0  0  0
  -33.5590   10.8990  -16.3350 O   0  0  0  0  0  0  0  0  0  0  0  0
  -33.2360   13.3710  -15.9350 O   0  0  0  0  0  0  0  0  0  0  0  0
  -28.5730   12.3760  -21.8500 C   0  0  0  0  0  0  0  0  0  0  0  0
  -28.1640   13.8330  -21.6220 C   0  0  0  0  0  0  0  0  0  0  0  0
  -28.1360   14.0110  -17.3930 C   0  0  0  0  0  0  0  0  0  0  0  0
  -28.7450   15.2200  -18.1080 C   0  0  0  0  0  0  0  0  0  0  0  0
  -28.8600   14.9180  -19.5790 C   0  0  0  0  0  0  0  0  0  0  0  0
  -28.0080   14.0780  -20.1860 N   0  0  0  0  0  0  0  0  0  0  0  0
  -27.0210   13.4500  -19.5290 C   0  0  0  0  0  0  0  0  0  0  0  0
  -26.2930   12.6920  -20.1340 O   0  0  0  0  0  0  0  0  0  0  0  0
  -29.7400   15.4420  -20.2270 O   0  0  0  0  0  0  0  0  0  0  0  0
  -26.7970   13.6740  -18.0570 C   0  0  0  0  0  0  0  0  0  0  0  0
  2  1  1  0  0  0  0
  2  5  1  0  0  0  0
  3  2  1  0  0  0  0
  4  2  1  0  0  0  0
  5  6  1  0  0  0  0
  6  7  1  0  0  0  0
  7  8  1  0  0  0  0
  8  9  2  0  0  0  0
  8 10  1  0  0  0  0
  8 11  1  0  0  0  0
 12 13  1  0  0  0  0
 12  1  1  0  0  0  0
 13 17  1  0  0  0  0
 15 14  1  0  0  0  0
 16 15  1  0  0  0  0
 17 16  1  0  0  0  0
 17 18  1  0  0  0  0
 18 21  1  0  0  0  0
 19 18  2  0  0  0  0
 20 16  2  0  0  0  0
 21 14  1  0  0  0  0
M  END
>  <MODEL>
1

>  <REMARK>
 VINA RESULT:      -6.0      0.000      0.000
  Name = ZINC03624639
                            x       y       z     vdW  Elec       q    Type
                         _______ _______ _______ _____ _____    ______ ____

>  <TORSDO>
F 8

>  <vina_score>
-6.0

$$$$
ZINC03677371
 OpenBabel01091702143D

 23 24  0  0  1  0  0  0  0  0999 V2000
  -32.8870   11.9310  -17.0000 C   0  0  0  0  0  0  0  0  0  0  0  0
  -33.2090   11.2990  -18.1940 C   0  0  0  0  0  0  0  0  0  0  0  0
  -32.5420   11.6340  -19.3560 C   0  0  0  0  0  0  0  0  0  0  0  0
  -31.5450   12.5910  -19.3320 C   0  0  0  0  0  0  0  0  0  0  0  0
  -31.2160   13.2220  -18.1410 C   0  0  0  0  0  0  0  0  0  0  0  0
  -31.8880   12.8910  -16.9730 C   0  0  0  0  0  0  0  0  0  0  0  0
  -33.5470   11.6050  -15.8580 O   0  0  0  0  0  0  0  0  0  0  0  0
  -35.1670   12.0250  -14.1140 C   0  0  0  0  0  0  0  0  0  0  0  0
  -34.3440   12.6260  -15.2550 C   0  0  0  0  0  0  0  0  0  0  0  0
  -30.8160   12.9500  -20.6000 C   0  0  2  0  0  0  0  0  0  0  0  0
  -30.4020   14.3630  -20.5750 N   0  0  0  0  0  0  0  0  0  0  0  0
  -29.5770   14.4660  -19.9830 H   0  0  0  0  0  0  0  0  0  0  0  0
  -30.1790   14.6690  -21.5230 H   0  0  0  0  0  0  0  0  0  0  0  0
  -31.1610   14.9330  -20.2040 H   0  0  0  0  0  0  0  0  0  0  0  0
  -31.7240   12.7260  -21.7830 C   0  0  0  0  0  0  0  0  0  0  0  0
  -31.5200   11.6770  -22.5960 O   0  0  0  0  0  0  0  0  0  0  0  0
  -32.6340   13.4890  -21.9980 O   0  0  0  0  0  0  0  0  0  0  0  0
  -29.5710   12.0700  -20.7400 C   0  0  0  0  0  0  0  0  0  0  0  0
  -28.2130   12.7190  -20.4620 C   0  0  0  0  0  0  0  0  0  0  0  0
  -28.6180   12.3720  -21.8980 C   0  0  0  0  0  0  0  0  0  0  0  0
  -30.2360   14.1630  -18.1170 O   0  0  0  0  0  0  0  0  0  0  0  0
  -29.0880   13.8840  -17.3140 C   0  0  0  0  0  0  0  0  0  0  0  0
  -28.0160   14.9460  -17.5710 C   0  0  0  0  0  0  0  0  0  0  0  0
  1  6  1  0  0  0  0
  1  7  1  0  0  0  0
  2  1  2  0  0  0  0
  3  4  2  0  0  0  0
  3  2  1  0  0  0  0
  4  5  1  0  0  0  0
  5 21  1  0  0  0  0
  5  6  2  0  0  0  0
  7  9  1  0  0  0  0
  9  8  1  0  0  0  0
 10 15  1  6  0  0  0
 10 11  1  0  0  0  0
 10  4  1  0  0  0  0
 11 14  1  0  0  0  0
 11 12  1  0  0  0  0
 13 11  1  0  0  0  0
 16 15  2  0  0  0  0
 17 15  1  0  0  0  0
 18 10  1  0  0  0  0
 18 19  1  0  0  0  0
 20 18  1  0  0  0  0
 20 19  1  0  0  0  0
 21 22  1  0  0  0  0
 23 22  1  0  0  0  0
M  END
>  <MODEL>
1

>  <REMARK>
 VINA RESULT:      -6.0      0.000      0.000
  Name = ZINC03677371
                            x       y       z     vdW  Elec       q    Type
                         _______ _______ _______ _____ _____    ______ ____

>  <TORSDO>
F 8

>  <vina_score>
-6.0

$$$$
ZINC21981401
 OpenBabel01091702163D

 29 30  0  0  1  0  0  0  0  0999 V2000
  -27.9610   12.3760  -22.3970 C   0  0  0  0  0  0  0  0  0  0  0  0
  -27.4960   13.0940  -21.2070 N   0  0  0  0  0  0  0  0  0  0  0  0
  -26.4860   12.7370  -20.3170 C   0  0  0  0  0  0  0  0  0  0  0  0
  -26.6830   13.2250  -19.1170 N   0  0  0  0  0  0  0  0  0  0  0  0
  -27.9350   13.9530  -19.1500 C   0  0  1  0  0  0  0  0  0  0  0  0
  -28.0990   15.2320  -18.4010 C   0  0  0  0  0  0  0  0  0  0  0  0
  -27.4550   15.5050  -17.4110 O   0  0  0  0  0  0  0  0  0  0  0  0
  -29.0450   16.0700  -18.9320 N   0  0  0  0  0  0  0  0  0  0  0  0
  -29.1800   16.9660  -18.5490 H   0  0  0  0  0  0  0  0  0  0  0  0
  -29.8090   15.6520  -20.0100 C   0  0  0  0  0  0  0  0  0  0  0  0
  -29.3240   14.8110  -20.9060 N   0  0  0  0  0  0  0  0  0  0  0  0
  -27.9690   14.3630  -20.6650 C   0  0  2  0  0  0  0  0  0  0  0  0
  -31.0940   16.1200  -20.1500 N   0  0  0  0  0  0  0  0  0  0  0  0
  -31.7570   15.9570  -19.4400 H   0  0  0  0  0  0  0  0  0  0  0  0
  -31.3510   16.6180  -20.9590 H   0  0  0  0  0  0  0  0  0  0  0  0
  -29.3900   12.3320  -22.3970 O   0  0  0  0  0  0  0  0  0  0  0  0
  -29.9340   11.0860  -21.9590 C   0  0  0  0  0  0  0  0  0  0  0  0
  -31.4420   11.0700  -22.2110 C   0  0  0  0  0  0  0  0  0  0  0  0
  -32.0000   12.3710  -21.8870 O   0  0  0  0  0  0  0  0  0  0  0  0
  -32.9330   12.4100  -20.9220 C   0  0  0  0  0  0  0  0  0  0  0  0
  -34.0050   11.8830  -21.0970 O   0  0  0  0  0  0  0  0  0  0  0  0
  -32.6420   13.1140  -19.6220 C   0  0  1  0  0  0  0  0  0  0  0  0
  -33.8600   13.1480  -18.8010 N   0  0  0  0  0  0  0  0  0  0  0  0
  -34.1670   12.1950  -18.6060 H   0  0  0  0  0  0  0  0  0  0  0  0
  -33.6630   13.6270  -17.9210 H   0  0  0  0  0  0  0  0  0  0  0  0
  -34.5940   13.6480  -19.3020 H   0  0  0  0  0  0  0  0  0  0  0  0
  -31.1860   13.1220  -17.5920 C   0  0  0  0  0  0  0  0  0  0  0  0
  -31.5420   12.3610  -18.8700 C   0  0  0  0  0  0  0  0  0  0  0  0
  -32.0390   10.9590  -18.5080 C   0  0  0  0  0  0  0  0  0  0  0  0
  1 16  1  0  0  0  0
  1  2  1  0  0  0  0
  2  3  1  0  0  0  0
  3  4  1  0  0  0  0
  5  4  1  1  0  0  0
  5  6  1  0  0  0  0
  6  7  2  0  0  0  0
  8  9  1  0  0  0  0
  8  6  1  0  0  0  0
 10  8  1  0  0  0  0
 11 12  1  0  0  0  0
 11 10  2  0  0  0  0
 12  2  1  6  0  0  0
 12  5  1  0  0  0  0
 13 10  1  0  0  0  0
 13 14  1  0  0  0  0
 15 13  1  0  0  0  0
 16 17  1  0  0  0  0
 18 17  1  0  0  0  0
 18 19  1  0  0  0  0
 19 20  1  0  0  0  0
 21 20  2  0  0  0  0
 22 20  1  6  0  0  0
 22 28  1  0  0  0  0
 22 23  1  0  0  0  0
 23 24  1  0  0  0  0
 23 25  1  0  0  0  0
 26 23  1  0  0  0  0
 28 29  1  0  0  0  0
 28 27  1  0  0  0  0
M  END
>  <MODEL>
1

>  <REMARK>
 VINA RESULT:      -6.0      0.000      0.000
  Name = ZINC21981401
                            x       y       z     vdW  Elec       q    Type
                         _______ _______ _______ _____ _____    ______ ____

>  <TORSDO>
F 10

>  <vina_score>
-6.0

$$$$
ZINC11635230
 OpenBabel01091702173D

 25 26  0  0  0  0  0  0  0  0999 V2000
  -29.7910   16.2410  -19.7000 C   0  0  0  0  0  0  0  0  0  0  0  0
  -30.5660   14.9530  -19.6080 C   0  0  0  0  0  0  0  0  0  0  0  0
  -31.6670   14.7530  -20.4190 C   0  0  0  0  0  0  0  0  0  0  0  0
  -32.3840   13.5700  -20.3300 C   0  0  0  0  0  0  0  0  0  0  0  0
  -31.9830   12.5800  -19.4300 C   0  0  0  0  0  0  0  0  0  0  0  0
  -32.8790   11.5220  -19.5710 N   0  0  0  0  0  0  0  0  0  0  0  0
  -32.8500   10.6730  -19.0720 H   0  0  0  0  0  0  0  0  0  0  0  0
  -33.7880   11.8570  -20.5050 C   0  0  0  0  0  0  0  0  0  0  0  0
  -34.7130   11.1540  -20.8670 O   0  0  0  0  0  0  0  0  0  0  0  0
  -30.8780   12.7900  -18.6200 C   0  0  0  0  0  0  0  0  0  0  0  0
  -33.5110   13.0840  -20.9870 N   0  0  0  0  0  0  0  0  0  0  0  0
  -34.0200   13.5570  -21.6850 H   0  0  0  0  0  0  0  0  0  0  0  0
  -30.1740   13.9750  -18.7120 C   0  0  0  0  0  0  0  0  0  0  0  0
  -28.7680   14.2410  -17.6830 S   0  0  0  0  0  0  0  0  0  0  0  0
  -28.5930   13.0550  -16.9200 O   0  0  0  0  0  0  0  0  0  0  0  0
  -28.9430   15.5160  -17.0790 O   0  0  0  0  0  0  0  0  0  0  0  0
  -27.4500   14.3640  -18.6770 N   0  0  0  0  0  0  0  0  0  0  0  0
  -26.9310   15.1900  -18.3770 H   0  0  0  0  0  0  0  0  0  0  0  0
  -26.4860   13.2640  -18.7540 C   0  0  0  0  0  0  0  0  0  0  0  0
  -25.8210   13.2640  -20.1320 C   0  0  0  0  0  0  0  0  0  0  0  0
  -26.6870   12.4780  -21.1170 C   0  0  0  0  0  0  0  0  0  0  0  0
  -27.9590   13.2020  -21.3160 N   0  0  0  0  0  0  0  0  0  0  0  0
  -28.2770   13.5670  -20.4180 H   0  0  0  0  0  0  0  0  0  0  0  0
  -28.9860   12.2840  -21.8510 C   0  0  0  0  0  0  0  0  0  0  0  0
  -27.7580   14.3320  -22.2490 C   0  0  0  0  0  0  0  0  0  0  0  0
  1  2  1  0  0  0  0
  2 13  2  0  0  0  0
  3  4  2  0  0  0  0
  3  2  1  0  0  0  0
  4  5  1  0  0  0  0
  5 10  2  0  0  0  0
  6  5  1  0  0  0  0
  6  7  1  0  0  0  0
  8  6  1  0  0  0  0
  9  8  2  0  0  0  0
 11  8  1  0  0  0  0
 11  4  1  0  0  0  0
 12 11  1  0  0  0  0
 13 10  1  0  0  0  0
 13 14  1  0  0  0  0
 14 16  2  0  0  0  0
 14 15  2  0  0  0  0
 17 18  1  0  0  0  0
 17 14  1  0  0  0  0
 19 17  1  0  0  0  0
 20 19  1  0  0  0  0
 21 20  1  0  0  0  0
 22 21  1  0  0  0  0
 22 23  1  0  0  0  0
 24 22  1  0  0  0  0
 25 22  1  0  0  0  0
M  END
>  <MODEL>
1

>  <REMARK>
 VINA RESULT:      -6.0      0.000      0.000
  Name = ZINC11635230
                            x       y       z     vdW  Elec       q    Type
                         _______ _______ _______ _____ _____    ______ ____

>  <TORSDO>
F 6

>  <vina_score>
-6.0

$$$$
ZINC01839390
 OpenBabel01091701523D

 19 19  0  0  0  0  0  0  0  0999 V2000
  -28.6970   12.4080  -20.0500 C   0  0  0  0  0  0  0  0  0  0  0  0
  -28.2650   12.6670  -21.4820 C   0  0  0  0  0  0  0  0  0  0  0  0
  -28.8980   12.0910  -22.5150 O   0  0  0  0  0  0  0  0  0  0  0  0
  -27.2510   13.4770  -21.6690 N   0  0  0  0  0  0  0  0  0  0  0  0
  -26.9540   13.6590  -22.5900 H   0  0  0  0  0  0  0  0  0  0  0  0
  -26.6070   14.0620  -20.6580 C   0  0  0  0  0  0  0  0  0  0  0  0
  -25.5780   14.8760  -20.9670 O   0  0  0  0  0  0  0  0  0  0  0  0
  -26.8960   13.9070  -19.3830 N   0  0  0  0  0  0  0  0  0  0  0  0
  -26.3590   14.3840  -18.7100 H   0  0  0  0  0  0  0  0  0  0  0  0
  -27.8970   13.1220  -18.9760 C   0  0  0  0  0  0  0  0  0  0  0  0
  -28.1560   12.9870  -17.7960 O   0  0  0  0  0  0  0  0  0  0  0  0
  -30.4710   14.0480  -20.0710 N   0  0  0  0  0  0  0  0  0  0  0  0
  -30.1390   12.8220  -19.9110 C   0  0  0  0  0  0  0  0  0  0  0  0
  -31.8730   14.4500  -19.9350 C   0  0  0  0  0  0  0  0  0  0  0  0
  -32.7520   13.5320  -20.7880 C   0  0  0  0  0  0  0  0  0  0  0  0
  -34.2000   11.6320  -20.3860 C   0  0  0  0  0  0  0  0  0  0  0  0
  -33.8400   12.9920  -19.9610 N   0  0  0  0  0  0  0  0  0  0  0  0
  -34.6580   13.5880  -20.0900 H   0  0  0  0  0  0  0  0  0  0  0  0
  -33.4810   13.0200  -18.5370 C   0  0  0  0  0  0  0  0  0  0  0  0
  1 13  1  0  0  0  0
  1 10  1  0  0  0  0
  2  1  1  0  0  0  0
  3  2  2  0  0  0  0
  4  2  1  0  0  0  0
  4  6  1  0  0  0  0
  5  4  1  0  0  0  0
  6  8  1  0  0  0  0
  7  6  2  0  0  0  0
  8 10  1  0  0  0  0
  8  9  1  0  0  0  0
 10 11  2  0  0  0  0
 12 14  1  0  0  0  0
 12 13  2  0  0  0  0
 15 17  1  0  0  0  0
 15 14  1  0  0  0  0
 16 17  1  0  0  0  0
 17 19  1  0  0  0  0
 18 17  1  0  0  0  0
M  END
>  <MODEL>
1

>  <REMARK>
 VINA RESULT:      -6.0      0.000      0.000
  Name = ZINC01839390
                            x       y       z     vdW  Elec       q    Type
                         _______ _______ _______ _____ _____    ______ ____

>  <TORSDO>
F 4

>  <vina_score>
-6.0

$$$$
ZINC26127025
 OpenBabel01091701593D

 27 27  0  0  1  0  0  0  0  0999 V2000
  -31.3140   13.1520  -19.9030 N   0  0  0  0  0  0  0  0  0  0  0  0
  -31.2950   14.0770  -20.2370 H   0  0  0  0  0  0  0  0  0  0  0  0
  -30.4410   12.2430  -20.3840 C   0  0  0  0  0  0  0  0  0  0  0  0
  -30.4650   11.1030  -19.9720 O   0  0  0  0  0  0  0  0  0  0  0  0
  -33.2480   12.2010  -16.9560 C   0  0  1  0  0  0  0  0  0  0  0  0
  -33.1380   10.8030  -16.3450 C   0  0  0  0  0  0  0  0  0  0  0  0
  -31.9450   12.5890  -17.6260 C   0  0  0  0  0  0  0  0  0  0  0  0
  -32.2460   12.7780  -18.9270 N   0  0  0  0  0  0  0  0  0  0  0  0
  -33.5420   12.5570  -19.1700 C   0  0  0  0  0  0  0  0  0  0  0  0
  -34.0500   12.6590  -20.2690 O   0  0  0  0  0  0  0  0  0  0  0  0
  -30.8590   12.7090  -17.1010 O   0  0  0  0  0  0  0  0  0  0  0  0
  -34.2210   12.2090  -18.0620 N   0  0  0  0  0  0  0  0  0  0  0  0
  -34.6220   12.5840  -14.9050 C   0  0  0  0  0  0  0  0  0  0  0  0
  -33.6380   13.2250  -15.8870 C   0  0  0  0  0  0  0  0  0  0  0  0
  -29.4380   12.6450  -21.4340 C   0  0  0  0  0  0  0  0  0  0  0  0
  -28.7810   13.8960  -21.0310 N   0  0  0  0  0  0  0  0  0  0  0  0
  -29.4440   14.6580  -21.1760 H   0  0  0  0  0  0  0  0  0  0  0  0
  -27.6010   14.1630  -21.8640 C   0  0  0  0  0  0  0  0  0  0  0  0
  -26.3520   13.9080  -21.0600 C   0  0  0  0  0  0  0  0  0  0  0  0
  -25.5350   14.9310  -20.7410 N   0  0  0  0  0  0  0  0  0  0  0  0
  -24.7190   14.7650  -20.2150 H   0  0  0  0  0  0  0  0  0  0  0  0
  -25.7540   15.8470  -21.0310 H   0  0  0  0  0  0  0  0  0  0  0  0
  -26.0810   12.7820  -20.7010 O   0  0  0  0  0  0  0  0  0  0  0  0
  -28.4260   13.8680  -19.6060 C   0  0  0  0  0  0  0  0  0  0  0  0
  -28.4870   15.2880  -19.0390 C   0  0  0  0  0  0  0  0  0  0  0  0
  -28.6130   15.2230  -17.5150 C   0  0  0  0  0  0  0  0  0  0  0  0
  -29.7000   16.0180  -19.6200 C   0  0  0  0  0  0  0  0  0  0  0  0
  1  8  1  0  0  0  0
  2  1  1  0  0  0  0
  3  4  2  0  0  0  0
  3  1  1  0  0  0  0
  5  6  1  1  0  0  0
  5 14  1  0  0  0  0
  7 11  2  0  0  0  0
  7  5  1  0  0  0  0
  8  7  1  0  0  0  0
  9  8  1  0  0  0  0
  9 12  1  0  0  0  0
 10  9  2  0  0  0  0
 12  5  1  0  0  0  0
 14 13  1  0  0  0  0
 15 16  1  0  0  0  0
 15  3  1  0  0  0  0
 16 24  1  0  0  0  0
 17 16  1  0  0  0  0
 18 19  1  0  0  0  0
 18 16  1  0  0  0  0
 19 20  1  0  0  0  0
 19 23  2  0  0  0  0
 20 21  1  0  0  0  0
 22 20  1  0  0  0  0
 24 25  1  0  0  0  0
 25 26  1  0  0  0  0
 27 25  1  0  0  0  0
M  END
>  <MODEL>
1

>  <REMARK>
 VINA RESULT:      -6.0      0.000      0.000
  Name = ZINC26127025
                            x       y       z     vdW  Elec       q    Type
                         _______ _______ _______ _____ _____    ______ ____

>  <TORSDO>
F 8

>  <vina_score>
-6.0

$$$$
ZINC07417784
 OpenBabel01091702003D

 20 21  0  0  0  0  0  0  0  0999 V2000
  -32.3450   15.0750  -20.4540 C   0  0  0  0  0  0  0  0  0  0  0  0
  -31.0250   14.9570  -19.9720 C   0  0  0  0  0  0  0  0  0  0  0  0
  -29.9600   15.8710  -19.7710 C   0  0  0  0  0  0  0  0  0  0  0  0
  -28.7950   15.3990  -19.2770 N   0  0  0  0  0  0  0  0  0  0  0  0
  -28.0400   16.0140  -19.1280 H   0  0  0  0  0  0  0  0  0  0  0  0
  -28.6590   14.0730  -18.9820 C   0  0  0  0  0  0  0  0  0  0  0  0
  -29.6370   13.2140  -19.1620 N   0  0  0  0  0  0  0  0  0  0  0  0
  -30.0940   17.0520  -20.0370 O   0  0  0  0  0  0  0  0  0  0  0  0
  -30.8210   13.6040  -19.6490 C   0  0  0  0  0  0  0  0  0  0  0  0
  -31.9840   12.9580  -19.9330 N   0  0  0  0  0  0  0  0  0  0  0  0
  -32.8990   13.8960  -20.4260 N   0  0  0  0  0  0  0  0  0  0  0  0
  -27.1220   13.4960  -18.3390 S   0  0  0  0  0  0  0  0  0  0  0  0
  -26.3540   12.8870  -19.8610 C   0  0  0  0  0  0  0  0  0  0  0  0
  -26.5710   13.9030  -20.9830 C   0  0  0  0  0  0  0  0  0  0  0  0
  -25.8020   15.0780  -20.7170 O   0  0  0  0  0  0  0  0  0  0  0  0
  -26.3750   15.7600  -20.3340 H   0  0  0  0  0  0  0  0  0  0  0  0
  -32.2350   11.5260  -19.7530 C   0  0  0  0  0  0  0  0  0  0  0  0
  -33.7430   11.2750  -19.6960 C   0  0  0  0  0  0  0  0  0  0  0  0
  -34.2970   11.4000  -21.0070 O   0  0  0  0  0  0  0  0  0  0  0  0
  -34.9570   12.1110  -21.0130 H   0  0  0  0  0  0  0  0  0  0  0  0
  1 11  2  0  0  0  0
  1  2  1  0  0  0  0
  2  3  1  0  0  0  0
  2  9  2  0  0  0  0
  3  4  1  0  0  0  0
  4  5  1  0  0  0  0
  4  6  1  0  0  0  0
  6 12  1  0  0  0  0
  7  6  2  0  0  0  0
  8  3  2  0  0  0  0
  9  7  1  0  0  0  0
 10 17  1  0  0  0  0
 10  9  1  0  0  0  0
 11 10  1  0  0  0  0
 13 12  1  0  0  0  0
 14 15  1  0  0  0  0
 14 13  1  0  0  0  0
 15 16  1  0  0  0  0
 17 18  1  0  0  0  0
 19 18  1  0  0  0  0
 20 19  1  0  0  0  0
M  END
>  <MODEL>
1

>  <REMARK>
 VINA RESULT:      -6.0      0.000      0.000
  Name = ZINC07417784
                            x       y       z     vdW  Elec       q    Type
                         _______ _______ _______ _____ _____    ______ ____

>  <TORSDO>
F 7

>  <vina_score>
-6.0

$$$$
ZINC00133162
 OpenBabel01091702033D

 23 24  0  0  1  0  0  0  0  0999 V2000
  -31.8130   13.5440  -20.8590 C   0  0  0  0  0  0  0  0  0  0  0  0
  -30.9960   12.6110  -21.4830 C   0  0  0  0  0  0  0  0  0  0  0  0
  -29.6230   12.7500  -21.4270 C   0  0  0  0  0  0  0  0  0  0  0  0
  -29.0620   13.8170  -20.7490 C   0  0  0  0  0  0  0  0  0  0  0  0
  -29.8730   14.7470  -20.1270 C   0  0  0  0  0  0  0  0  0  0  0  0
  -31.2470   14.6130  -20.1790 C   0  0  0  0  0  0  0  0  0  0  0  0
  -33.1640   13.4070  -20.9070 O   0  0  0  0  0  0  0  0  0  0  0  0
  -33.7130   12.2020  -20.3720 C   0  0  0  0  0  0  0  0  0  0  0  0
  -32.3850   11.6990  -16.3420 C   0  0  0  0  0  0  0  0  0  0  0  0
  -33.2120   12.7570  -16.6710 C   0  0  0  0  0  0  0  0  0  0  0  0
  -33.6420   12.9200  -17.9740 C   0  0  0  0  0  0  0  0  0  0  0  0
  -33.2450   12.0250  -18.9500 C   0  0  0  0  0  0  0  0  0  0  0  0
  -32.4220   10.9630  -18.6210 C   0  0  0  0  0  0  0  0  0  0  0  0
  -31.9880   10.8030  -17.3190 C   0  0  0  0  0  0  0  0  0  0  0  0
  -27.5630   13.9650  -20.6900 C   0  0  0  0  0  0  0  0  0  0  0  0
  -26.9910   12.9630  -19.6860 C   0  0  1  0  0  0  0  0  0  0  0  0
  -25.5190   13.0290  -19.6730 N   0  0  0  0  0  0  0  0  0  0  0  0
  -25.2190   13.9620  -19.9580 H   0  0  0  0  0  0  0  0  0  0  0  0
  -25.1780   12.8350  -18.7320 H   0  0  0  0  0  0  0  0  0  0  0  0
  -25.1420   12.3390  -20.3210 H   0  0  0  0  0  0  0  0  0  0  0  0
  -27.5070   13.2840  -18.3070 C   0  0  0  0  0  0  0  0  0  0  0  0
  -28.4180   12.4850  -17.7280 O   0  0  0  0  0  0  0  0  0  0  0  0
  -27.1010   14.2610  -17.7230 O   0  0  0  0  0  0  0  0  0  0  0  0
  1  6  2  0  0  0  0
  2  3  2  0  0  0  0
  2  1  1  0  0  0  0
  3  4  1  0  0  0  0
  4 15  1  0  0  0  0
  4  5  2  0  0  0  0
  6  5  1  0  0  0  0
  7  1  1  0  0  0  0
  7  8  1  0  0  0  0
  8 12  1  0  0  0  0
 10  9  1  0  0  0  0
 11 10  2  0  0  0  0
 12 13  2  0  0  0  0
 12 11  1  0  0  0  0
 13 14  1  0  0  0  0
 14  9  2  0  0  0  0
 16 15  1  6  0  0  0
 16 17  1  0  0  0  0
 16 21  1  0  0  0  0
 17 19  1  0  0  0  0
 18 17  1  0  0  0  0
 20 17  1  0  0  0  0
 21 22  2  0  0  0  0
 21 23  1  0  0  0  0
M  END
>  <MODEL>
1

>  <REMARK>
 VINA RESULT:      -5.9      0.000      0.000
  Name = ZINC00133162
                            x       y       z     vdW  Elec       q    Type
                         _______ _______ _______ _____ _____    ______ ____

>  <TORSDO>
F 7

>  <vina_score>
-5.9

$$$$
ZINC07578883
 OpenBabel01091702033D

 25 25  0  0  0  0  0  0  0  0999 V2000
  -32.9170   12.2860  -20.3170 N   0  0  0  0  0  0  0  0  0  0  0  0
  -32.6530   11.3090  -20.1870 H   0  0  0  0  0  0  0  0  0  0  0  0
  -34.3250   12.3480  -20.7640 C   0  0  0  0  0  0  0  0  0  0  0  0
  -32.7630   13.0000  -19.0310 C   0  0  0  0  0  0  0  0  0  0  0  0
  -33.6380   12.5550  -16.7610 N   0  0  0  0  0  0  0  0  0  0  0  0
  -33.7680   13.5250  -16.6550 H   0  0  0  0  0  0  0  0  0  0  0  0
  -33.1310   12.0640  -17.9090 C   0  0  0  0  0  0  0  0  0  0  0  0
  -32.9710   10.8690  -18.0380 O   0  0  0  0  0  0  0  0  0  0  0  0
  -35.1720   11.1660  -13.6140 C   0  0  0  0  0  0  0  0  0  0  0  0
  -34.8050   12.1010  -14.7360 C   0  0  0  0  0  0  0  0  0  0  0  0
  -33.9800   11.6850  -15.7170 N   0  0  0  0  0  0  0  0  0  0  0  0
  -33.6180   10.7690  -15.7010 H   0  0  0  0  0  0  0  0  0  0  0  0
  -35.2500   13.2290  -14.7560 O   0  0  0  0  0  0  0  0  0  0  0  0
  -32.0360   12.8890  -21.3380 C   0  0  0  0  0  0  0  0  0  0  0  0
  -30.6010   12.6590  -20.9410 C   0  0  0  0  0  0  0  0  0  0  0  0
  -29.7870   13.7100  -20.7160 N   0  0  0  0  0  0  0  0  0  0  0  0
  -30.1040   14.6250  -20.8940 H   0  0  0  0  0  0  0  0  0  0  0  0
  -30.1800   11.5280  -20.8180 O   0  0  0  0  0  0  0  0  0  0  0  0
  -28.4910   13.5000  -20.2300 C   0  0  0  0  0  0  0  0  0  0  0  0
  -27.4540   13.2190  -21.1100 C   0  0  0  0  0  0  0  0  0  0  0  0
  -26.1760   13.0170  -20.6270 C   0  0  0  0  0  0  0  0  0  0  0  0
  -25.9300   13.0840  -19.2680 C   0  0  0  0  0  0  0  0  0  0  0  0
  -26.9600   13.3580  -18.3880 C   0  0  0  0  0  0  0  0  0  0  0  0
  -28.2410   13.5660  -18.8650 C   0  0  0  0  0  0  0  0  0  0  0  0
  -29.5350   13.9090  -17.7600 Cl  0  0  0  0  0  0  0  0  0  0  0  0
  1  2  1  0  0  0  0
  1  4  1  0  0  0  0
  3  1  1  0  0  0  0
  4  7  1  0  0  0  0
  5  6  1  0  0  0  0
  5 11  1  0  0  0  0
  7  5  1  0  0  0  0
  8  7  2  0  0  0  0
 10  9  1  0  0  0  0
 11 12  1  0  0  0  0
 11 10  1  0  0  0  0
 13 10  2  0  0  0  0
 14 15  1  0  0  0  0
 14  1  1  0  0  0  0
 15 18  2  0  0  0  0
 15 16  1  0  0  0  0
 16 19  1  0  0  0  0
 17 16  1  0  0  0  0
 19 24  2  0  0  0  0
 20 21  2  0  0  0  0
 20 19  1  0  0  0  0
 21 22  1  0  0  0  0
 22 23  2  0  0  0  0
 24 23  1  0  0  0  0
 24 25  1  0  0  0  0
M  END
>  <MODEL>
1

>  <REMARK>
 VINA RESULT:      -5.9      0.000      0.000
  Name = ZINC07578883
                            x       y       z     vdW  Elec       q    Type
                         _______ _______ _______ _____ _____    ______ ____

>  <TORSDO>
F 6

>  <vina_score>
-5.9

$$$$
ZINC06041659
 OpenBabel01091702033D

 26 27  0  0  0  0  0  0  0  0999 V2000
  -29.7340   13.0690  -20.5560 C   0  0  0  0  0  0  0  0  0  0  0  0
  -30.5750   14.1710  -20.5880 C   0  0  0  0  0  0  0  0  0  0  0  0
  -31.7270   14.1940  -19.8310 C   0  0  0  0  0  0  0  0  0  0  0  0
  -32.0490   13.1070  -19.0320 C   0  0  0  0  0  0  0  0  0  0  0  0
  -31.2020   11.9880  -18.9960 C   0  0  0  0  0  0  0  0  0  0  0  0
  -31.7630   11.0890  -18.1460 N   0  0  0  0  0  0  0  0  0  0  0  0
  -32.8760   11.5780  -17.6610 C   0  0  0  0  0  0  0  0  0  0  0  0
  -33.1010   12.8210  -18.1790 N   0  0  0  0  0  0  0  0  0  0  0  0
  -33.8680   13.4050  -17.9810 H   0  0  0  0  0  0  0  0  0  0  0  0
  -30.0380   11.9810  -19.7690 C   0  0  0  0  0  0  0  0  0  0  0  0
  -33.7050   10.9290  -16.7620 N   0  0  0  0  0  0  0  0  0  0  0  0
  -33.9640    9.9920  -16.9190 H   0  0  0  0  0  0  0  0  0  0  0  0
  -34.1560   11.5790  -15.6710 C   0  0  0  0  0  0  0  0  0  0  0  0
  -33.8360   12.7360  -15.4770 O   0  0  0  0  0  0  0  0  0  0  0  0
  -34.9620   10.9480  -14.7970 O   0  0  0  0  0  0  0  0  0  0  0  0
  -35.5490   11.7550  -13.7410 C   0  0  0  0  0  0  0  0  0  0  0  0
  -28.2660   13.0600  -21.5300 S   0  0  0  0  0  0  0  0  0  0  0  0
  -27.8990   14.4190  -21.7260 O   0  0  0  0  0  0  0  0  0  0  0  0
  -28.5020   12.1700  -22.6130 O   0  0  0  0  0  0  0  0  0  0  0  0
  -27.0710   12.3750  -20.6090 N   0  0  0  0  0  0  0  0  0  0  0  0
  -27.5110   11.6430  -20.0530 H   0  0  0  0  0  0  0  0  0  0  0  0
  -26.2960   13.2030  -19.6820 C   0  0  0  0  0  0  0  0  0  0  0  0
  -27.1520   13.5670  -18.4970 C   0  0  0  0  0  0  0  0  0  0  0  0
  -27.5450   12.7040  -17.7470 O   0  0  0  0  0  0  0  0  0  0  0  0
  -28.6430   15.0970  -17.4410 C   0  0  0  0  0  0  0  0  0  0  0  0
  -27.4790   14.8490  -18.2720 O   0  0  0  0  0  0  0  0  0  0  0  0
  1 10  1  0  0  0  0
  2  1  2  0  0  0  0
  2  3  1  0  0  0  0
  3  4  2  0  0  0  0
  4  5  1  0  0  0  0
  4  8  1  0  0  0  0
  5  6  1  0  0  0  0
  6  7  2  0  0  0  0
  7 11  1  0  0  0  0
  8  9  1  0  0  0  0
  8  7  1  0  0  0  0
 10  5  2  0  0  0  0
 11 13  1  0  0  0  0
 12 11  1  0  0  0  0
 13 14  2  0  0  0  0
 13 15  1  0  0  0  0
 15 16  1  0  0  0  0
 17 20  1  0  0  0  0
 17  1  1  0  0  0  0
 18 17  2  0  0  0  0
 19 17  2  0  0  0  0
 20 21  1  0  0  0  0
 20 22  1  0  0  0  0
 22 23  1  0  0  0  0
 23 26  1  0  0  0  0
 23 24  2  0  0  0  0
 26 25  1  0  0  0  0
M  END
>  <MODEL>
1

>  <REMARK>
 VINA RESULT:      -5.9      0.000      0.000
  Name = ZINC06041659
                            x       y       z     vdW  Elec       q    Type
                         _______ _______ _______ _____ _____    ______ ____

>  <TORSDO>
F 7

>  <vina_score>
-5.9

$$$$
ZINC06382444
 OpenBabel01091702063D

 22 23  0  0  1  0  0  0  0  0999 V2000
  -31.9050   15.0900  -20.1260 C   0  0  0  0  0  0  0  0  0  0  0  0
  -30.4870   15.3890  -20.3410 N   0  0  0  0  0  0  0  0  0  0  0  0
  -30.2130   15.9480  -21.1040 H   0  0  0  0  0  0  0  0  0  0  0  0
  -29.5580   14.8980  -19.4950 C   0  0  0  0  0  0  0  0  0  0  0  0
  -29.8810   14.5060  -18.2760 N   0  0  0  0  0  0  0  0  0  0  0  0
  -29.0240   13.9530  -17.4240 C   0  0  0  0  0  0  0  0  0  0  0  0
  -27.8500   13.4640  -17.8060 N   0  0  0  0  0  0  0  0  0  0  0  0
  -27.5500   13.6200  -19.0960 C   0  0  0  0  0  0  0  0  0  0  0  0
  -26.9570   12.8550  -19.9640 N   0  0  0  0  0  0  0  0  0  0  0  0
  -27.2070   13.2530  -21.2180 C   0  0  0  0  0  0  0  0  0  0  0  0
  -27.9100   14.3490  -21.2810 N   0  0  0  0  0  0  0  0  0  0  0  0
  -28.1140   14.7830  -19.9020 C   0  0  1  0  0  0  0  0  0  0  0  0
  -32.3330   13.9520  -21.0530 C   0  0  2  0  0  0  0  0  0  0  0  0
  -33.1100   14.4800  -22.1300 O   0  0  0  0  0  0  0  0  0  0  0  0
  -34.0300   14.5910  -21.8410 H   0  0  0  0  0  0  0  0  0  0  0  0
  -33.1710   12.9410  -20.2680 C   0  0  0  0  0  0  0  0  0  0  0  0
  -32.4790   12.6360  -18.9980 N   0  0  0  0  0  0  0  0  0  0  0  0
  -31.6920   13.2770  -18.8880 H   0  0  0  0  0  0  0  0  0  0  0  0
  -32.6380   12.8400  -16.5390 C   0  0  0  0  0  0  0  0  0  0  0  0
  -33.4070   12.8170  -17.8620 C   0  0  0  0  0  0  0  0  0  0  0  0
  -31.9700   11.2490  -19.0200 C   0  0  0  0  0  0  0  0  0  0  0  0
  -30.5120   11.2660  -19.4850 C   0  0  0  0  0  0  0  0  0  0  0  0
  2  1  1  0  0  0  0
  2  4  1  0  0  0  0
  3  2  1  0  0  0  0
  4  5  2  0  0  0  0
  5  6  1  0  0  0  0
  7  6  2  0  0  0  0
  8  7  1  0  0  0  0
  9  8  2  0  0  0  0
 10  9  1  0  0  0  0
 11 10  2  0  0  0  0
 12 11  1  6  0  0  0
 12  4  1  0  0  0  0
 12  8  1  0  0  0  0
 13 14  1  6  0  0  0
 13 16  1  0  0  0  0
 13  1  1  0  0  0  0
 14 15  1  0  0  0  0
 16 17  1  0  0  0  0
 17 18  1  0  0  0  0
 17 20  1  0  0  0  0
 20 19  1  0  0  0  0
 21 17  1  0  0  0  0
 22 21  1  0  0  0  0
M  END
>  <MODEL>
1

>  <REMARK>
 VINA RESULT:      -5.9      0.000      0.000
  Name = ZINC06382444
                            x       y       z     vdW  Elec       q    Type
                         _______ _______ _______ _____ _____    ______ ____

>  <TORSDO>
F 8

>  <vina_score>
-5.9

$$$$
ZINC05114539
 OpenBabel01091702103D

 30 32  0  0  1  0  0  0  0  0999 V2000
  -26.7610   12.6760  -19.6490 C   0  0  0  0  0  0  0  0  0  0  0  0
  -27.5420   13.9210  -20.0750 C   0  0  1  0  0  0  0  0  0  0  0  0
  -28.8310   13.5030  -20.7610 C   0  0  0  0  0  0  0  0  0  0  0  0
  -29.9480   13.1050  -19.9010 C   0  0  0  0  0  0  0  0  0  0  0  0
  -29.9840   13.4190  -18.5300 C   0  0  0  0  0  0  0  0  0  0  0  0
  -28.8800   14.1690  -17.8870 C   0  0  0  0  0  0  0  0  0  0  0  0
  -28.7850   14.3000  -16.6830 O   0  0  0  0  0  0  0  0  0  0  0  0
  -31.1720   12.9020  -18.0240 C   0  0  0  0  0  0  0  0  0  0  0  0
  -31.8190   12.2900  -19.0560 C   0  0  0  0  0  0  0  0  0  0  0  0
  -33.0900   11.5150  -19.3420 C   0  0  2  0  0  0  0  0  0  0  0  0
  -32.8190   10.8270  -20.6980 C   0  0  2  0  0  0  0  0  0  0  0  0
  -31.7750   11.7760  -21.3280 C   0  0  0  0  0  0  0  0  0  0  0  0
  -31.0880   12.4180  -20.1940 N   0  0  0  0  0  0  0  0  0  0  0  0
  -28.9320   13.5000  -21.9700 O   0  0  0  0  0  0  0  0  0  0  0  0
  -27.8850   14.7500  -18.8520 C   0  0  0  0  0  0  0  0  0  0  0  0
  -27.3510   15.8950  -18.6490 N   0  0  0  0  0  0  0  0  0  0  0  0
  -26.7010   16.2570  -19.2960 H   0  0  0  0  0  0  0  0  0  0  0  0
  -34.0430   10.8030  -21.5190 N   0  0  0  0  0  0  0  0  0  0  0  0
  -34.5890   11.6460  -21.3390 H   0  0  0  0  0  0  0  0  0  0  0  0
  -33.7900   10.7650  -22.5060 H   0  0  0  0  0  0  0  0  0  0  0  0
  -34.5970    9.9810  -21.2780 H   0  0  0  0  0  0  0  0  0  0  0  0
  -34.2050   12.4030  -19.4440 O   0  0  0  0  0  0  0  0  0  0  0  0
  -33.9740   13.2590  -19.0500 H   0  0  0  0  0  0  0  0  0  0  0  0
  -31.6510   12.9930  -16.5990 C   0  0  0  0  0  0  0  0  0  0  0  0
  -33.0580   13.3550  -16.5830 O   0  0  0  0  0  0  0  0  0  0  0  0
  -33.8760   12.5930  -15.8340 C   0  0  0  0  0  0  0  0  0  0  0  0
  -33.7880   11.2490  -15.8940 N   0  0  0  0  0  0  0  0  0  0  0  0
  -34.3830   10.6920  -15.3420 H   0  0  0  0  0  0  0  0  0  0  0  0
  -33.1290   10.8250  -16.4890 H   0  0  0  0  0  0  0  0  0  0  0  0
  -34.6890   13.1160  -15.0980 O   0  0  0  0  0  0  0  0  0  0  0  0
  2  1  1  1  0  0  0
  2 15  1  0  0  0  0
  3  2  1  0  0  0  0
  3  4  1  0  0  0  0
  4  5  2  0  0  0  0
  5  8  1  0  0  0  0
  5  6  1  0  0  0  0
  6  7  2  0  0  0  0
  8 24  1  0  0  0  0
  9  8  2  0  0  0  0
 10 22  1  6  0  0  0
 10  9  1  0  0  0  0
 11 18  1  6  0  0  0
 11 10  1  0  0  0  0
 12 11  1  0  0  0  0
 12 13  1  0  0  0  0
 13  4  1  0  0  0  0
 13  9  1  0  0  0  0
 14  3  2  0  0  0  0
 15 16  2  0  0  0  0
 15  6  1  0  0  0  0
 17 16  1  0  0  0  0
 18 19  1  0  0  0  0
 18 21  1  0  0  0  0
 20 18  1  0  0  0  0
 22 23  1  0  0  0  0
 24 25  1  0  0  0  0
 25 26  1  0  0  0  0
 26 30  2  0  0  0  0
 27 26  1  0  0  0  0
 27 28  1  0  0  0  0
 29 27  1  0  0  0  0
M  END
>  <MODEL>
1

>  <REMARK>
 VINA RESULT:      -5.9      0.000      0.000
  Name = ZINC05114539
                            x       y       z     vdW  Elec       q    Type
                         _______ _______ _______ _____ _____    ______ ____

>  <TORSDO>
F 5

>  <vina_score>
-5.9

$$$$
ZINC19950324
 OpenBabel01091702103D

 24 24  0  0  0  0  0  0  0  0999 V2000
  -32.8170   11.8060  -18.7560 N   0  0  0  0  0  0  0  0  0  0  0  0
  -31.4780   11.7060  -18.8780 C   0  0  0  0  0  0  0  0  0  0  0  0
  -30.8780   11.9670  -20.1990 C   0  0  0  0  0  0  0  0  0  0  0  0
  -31.7950   12.3300  -21.2930 C   0  0  0  0  0  0  0  0  0  0  0  0
  -33.1150   12.3970  -21.0220 N   0  0  0  0  0  0  0  0  0  0  0  0
  -33.7420   12.6390  -21.7420 H   0  0  0  0  0  0  0  0  0  0  0  0
  -31.3740   12.5650  -22.4100 O   0  0  0  0  0  0  0  0  0  0  0  0
  -29.5130   11.8790  -20.4010 C   0  0  0  0  0  0  0  0  0  0  0  0
  -30.7840   11.4050  -17.9250 O   0  0  0  0  0  0  0  0  0  0  0  0
  -33.5930   12.1420  -19.7960 C   0  0  0  0  0  0  0  0  0  0  0  0
  -34.7930   12.2180  -19.6180 O   0  0  0  0  0  0  0  0  0  0  0  0
  -29.0100   11.9660  -21.6480 N   0  0  0  0  0  0  0  0  0  0  0  0
  -29.4330   11.4710  -22.3860 H   0  0  0  0  0  0  0  0  0  0  0  0
  -27.8320   12.8000  -21.9070 C   0  0  0  0  0  0  0  0  0  0  0  0
  -27.0680   13.0230  -20.6010 C   0  0  0  0  0  0  0  0  0  0  0  0
  -26.8430   14.5220  -20.3910 C   0  0  0  0  0  0  0  0  0  0  0  0
  -27.4270   14.9300  -19.1060 N   0  0  0  0  0  0  0  0  0  0  0  0
  -26.9110   15.7430  -18.7720 H   0  0  0  0  0  0  0  0  0  0  0  0
  -27.2870   13.8650  -18.1030 C   0  0  0  0  0  0  0  0  0  0  0  0
  -28.8330   15.3210  -19.2670 C   0  0  0  0  0  0  0  0  0  0  0  0
  -33.4390   11.5470  -17.4540 C   0  0  0  0  0  0  0  0  0  0  0  0
  -33.2220   12.7520  -16.5370 C   0  0  0  0  0  0  0  0  0  0  0  0
  -34.4690   11.3460  -14.8900 C   0  0  0  0  0  0  0  0  0  0  0  0
  -34.2940   12.7610  -15.4450 C   0  0  0  0  0  0  0  0  0  0  0  0
  1 21  1  0  0  0  0
  2  1  1  0  0  0  0
  2  9  2  0  0  0  0
  3  2  1  0  0  0  0
  4  5  1  0  0  0  0
  4  3  1  0  0  0  0
  5 10  1  0  0  0  0
  6  5  1  0  0  0  0
  7  4  2  0  0  0  0
  8  3  2  0  0  0  0
 10 11  2  0  0  0  0
 10  1  1  0  0  0  0
 12  8  1  0  0  0  0
 13 12  1  0  0  0  0
 14 12  1  0  0  0  0
 14 15  1  0  0  0  0
 15 16  1  0  0  0  0
 16 17  1  0  0  0  0
 17 18  1  0  0  0  0
 17 19  1  0  0  0  0
 20 17  1  0  0  0  0
 21 22  1  0  0  0  0
 22 24  1  0  0  0  0
 24 23  1  0  0  0  0
M  END
>  <MODEL>
1

>  <REMARK>
 VINA RESULT:      -5.9      0.000      0.000
  Name = ZINC19950324
                            x       y       z     vdW  Elec       q    Type
                         _______ _______ _______ _____ _____    ______ ____

>  <TORSDO>
F 8

>  <vina_score>
-5.9

$$$$
ZINC23369516
 OpenBabel01091702143D

 25 26  0  0  1  0  0  0  0  0999 V2000
  -28.2240   14.2810  -19.8440 C   0  0  0  0  0  0  0  0  0  0  0  0
  -28.7860   13.3380  -19.0530 C   0  0  0  0  0  0  0  0  0  0  0  0
  -29.4440   14.0080  -18.0780 N   0  0  0  0  0  0  0  0  0  0  0  0
  -29.2780   15.2700  -18.2730 N   0  0  0  0  0  0  0  0  0  0  0  0
  -28.5540   15.4650  -19.3180 N   0  0  0  0  0  0  0  0  0  0  0  0
  -27.3860   14.0410  -21.0740 C   0  0  0  0  0  0  0  0  0  0  0  0
  -27.8130   14.9530  -22.1430 N   0  0  0  0  0  0  0  0  0  0  0  0
  -26.9930   15.3610  -22.5900 H   0  0  0  0  0  0  0  0  0  0  0  0
  -28.3550   14.4350  -22.8340 H   0  0  0  0  0  0  0  0  0  0  0  0
  -28.3880   15.6950  -21.7460 H   0  0  0  0  0  0  0  0  0  0  0  0
  -25.2440   12.9800  -20.3450 C   0  0  0  0  0  0  0  0  0  0  0  0
  -25.9140   14.2970  -20.7450 C   0  0  0  0  0  0  0  0  0  0  0  0
  -27.5620   12.5940  -21.5360 C   0  0  0  0  0  0  0  0  0  0  0  0
  -29.0220   12.3570  -21.9260 C   0  0  0  0  0  0  0  0  0  0  0  0
  -30.2090   13.4010  -16.9850 C   0  0  0  0  0  0  0  0  0  0  0  0
  -31.5700   12.9390  -17.5110 C   0  0  2  0  0  0  0  0  0  0  0  0
  -32.2210   12.0050  -16.4880 C   0  0  0  0  0  0  0  0  0  0  0  0
  -33.5970   11.5680  -16.9970 C   0  0  0  0  0  0  0  0  0  0  0  0
  -33.4310   10.8040  -18.3150 C   0  0  0  0  0  0  0  0  0  0  0  0
  -32.6770   11.6430  -19.2560 N   0  0  0  0  0  0  0  0  0  0  0  0
  -31.3800   12.1910  -18.8330 C   0  0  0  0  0  0  0  0  0  0  0  0
  -33.2760   11.9650  -20.7660 S   0  0  0  0  0  0  0  0  0  0  0  0
  -32.6660   13.6270  -21.1650 C   0  0  0  0  0  0  0  0  0  0  0  0
  -34.6870   11.9890  -20.5990 O   0  0  0  0  0  0  0  0  0  0  0  0
  -32.6640   11.0020  -21.6120 O   0  0  0  0  0  0  0  0  0  0  0  0
  1  5  1  0  0  0  0
  1  2  2  0  0  0  0
  2  3  1  0  0  0  0
  3 15  1  0  0  0  0
  4  3  1  0  0  0  0
  5  4  2  0  0  0  0
  6 12  1  0  0  0  0
  6  1  1  0  0  0  0
  7 10  1  0  0  0  0
  7  6  1  0  0  0  0
  8  7  1  0  0  0  0
  9  7  1  0  0  0  0
 12 11  1  0  0  0  0
 13  6  1  0  0  0  0
 14 13  1  0  0  0  0
 16 15  1  1  0  0  0
 16 17  1  0  0  0  0
 18 17  1  0  0  0  0
 19 18  1  0  0  0  0
 20 21  1  0  0  0  0
 20 19  1  0  0  0  0
 21 16  1  0  0  0  0
 22 24  2  0  0  0  0
 22 20  1  0  0  0  0
 23 22  1  0  0  0  0
 25 22  2  0  0  0  0
M  END
>  <MODEL>
1

>  <REMARK>
 VINA RESULT:      -5.9      0.000      0.000
  Name = ZINC23369516
                            x       y       z     vdW  Elec       q    Type
                         _______ _______ _______ _____ _____    ______ ____

>  <TORSDO>
F 7

>  <vina_score>
-5.9

$$$$
ZINC04226539
 OpenBabel01091701533D

 24 25  0  0  1  0  0  0  0  0999 V2000
  -28.1180   15.0740  -18.1840 C   0  0  0  0  0  0  0  0  0  0  0  0
  -29.1340   13.9670  -18.2770 C   0  0  0  0  0  0  0  0  0  0  0  0
  -30.1400   14.0020  -17.3730 N   0  0  0  0  0  0  0  0  0  0  0  0
  -30.2060   14.7100  -16.6930 H   0  0  0  0  0  0  0  0  0  0  0  0
  -31.0670   12.9850  -17.4640 C   0  0  0  0  0  0  0  0  0  0  0  0
  -32.1300   12.9790  -16.5460 C   0  0  0  0  0  0  0  0  0  0  0  0
  -33.0790   11.9720  -16.6070 C   0  0  1  0  0  0  0  0  0  0  0  0
  -32.9860   10.9610  -17.5780 C   0  0  0  0  0  0  0  0  0  0  0  0
  -31.9640   10.9500  -18.4730 C   0  0  0  0  0  0  0  0  0  0  0  0
  -30.9880   11.9580  -18.4360 C   0  0  0  0  0  0  0  0  0  0  0  0
  -29.9130   11.9710  -19.3580 C   0  0  0  0  0  0  0  0  0  0  0  0
  -28.9840   12.9930  -19.2570 C   0  0  0  0  0  0  0  0  0  0  0  0
  -34.1980   11.9620  -15.6420 C   0  0  0  0  0  0  0  0  0  0  0  0
  -34.8050   13.1170  -15.3040 O   0  0  0  0  0  0  0  0  0  0  0  0
  -34.5700   10.9140  -15.1530 O   0  0  0  0  0  0  0  0  0  0  0  0
  -29.7920   10.9880  -20.3280 N   0  0  0  0  0  0  0  0  0  0  0  0
  -29.6340   10.0520  -20.0640 H   0  0  0  0  0  0  0  0  0  0  0  0
  -29.8970   11.3400  -21.7460 C   0  0  0  0  0  0  0  0  0  0  0  0
  -31.3710   11.3910  -22.1510 C   0  0  0  0  0  0  0  0  0  0  0  0
  -31.7800   12.7530  -22.2920 O   0  0  0  0  0  0  0  0  0  0  0  0
  -32.7500   13.1720  -21.3300 C   0  0  0  0  0  0  0  0  0  0  0  0
  -32.3260   14.5130  -20.7280 C   0  0  0  0  0  0  0  0  0  0  0  0
  -33.0370   14.7340  -19.5080 O   0  0  0  0  0  0  0  0  0  0  0  0
  -33.1710   15.6850  -19.3800 H   0  0  0  0  0  0  0  0  0  0  0  0
  2  1  1  0  0  0  0
  2  3  1  0  0  0  0
  3  4  1  0  0  0  0
  5  3  1  0  0  0  0
  5  6  2  0  0  0  0
  7  6  1  0  0  0  0
  7 13  1  1  0  0  0
  8  7  1  0  0  0  0
  9 10  1  0  0  0  0
  9  8  2  0  0  0  0
 10  5  1  0  0  0  0
 11 12  1  0  0  0  0
 11 10  2  0  0  0  0
 12  2  2  0  0  0  0
 13 14  2  0  0  0  0
 13 15  1  0  0  0  0
 16 17  1  0  0  0  0
 16 11  1  0  0  0  0
 18 16  1  0  0  0  0
 19 18  1  0  0  0  0
 20 19  1  0  0  0  0
 20 21  1  0  0  0  0
 21 22  1  0  0  0  0
 22 23  1  0  0  0  0
 23 24  1  0  0  0  0
M  END
>  <MODEL>
1

>  <REMARK>
 VINA RESULT:      -5.9      0.000      0.000
  Name = ZINC04226539
                            x       y       z     vdW  Elec       q    Type
                         _______ _______ _______ _____ _____    ______ ____

>  <TORSDO>
F 8

>  <vina_score>
-5.9

$$$$
ZINC01871948
 OpenBabel01091702173D

 24 25  0  0  1  0  0  0  0  0999 V2000
  -32.3990   16.8360  -20.4350 C   0  0  0  0  0  0  0  0  0  0  0  0
  -31.0260   16.3820  -20.0110 C   0  0  0  0  0  0  0  0  0  0  0  0
  -30.8120   15.0900  -19.6910 N   0  0  0  0  0  0  0  0  0  0  0  0
  -31.7660   14.1010  -19.7130 C   0  0  0  0  0  0  0  0  0  0  0  0
  -31.2230   12.9330  -19.3390 C   0  0  0  0  0  0  0  0  0  0  0  0
  -29.8060   13.1880  -19.0540 C   0  0  0  0  0  0  0  0  0  0  0  0
  -28.7460   12.3860  -18.6320 C   0  0  0  0  0  0  0  0  0  0  0  0
  -27.4990   12.9440  -18.4510 C   0  0  0  0  0  0  0  0  0  0  0  0
  -27.2970   14.2970  -18.6780 C   0  0  0  0  0  0  0  0  0  0  0  0
  -28.3360   15.1010  -19.1000 C   0  0  0  0  0  0  0  0  0  0  0  0
  -29.5990   14.5580  -19.2900 C   0  0  0  0  0  0  0  0  0  0  0  0
  -30.1130   17.1780  -19.9590 O   0  0  0  0  0  0  0  0  0  0  0  0
  -31.9330   11.6090  -19.2330 C   0  0  2  0  0  0  0  0  0  0  0  0
  -32.5250   11.1080  -20.8730 S   0  0  0  0  0  0  0  0  0  0  0  0
  -31.3080   11.8190  -22.0150 C   0  0  0  0  0  0  0  0  0  0  0  0
  -30.1900   10.8040  -22.2640 C   0  0  0  0  0  0  0  0  0  0  0  0
  -28.9200   11.5270  -22.4550 N   0  0  0  0  0  0  0  0  0  0  0  0
  -29.1070   12.5260  -22.5380 H   0  0  0  0  0  0  0  0  0  0  0  0
  -28.3100   11.3610  -21.6540 H   0  0  0  0  0  0  0  0  0  0  0  0
  -28.4650   11.1940  -23.3040 H   0  0  0  0  0  0  0  0  0  0  0  0
  -33.1220   11.7420  -18.2800 C   0  0  0  0  0  0  0  0  0  0  0  0
  -32.6330   11.8730  -16.9050 N   0  0  0  0  0  0  0  0  0  0  0  0
  -33.0970   12.7290  -16.1730 O   0  0  0  0  0  0  0  0  0  0  0  0
  -31.7630   11.1250  -16.4940 O   0  0  0  0  0  0  0  0  0  0  0  0
  1  2  1  0  0  0  0
  2 12  2  0  0  0  0
  2  3  1  0  0  0  0
  3 11  1  0  0  0  0
  4  3  1  0  0  0  0
  4  5  2  0  0  0  0
  5 13  1  0  0  0  0
  5  6  1  0  0  0  0
  6  7  2  0  0  0  0
  7  8  1  0  0  0  0
  9  8  2  0  0  0  0
 10  9  1  0  0  0  0
 11 10  2  0  0  0  0
 11  6  1  0  0  0  0
 13 14  1  6  0  0  0
 13 21  1  0  0  0  0
 15 14  1  0  0  0  0
 16 15  1  0  0  0  0
 17 16  1  0  0  0  0
 17 19  1  0  0  0  0
 18 17  1  0  0  0  0
 20 17  1  0  0  0  0
 21 22  1  0  0  0  0
 22 24  2  0  0  0  0
 22 23  2  0  0  0  0
M  END
>  <MODEL>
1

>  <REMARK>
 VINA RESULT:      -5.9      0.000      0.000
  Name = ZINC01871948
                            x       y       z     vdW  Elec       q    Type
                         _______ _______ _______ _____ _____    ______ ____

>  <TORSDO>
F 7

>  <vina_score>
-5.9

$$$$
ZINC11804938
 OpenBabel01091701513D

 21 21  0  0  0  0  0  0  0  0999 V2000
  -30.7260   11.6040  -19.3320 S   0  0  0  0  0  0  0  0  0  0  0  0
  -30.3530   10.8060  -18.2170 O   0  0  0  0  0  0  0  0  0  0  0  0
  -31.2160   11.0410  -20.5410 O   0  0  0  0  0  0  0  0  0  0  0  0
  -29.3110   12.5630  -19.7600 C   0  0  0  0  0  0  0  0  0  0  0  0
  -28.5400   13.1380  -18.7660 C   0  0  0  0  0  0  0  0  0  0  0  0
  -27.4310   13.8900  -19.0980 C   0  0  0  0  0  0  0  0  0  0  0  0
  -27.0900   14.0690  -20.4330 C   0  0  0  0  0  0  0  0  0  0  0  0
  -27.8650   13.4900  -21.4280 C   0  0  0  0  0  0  0  0  0  0  0  0
  -28.9740   12.7390  -21.0900 C   0  0  0  0  0  0  0  0  0  0  0  0
  -25.9680   14.8300  -20.7710 N   0  0  0  0  0  0  0  0  0  0  0  0
  -26.0560   15.8010  -20.9100 H   0  0  0  0  0  0  0  0  0  0  0  0
  -25.0900   14.3950  -20.8710 H   0  0  0  0  0  0  0  0  0  0  0  0
  -31.8870   12.6560  -18.7960 N   0  0  0  0  0  0  0  0  0  0  0  0
  -32.8930   13.1730  -19.7260 C   0  0  0  0  0  0  0  0  0  0  0  0
  -32.2540   14.2200  -20.6390 C   0  0  0  0  0  0  0  0  0  0  0  0
  -30.7160   15.9300  -19.9600 C   0  0  0  0  0  0  0  0  0  0  0  0
  -32.0550   15.4320  -19.9090 O   0  0  0  0  0  0  0  0  0  0  0  0
  -31.9070   13.0700  -17.3910 C   0  0  0  0  0  0  0  0  0  0  0  0
  -33.0460   12.3530  -16.6630 C   0  0  0  0  0  0  0  0  0  0  0  0
  -33.8570   13.3150  -15.9860 O   0  0  0  0  0  0  0  0  0  0  0  0
  -34.6100   12.7750  -14.8970 C   0  0  0  0  0  0  0  0  0  0  0  0
  1 13  1  0  0  0  0
  1  2  2  0  0  0  0
  3  1  2  0  0  0  0
  4  1  1  0  0  0  0
  4  5  2  0  0  0  0
  6  5  1  0  0  0  0
  7  6  2  0  0  0  0
  8  9  2  0  0  0  0
  8  7  1  0  0  0  0
  9  4  1  0  0  0  0
 10  7  1  0  0  0  0
 11 10  1  0  0  0  0
 12 10  1  0  0  0  0
 13 18  1  0  0  0  0
 14 13  1  0  0  0  0
 15 17  1  0  0  0  0
 15 14  1  0  0  0  0
 16 17  1  0  0  0  0
 18 19  1  0  0  0  0
 19 20  1  0  0  0  0
 20 21  1  0  0  0  0
M  END
>  <MODEL>
1

>  <REMARK>
 VINA RESULT:      -5.9      0.000      0.000
  Name = ZINC11804938
                            x       y       z     vdW  Elec       q    Type
                         _______ _______ _______ _____ _____    ______ ____

>  <TORSDO>
F 9

>  <vina_score>
-5.9

$$$$
ZINC01731877
 OpenBabel01091701583D

 22 22  0  0  0  0  0  0  0  0999 V2000
  -32.4210   11.5780  -21.4150 N   0  0  0  0  0  0  0  0  0  0  0  0
  -32.8890   10.7330  -21.6070 H   0  0  0  0  0  0  0  0  0  0  0  0
  -33.0940   12.6170  -20.8300 C   0  0  0  0  0  0  0  0  0  0  0  0
  -32.8420   13.8250  -21.2850 N   0  0  0  0  0  0  0  0  0  0  0  0
  -33.3010   14.6040  -20.8960 H   0  0  0  0  0  0  0  0  0  0  0  0
  -32.1930   13.9510  -22.0150 H   0  0  0  0  0  0  0  0  0  0  0  0
  -34.0730   12.3500  -19.7160 C   0  0  0  0  0  0  0  0  0  0  0  0
  -33.2660   11.3690  -18.4220 S   0  0  0  0  0  0  0  0  0  0  0  0
  -32.1880   12.7480  -17.3540 S   0  0  0  0  0  0  0  0  0  0  0  0
  -31.0330   12.0050  -16.6970 O   0  0  0  0  0  0  0  0  0  0  0  0
  -33.0320   13.1970  -16.3020 O   0  0  0  0  0  0  0  0  0  0  0  0
  -31.6130   13.6360  -18.3010 O   0  0  0  0  0  0  0  0  0  0  0  0
  -31.0040   11.7230  -21.7560 C   0  0  0  0  0  0  0  0  0  0  0  0
  -30.1520   11.5120  -20.5020 C   0  0  0  0  0  0  0  0  0  0  0  0
  -28.5610   13.0010  -21.7320 C   0  0  0  0  0  0  0  0  0  0  0  0
  -27.4790   13.8600  -21.7630 C   0  0  0  0  0  0  0  0  0  0  0  0
  -26.8060   14.1690  -20.5900 C   0  0  0  0  0  0  0  0  0  0  0  0
  -27.2210   13.6130  -19.3890 C   0  0  0  0  0  0  0  0  0  0  0  0
  -28.3020   12.7540  -19.3630 C   0  0  0  0  0  0  0  0  0  0  0  0
  -28.9720   12.4490  -20.5330 C   0  0  0  0  0  0  0  0  0  0  0  0
  -25.7410   15.0130  -20.6180 O   0  0  0  0  0  0  0  0  0  0  0  0
  -24.9520   14.7570  -21.0530 H   0  0  0  0  0  0  0  0  0  0  0  0
  1  3  1  0  0  0  0
  2  1  1  0  0  0  0
  3  7  1  0  0  0  0
  4  5  1  0  0  0  0
  4  3  2  0  0  0  0
  6  4  1  0  0  0  0
  7  8  1  0  0  0  0
  8  9  1  0  0  0  0
  9 10  2  0  0  0  0
  9 11  1  0  0  0  0
 12  9  2  0  0  0  0
 13  1  1  0  0  0  0
 13 14  1  0  0  0  0
 15 20  1  0  0  0  0
 16 15  2  0  0  0  0
 16 17  1  0  0  0  0
 17 18  2  0  0  0  0
 18 19  1  0  0  0  0
 20 14  1  0  0  0  0
 20 19  2  0  0  0  0
 21 17  1  0  0  0  0
 22 21  1  0  0  0  0
M  END
>  <MODEL>
1

>  <REMARK>
 VINA RESULT:      -5.9      0.000      0.000
  Name = ZINC01731877
                            x       y       z     vdW  Elec       q    Type
                         _______ _______ _______ _____ _____    ______ ____

>  <TORSDO>
F 8

>  <vina_score>
-5.9

$$$$
ZINC12503222
 OpenBabel01091701593D

 29 29  0  0  0  0  0  0  0  0999 V2000
  -32.1580   11.9760  -19.0060 C   0  0  0  0  0  0  0  0  0  0  0  0
  -32.3710   11.0690  -21.3150 C   0  0  0  0  0  0  0  0  0  0  0  0
  -31.5800   11.5820  -20.3410 C   0  0  0  0  0  0  0  0  0  0  0  0
  -30.2930   11.7330  -20.5910 N   0  0  0  0  0  0  0  0  0  0  0  0
  -29.7780   11.3850  -21.7550 C   0  0  0  0  0  0  0  0  0  0  0  0
  -31.1710   10.8040  -22.6120 S   0  0  0  0  0  0  0  0  0  0  0  0
  -28.4600   11.4690  -22.1850 N   0  0  0  0  0  0  0  0  0  0  0  0
  -28.0520   10.7180  -22.6740 H   0  0  0  0  0  0  0  0  0  0  0  0
  -27.7230   12.6040  -21.9270 C   0  0  0  0  0  0  0  0  0  0  0  0
  -26.6520   12.5310  -21.1880 N   0  0  0  0  0  0  0  0  0  0  0  0
  -26.1250   13.3420  -21.0040 H   0  0  0  0  0  0  0  0  0  0  0  0
  -26.3700   11.6650  -20.8140 H   0  0  0  0  0  0  0  0  0  0  0  0
  -28.1170   13.8140  -22.4500 N   0  0  0  0  0  0  0  0  0  0  0  0
  -28.3790   13.8780  -23.3960 H   0  0  0  0  0  0  0  0  0  0  0  0
  -28.1350   14.6140  -21.8780 H   0  0  0  0  0  0  0  0  0  0  0  0
  -32.9650   13.5930  -19.1500 S   0  0  0  0  0  0  0  0  0  0  0  0
  -32.0770   14.4070  -20.5070 C   0  0  0  0  0  0  0  0  0  0  0  0
  -31.6520   15.8110  -20.0700 C   0  0  0  0  0  0  0  0  0  0  0  0
  -30.2310   15.7740  -19.5700 C   0  0  0  0  0  0  0  0  0  0  0  0
  -29.7220   14.6200  -19.0350 N   0  0  0  0  0  0  0  0  0  0  0  0
  -28.1610   14.5810  -18.4860 S   0  0  0  0  0  0  0  0  0  0  0  0
  -27.8400   13.2140  -18.2700 O   0  0  0  0  0  0  0  0  0  0  0  0
  -28.0680   15.5570  -17.4580 O   0  0  0  0  0  0  0  0  0  0  0  0
  -27.1930   15.1040  -19.7230 N   0  0  0  0  0  0  0  0  0  0  0  0
  -26.6690   14.3150  -20.1010 H   0  0  0  0  0  0  0  0  0  0  0  0
  -27.7700   15.5120  -20.4580 H   0  0  0  0  0  0  0  0  0  0  0  0
  -29.4920   16.8330  -19.6470 N   0  0  0  0  0  0  0  0  0  0  0  0
  -29.7600   17.6550  -19.1770 H   0  0  0  0  0  0  0  0  0  0  0  0
  -28.6610   16.8160  -20.1760 H   0  0  0  0  0  0  0  0  0  0  0  0
  2  3  2  0  0  0  0
  3  1  1  0  0  0  0
  4  3  1  0  0  0  0
  5  4  2  0  0  0  0
  6  5  1  0  0  0  0
  6  2  1  0  0  0  0
  7  9  1  0  0  0  0
  7  5  1  0  0  0  0
  8  7  1  0  0  0  0
  9 10  1  0  0  0  0
 10 11  1  0  0  0  0
 10 12  1  0  0  0  0
 13  9  2  0  0  0  0
 13 15  1  0  0  0  0
 14 13  1  0  0  0  0
 16  1  1  0  0  0  0
 17 18  1  0  0  0  0
 17 16  1  0  0  0  0
 18 19  1  0  0  0  0
 19 20  2  0  0  0  0
 20 21  1  0  0  0  0
 21 22  2  0  0  0  0
 21 23  2  0  0  0  0
 24 21  1  0  0  0  0
 25 24  1  0  0  0  0
 26 24  1  0  0  0  0
 27 19  1  0  0  0  0
 27 28  1  0  0  0  0
 29 27  1  0  0  0  0
M  END
>  <MODEL>
1

>  <REMARK>
 VINA RESULT:      -5.9      0.000      0.000
  Name = ZINC12503222
                            x       y       z     vdW  Elec       q    Type
                         _______ _______ _______ _____ _____    ______ ____

>  <TORSDO>
F 11

>  <vina_score>
-5.9

$$$$
ZINC20423296
 OpenBabel01091701583D

 21 21  0  0  1  0  0  0  0  0999 V2000
  -29.6630   13.4100  -19.9310 C   0  0  1  0  0  0  0  0  0  0  0  0
  -33.1970   13.0940  -18.6290 C   0  0  0  0  0  0  0  0  0  0  0  0
  -33.8600   12.5970  -19.7420 C   0  0  0  0  0  0  0  0  0  0  0  0
  -33.1650   12.3640  -20.9120 C   0  0  0  0  0  0  0  0  0  0  0  0
  -31.8050   12.6280  -20.9760 C   0  0  0  0  0  0  0  0  0  0  0  0
  -31.1420   13.1250  -19.8630 C   0  0  0  0  0  0  0  0  0  0  0  0
  -31.8370   13.3530  -18.6900 C   0  0  0  0  0  0  0  0  0  0  0  0
  -33.4200   12.6510  -16.3030 C   0  0  0  0  0  0  0  0  0  0  0  0
  -33.8820   13.3230  -17.4760 O   0  0  0  0  0  0  0  0  0  0  0  0
  -31.1210   12.3990  -22.1280 O   0  0  0  0  0  0  0  0  0  0  0  0
  -30.9820   11.0380  -22.5400 C   0  0  0  0  0  0  0  0  0  0  0  0
  -29.4360   14.6210  -20.7300 N   0  0  0  0  0  0  0  0  0  0  0  0
  -29.8310   15.4280  -20.2440 H   0  0  0  0  0  0  0  0  0  0  0  0
  -28.4340   14.7600  -20.8610 H   0  0  0  0  0  0  0  0  0  0  0  0
  -29.8860   14.5190  -21.6400 H   0  0  0  0  0  0  0  0  0  0  0  0
  -29.1190   13.6210  -18.5170 C   0  0  0  0  0  0  0  0  0  0  0  0
  -27.6960   14.1770  -18.5960 C   0  0  0  0  0  0  0  0  0  0  0  0
  -26.7120   13.0300  -18.8330 C   0  0  0  0  0  0  0  0  0  0  0  0
  -26.0710   13.1910  -20.1880 C   0  0  0  0  0  0  0  0  0  0  0  0
  -25.2140   12.2620  -20.6390 O   0  0  0  0  0  0  0  0  0  0  0  0
  -26.3280   14.1570  -20.8670 O   0  0  0  0  0  0  0  0  0  0  0  0
  1 12  1  6  0  0  0
  1  6  1  0  0  0  0
  1 16  1  0  0  0  0
  2  9  1  0  0  0  0
  3  2  2  0  0  0  0
  4  3  1  0  0  0  0
  5  4  2  0  0  0  0
  5  6  1  0  0  0  0
  6  7  2  0  0  0  0
  7  2  1  0  0  0  0
  9  8  1  0  0  0  0
 10  5  1  0  0  0  0
 11 10  1  0  0  0  0
 12 13  1  0  0  0  0
 14 12  1  0  0  0  0
 15 12  1  0  0  0  0
 17 16  1  0  0  0  0
 18 17  1  0  0  0  0
 19 18  1  0  0  0  0
 20 19  1  0  0  0  0
 21 19  2  0  0  0  0
M  END
>  <MODEL>
1

>  <REMARK>
 VINA RESULT:      -5.9      0.000      0.000
  Name = ZINC20423296
                            x       y       z     vdW  Elec       q    Type
                         _______ _______ _______ _____ _____    ______ ____

>  <TORSDO>
F 8

>  <vina_score>
-5.9

$$$$
ZINC05799862
 OpenBabel01091701593D

 25 26  0  0  0  0  0  0  0  0999 V2000
  -31.0320   13.1230  -19.3640 C   0  0  0  0  0  0  0  0  0  0  0  0
  -29.7430   13.0510  -18.6700 C   0  0  0  0  0  0  0  0  0  0  0  0
  -28.5530   13.2940  -19.4130 C   0  0  0  0  0  0  0  0  0  0  0  0
  -28.6330   13.5710  -20.7230 C   0  0  0  0  0  0  0  0  0  0  0  0
  -27.4110   13.8150  -21.5760 C   0  0  0  0  0  0  0  0  0  0  0  0
  -26.2020   14.1490  -20.7080 C   0  0  0  0  0  0  0  0  0  0  0  0
  -26.0750   13.0700  -19.6250 C   0  0  0  0  0  0  0  0  0  0  0  0
  -29.8450   13.6370  -21.3550 N   0  0  0  0  0  0  0  0  0  0  0  0
  -29.8610   13.8490  -22.3160 H   0  0  0  0  0  0  0  0  0  0  0  0
  -27.2490   13.2250  -18.6620 C   0  0  0  0  0  0  0  0  0  0  0  0
  -29.6920   12.7870  -17.4790 O   0  0  0  0  0  0  0  0  0  0  0  0
  -31.0200   13.4250  -20.7230 C   0  0  0  0  0  0  0  0  0  0  0  0
  -32.5000   11.7130  -18.0190 N   0  0  0  0  0  0  0  0  0  0  0  0
  -31.8060   11.0150  -18.0390 H   0  0  0  0  0  0  0  0  0  0  0  0
  -32.2920   12.8870  -18.6490 C   0  0  0  0  0  0  0  0  0  0  0  0
  -33.1500   13.7490  -18.6260 O   0  0  0  0  0  0  0  0  0  0  0  0
  -33.7570   11.4760  -17.3070 C   0  0  0  0  0  0  0  0  0  0  0  0
  -33.5360   11.6610  -15.8050 C   0  0  0  0  0  0  0  0  0  0  0  0
  -34.5390   10.8030  -15.0310 C   0  0  0  0  0  0  0  0  0  0  0  0
  -35.0300   12.9660  -14.0600 C   0  0  0  0  0  0  0  0  0  0  0  0
  -34.9250   11.5160  -13.7960 N   0  0  0  0  0  0  0  0  0  0  0  0
  -34.2100   11.3600  -13.0850 H   0  0  0  0  0  0  0  0  0  0  0  0
  -36.2170   10.9990  -13.2970 C   0  0  0  0  0  0  0  0  0  0  0  0
  -32.1780   13.5070  -21.4080 O   0  0  0  0  0  0  0  0  0  0  0  0
  -32.7040   12.7420  -21.5330 H   0  0  0  0  0  0  0  0  0  0  0  0
  1  2  1  0  0  0  0
  1 15  1  0  0  0  0
  2 11  2  0  0  0  0
  3  2  1  0  0  0  0
  3 10  1  0  0  0  0
  4  3  2  0  0  0  0
  5  4  1  0  0  0  0
  5  6  1  0  0  0  0
  6  7  1  0  0  0  0
  7 10  1  0  0  0  0
  8  4  1  0  0  0  0
  8 12  1  0  0  0  0
  9  8  1  0  0  0  0
 12  1  2  0  0  0  0
 13 17  1  0  0  0  0
 14 13  1  0  0  0  0
 15 16  2  0  0  0  0
 15 13  1  0  0  0  0
 17 18  1  0  0  0  0
 18 19  1  0  0  0  0
 19 21  1  0  0  0  0
 20 21  1  0  0  0  0
 21 23  1  0  0  0  0
 21 22  1  0  0  0  0
 24 12  1  0  0  0  0
 25 24  1  0  0  0  0
M  END
>  <MODEL>
1

>  <REMARK>
 VINA RESULT:      -5.9      0.000      0.000
  Name = ZINC05799862
                            x       y       z     vdW  Elec       q    Type
                         _______ _______ _______ _____ _____    ______ ____

>  <TORSDO>
F 6

>  <vina_score>
-5.9

$$$$
ZINC20934722
 OpenBabel01091702013D

 28 29  0  0  0  0  0  0  0  0999 V2000
  -32.9190   13.5610  -19.5680 C   0  0  0  0  0  0  0  0  0  0  0  0
  -32.4760   12.9660  -20.7380 C   0  0  0  0  0  0  0  0  0  0  0  0
  -32.5380   11.5920  -20.8820 C   0  0  0  0  0  0  0  0  0  0  0  0
  -33.0410   10.8090  -19.8600 C   0  0  0  0  0  0  0  0  0  0  0  0
  -33.4840   11.3960  -18.6890 C   0  0  0  0  0  0  0  0  0  0  0  0
  -33.4200   12.7720  -18.5370 C   0  0  0  0  0  0  0  0  0  0  0  0
  -32.8600   14.9120  -19.4250 O   0  0  0  0  0  0  0  0  0  0  0  0
  -30.9230   16.2590  -19.9540 C   0  0  0  0  0  0  0  0  0  0  0  0
  -32.2270   15.6480  -20.4740 C   0  0  0  0  0  0  0  0  0  0  0  0
  -32.0570   10.9470  -22.1560 C   0  0  0  0  0  0  0  0  0  0  0  0
  -30.8310   11.6180  -22.6120 N   0  0  0  0  0  0  0  0  0  0  0  0
  -30.7090   11.4290  -23.6060 H   0  0  0  0  0  0  0  0  0  0  0  0
  -30.9180   12.6210  -22.4470 H   0  0  0  0  0  0  0  0  0  0  0  0
  -29.6550   11.1130  -21.8900 C   0  0  0  0  0  0  0  0  0  0  0  0
  -29.2290   12.1230  -20.8550 C   0  0  0  0  0  0  0  0  0  0  0  0
  -28.5860   13.2840  -21.2480 C   0  0  0  0  0  0  0  0  0  0  0  0
  -28.1980   14.2130  -20.3070 C   0  0  0  0  0  0  0  0  0  0  0  0
  -28.4460   13.9760  -18.9530 C   0  0  0  0  0  0  0  0  0  0  0  0
  -29.0900   12.8020  -18.5630 C   0  0  0  0  0  0  0  0  0  0  0  0
  -29.4780   11.8820  -19.5160 C   0  0  0  0  0  0  0  0  0  0  0  0
  -28.0280   14.9660  -17.9380 C   0  0  0  0  0  0  0  0  0  0  0  0
  -28.6020   14.9660  -16.7200 O   0  0  0  0  0  0  0  0  0  0  0  0
  -27.1660   15.7810  -18.2040 O   0  0  0  0  0  0  0  0  0  0  0  0
  -33.8510   13.3500  -17.3840 O   0  0  0  0  0  0  0  0  0  0  0  0
  -33.2310   12.9200  -16.1710 C   0  0  0  0  0  0  0  0  0  0  0  0
  -34.2960   12.3550  -15.2270 C   0  0  0  0  0  0  0  0  0  0  0  0
  -34.6500   13.3450  -14.2600 O   0  0  0  0  0  0  0  0  0  0  0  0
  -35.3560   13.9060  -14.6150 H   0  0  0  0  0  0  0  0  0  0  0  0
  1  7  1  0  0  0  0
  1  6  2  0  0  0  0
  2  1  1  0  0  0  0
  3  2  2  0  0  0  0
  3  4  1  0  0  0  0
  4  5  2  0  0  0  0
  5  6  1  0  0  0  0
  6 24  1  0  0  0  0
  9  8  1  0  0  0  0
  9  7  1  0  0  0  0
 10  3  1  0  0  0  0
 11 13  1  0  0  0  0
 11 10  1  0  0  0  0
 11 14  1  0  0  0  0
 12 11  1  0  0  0  0
 14 15  1  0  0  0  0
 15 20  1  0  0  0  0
 16 15  2  0  0  0  0
 16 17  1  0  0  0  0
 17 18  2  0  0  0  0
 18 19  1  0  0  0  0
 18 21  1  0  0  0  0
 20 19  2  0  0  0  0
 21 22  1  0  0  0  0
 23 21  2  0  0  0  0
 24 25  1  0  0  0  0
 25 26  1  0  0  0  0
 26 27  1  0  0  0  0
 28 27  1  0  0  0  0
M  END
>  <MODEL>
1

>  <REMARK>
 VINA RESULT:      -5.9      0.000      0.000
  Name = ZINC20934722
                            x       y       z     vdW  Elec       q    Type
                         _______ _______ _______ _____ _____    ______ ____

>  <TORSDO>
F 11

>  <vina_score>
-5.9

$$$$
ZINC04727049
 OpenBabel01091702003D

 18 17  0  0  0  0  0  0  0  0999 V2000
  -31.5510   14.1500  -19.7760 N   0  0  0  0  0  0  0  0  0  0  0  0
  -30.7790   13.5670  -19.5910 H   0  0  0  0  0  0  0  0  0  0  0  0
  -31.3680   15.4750  -19.9490 C   0  0  0  0  0  0  0  0  0  0  0  0
  -32.3180   16.1920  -20.1770 O   0  0  0  0  0  0  0  0  0  0  0  0
  -32.8970   13.5790  -19.8640 C   0  0  0  0  0  0  0  0  0  0  0  0
  -32.9570   12.6090  -21.0150 C   0  0  0  0  0  0  0  0  0  0  0  0
  -33.8750   11.8270  -21.1000 O   0  0  0  0  0  0  0  0  0  0  0  0
  -31.9950   12.6180  -21.9510 O   0  0  0  0  0  0  0  0  0  0  0  0
  -29.9300   11.4170  -21.4800 C   0  0  0  0  0  0  0  0  0  0  0  0
  -31.2890   11.3720  -22.1830 C   0  0  0  0  0  0  0  0  0  0  0  0
  -29.9830   16.0620  -19.8590 C   0  0  0  0  0  0  0  0  0  0  0  0
  -29.0900   15.3490  -20.7750 N   0  0  0  0  0  0  0  0  0  0  0  0
  -29.2430   15.3930  -21.7460 H   0  0  0  0  0  0  0  0  0  0  0  0
  -28.0580   14.6310  -20.2870 C   0  0  0  0  0  0  0  0  0  0  0  0
  -27.8670   14.5760  -19.0850 O   0  0  0  0  0  0  0  0  0  0  0  0
  -27.2030   13.9490  -21.1650 C   0  0  0  0  0  0  0  0  0  0  0  0
  -26.2520   13.2760  -20.7120 N   0  0  0  0  0  0  0  0  0  0  0  0
  -25.3970   12.6710  -20.3060 N   0  0  0  0  0  0  0  0  0  0  0  0
  1  2  1  0  0  0  0
  3 11  1  0  0  0  0
  3  1  1  0  0  0  0
  4  3  2  0  0  0  0
  5  1  1  0  0  0  0
  6  5  1  0  0  0  0
  7  6  2  0  0  0  0
  8  6  1  0  0  0  0
 10  8  1  0  0  0  0
 10  9  1  0  0  0  0
 12 14  1  0  0  0  0
 12 11  1  0  0  0  0
 13 12  1  0  0  0  0
 14 15  2  0  0  0  0
 16 17  1  0  0  0  0
 16 14  1  0  0  0  0
 17 18  1  0  0  0  0
M  END
>  <MODEL>
1

>  <REMARK>
 VINA RESULT:      -5.9      0.000      0.000
  Name = ZINC04727049
                            x       y       z     vdW  Elec       q    Type
                         _______ _______ _______ _____ _____    ______ ____

>  <TORSDO>
F 7

>  <vina_score>
-5.9

$$$$
ZINC19483528
 OpenBabel01091701513D

 21 21  0  0  1  0  0  0  0  0999 V2000
  -28.8320   13.9640  -17.2580 C   0  0  0  0  0  0  0  0  0  0  0  0
  -32.6540   13.1460  -18.9920 C   0  0  0  0  0  0  0  0  0  0  0  0
  -32.1970   12.3880  -17.9250 C   0  0  0  0  0  0  0  0  0  0  0  0
  -30.9590   12.6520  -17.3700 C   0  0  0  0  0  0  0  0  0  0  0  0
  -30.1780   13.6770  -17.8700 C   0  0  0  0  0  0  0  0  0  0  0  0
  -30.6280   14.4360  -18.9350 C   0  0  0  0  0  0  0  0  0  0  0  0
  -31.8660   14.1740  -19.5000 C   0  0  0  0  0  0  0  0  0  0  0  0
  -33.9490   11.7820  -20.4480 C   0  0  0  0  0  0  0  0  0  0  0  0
  -33.8700   12.8840  -19.5420 O   0  0  0  0  0  0  0  0  0  0  0  0
  -32.3090   14.9190  -20.5460 O   0  0  0  0  0  0  0  0  0  0  0  0
  -32.2540   16.3400  -20.4000 C   0  0  0  0  0  0  0  0  0  0  0  0
  -27.7090   14.5990  -18.5340 S   0  0  0  0  0  0  0  0  0  0  0  0
  -26.9100   13.1120  -19.1950 C   0  0  0  0  0  0  0  0  0  0  0  0
  -26.5650   13.3310  -20.6690 C   0  0  2  0  0  0  0  0  0  0  0  0
  -26.1010   14.7100  -20.8640 N   0  0  0  0  0  0  0  0  0  0  0  0
  -26.5390   15.1020  -21.6980 H   0  0  0  0  0  0  0  0  0  0  0  0
  -26.3550   15.2730  -20.0520 H   0  0  0  0  0  0  0  0  0  0  0  0
  -25.0880   14.7150  -20.9780 H   0  0  0  0  0  0  0  0  0  0  0  0
  -27.7890   13.0890  -21.5140 C   0  0  0  0  0  0  0  0  0  0  0  0
  -28.7680   12.2880  -21.0630 O   0  0  0  0  0  0  0  0  0  0  0  0
  -27.8900   13.6170  -22.5960 O   0  0  0  0  0  0  0  0  0  0  0  0
  2  3  1  0  0  0  0
  3  4  2  0  0  0  0
  5  4  1  0  0  0  0
  5  1  1  0  0  0  0
  6  5  2  0  0  0  0
  7  2  2  0  0  0  0
  7  6  1  0  0  0  0
  8  9  1  0  0  0  0
  9  2  1  0  0  0  0
 10 11  1  0  0  0  0
 10  7  1  0  0  0  0
 12  1  1  0  0  0  0
 13 12  1  0  0  0  0
 14 19  1  6  0  0  0
 14 13  1  0  0  0  0
 15 14  1  0  0  0  0
 15 17  1  0  0  0  0
 16 15  1  0  0  0  0
 18 15  1  0  0  0  0
 19 20  1  0  0  0  0
 21 19  2  0  0  0  0
M  END
>  <MODEL>
1

>  <REMARK>
 VINA RESULT:      -5.8      0.000      0.000
  Name = ZINC19483528
                            x       y       z     vdW  Elec       q    Type
                         _______ _______ _______ _____ _____    ______ ____

>  <TORSDO>
F 8

>  <vina_score>
-5.8

$$$$
ZINC02267972
 OpenBabel01091702023D

 23 23  0  0  0  0  0  0  0  0999 V2000
  -31.9470   10.8680  -18.0690 N   0  0  0  0  0  0  0  0  0  0  0  0
  -31.8700    9.8860  -18.0580 H   0  0  0  0  0  0  0  0  0  0  0  0
  -30.8460   11.6300  -18.2230 C   0  0  0  0  0  0  0  0  0  0  0  0
  -30.9530   12.9730  -18.2380 N   0  0  0  0  0  0  0  0  0  0  0  0
  -31.8240   13.4000  -18.0700 H   0  0  0  0  0  0  0  0  0  0  0  0
  -29.7560   11.1050  -18.3470 O   0  0  0  0  0  0  0  0  0  0  0  0
  -29.8250   13.7610  -18.4940 C   0  0  0  0  0  0  0  0  0  0  0  0
  -29.4020   13.9660  -19.8000 C   0  0  0  0  0  0  0  0  0  0  0  0
  -28.2910   14.7480  -20.0500 C   0  0  0  0  0  0  0  0  0  0  0  0
  -27.5950   15.3180  -19.0000 C   0  0  0  0  0  0  0  0  0  0  0  0
  -28.0090   15.1100  -17.6970 C   0  0  0  0  0  0  0  0  0  0  0  0
  -29.1220   14.3330  -17.4420 C   0  0  0  0  0  0  0  0  0  0  0  0
  -33.1710   11.4580  -17.9300 N   0  0  0  0  0  0  0  0  0  0  0  0
  -34.1100   10.9710  -18.9500 C   0  0  0  0  0  0  0  0  0  0  0  0
  -34.0150   11.8410  -20.1750 C   0  0  0  0  0  0  0  0  0  0  0  0
  -34.4940   11.4670  -21.2210 O   0  0  0  0  0  0  0  0  0  0  0  0
  -32.6330   13.4460  -21.2700 C   0  0  0  0  0  0  0  0  0  0  0  0
  -33.3990   13.0320  -20.1080 O   0  0  0  0  0  0  0  0  0  0  0  0
  -33.7070   11.2450  -16.5780 C   0  0  0  0  0  0  0  0  0  0  0  0
  -33.8570   12.5740  -15.8830 C   0  0  0  0  0  0  0  0  0  0  0  0
  -33.0160   13.4300  -16.0270 O   0  0  0  0  0  0  0  0  0  0  0  0
  -34.9240   12.8060  -15.1030 O   0  0  0  0  0  0  0  0  0  0  0  0
  -35.2070   11.8300  -14.0660 C   0  0  0  0  0  0  0  0  0  0  0  0
  1  2  1  0  0  0  0
  1 13  1  0  0  0  0
  3  1  1  0  0  0  0
  4  3  1  0  0  0  0
  4  5  1  0  0  0  0
  6  3  2  0  0  0  0
  7  4  1  0  0  0  0
  7 12  2  0  0  0  0
  8  7  1  0  0  0  0
  9  8  2  0  0  0  0
  9 10  1  0  0  0  0
 10 11  2  0  0  0  0
 11 12  1  0  0  0  0
 13 19  1  0  0  0  0
 14 13  1  0  0  0  0
 15 18  1  0  0  0  0
 15 14  1  0  0  0  0
 16 15  2  0  0  0  0
 17 18  1  0  0  0  0
 19 20  1  0  0  0  0
 20 22  1  0  0  0  0
 21 20  2  0  0  0  0
 22 23  1  0  0  0  0
M  END
>  <MODEL>
1

>  <REMARK>
 VINA RESULT:      -5.8      0.000      0.000
  Name = ZINC02267972
                            x       y       z     vdW  Elec       q    Type
                         _______ _______ _______ _____ _____    ______ ____

>  <TORSDO>
F 8

>  <vina_score>
-5.8

$$$$
ZINC05396591
 OpenBabel01091702033D

 21 21  0  0  0  0  0  0  0  0999 V2000
  -31.6270   13.7400  -19.0650 N   0  0  0  0  0  0  0  0  0  0  0  0
  -32.3750   14.3230  -18.7980 H   0  0  0  0  0  0  0  0  0  0  0  0
  -31.4700   12.5350  -18.4820 C   0  0  0  0  0  0  0  0  0  0  0  0
  -30.5470   11.8160  -18.8130 O   0  0  0  0  0  0  0  0  0  0  0  0
  -32.4150   12.0920  -17.4440 C   0  0  0  0  0  0  0  0  0  0  0  0
  -33.0810   12.8920  -16.5320 C   0  0  0  0  0  0  0  0  0  0  0  0
  -33.8540   12.0160  -15.7670 C   0  0  0  0  0  0  0  0  0  0  0  0
  -33.6440   10.8030  -16.2120 N   0  0  0  0  0  0  0  0  0  0  0  0
  -32.8160   10.8110  -17.1930 N   0  0  0  0  0  0  0  0  0  0  0  0
  -32.5150   10.0150  -17.6880 H   0  0  0  0  0  0  0  0  0  0  0  0
  -34.7510   12.3930  -14.6520 N   0  0  0  0  0  0  0  0  0  0  0  0
  -35.6860   11.6710  -14.3520 O   0  0  0  0  0  0  0  0  0  0  0  0
  -34.5560   13.4240  -14.0340 O   0  0  0  0  0  0  0  0  0  0  0  0
  -30.6880   14.1820  -20.0990 C   0  0  0  0  0  0  0  0  0  0  0  0
  -30.0530   15.5090  -19.6790 C   0  0  0  0  0  0  0  0  0  0  0  0
  -28.5900   15.3270  -19.5780 N   0  0  0  0  0  0  0  0  0  0  0  0
  -28.1260   16.1160  -20.0270 H   0  0  0  0  0  0  0  0  0  0  0  0
  -27.7520   13.8610  -17.7730 C   0  0  0  0  0  0  0  0  0  0  0  0
  -28.1850   15.2770  -18.1580 C   0  0  0  0  0  0  0  0  0  0  0  0
  -28.1890   14.0800  -20.2630 C   0  0  0  0  0  0  0  0  0  0  0  0
  -27.4010   14.4430  -21.5230 C   0  0  0  0  0  0  0  0  0  0  0  0
  1  2  1  0  0  0  0
  1  3  1  0  0  0  0
  3  5  1  0  0  0  0
  4  3  2  0  0  0  0
  5  9  1  0  0  0  0
  5  6  2  0  0  0  0
  6  7  1  0  0  0  0
  7 11  1  0  0  0  0
  8  7  2  0  0  0  0
  9  8  1  0  0  0  0
 10  9  1  0  0  0  0
 11 12  2  0  0  0  0
 11 13  2  0  0  0  0
 14 15  1  0  0  0  0
 14  1  1  0  0  0  0
 15 16  1  0  0  0  0
 16 19  1  0  0  0  0
 17 16  1  0  0  0  0
 19 18  1  0  0  0  0
 20 16  1  0  0  0  0
 21 20  1  0  0  0  0
M  END
>  <MODEL>
1

>  <REMARK>
 VINA RESULT:      -5.8      0.000      0.000
  Name = ZINC05396591
                            x       y       z     vdW  Elec       q    Type
                         _______ _______ _______ _____ _____    ______ ____

>  <TORSDO>
F 7

>  <vina_score>
-5.8

$$$$
ZINC08642818
 OpenBabel01091702093D

 31 33  0  0  1  0  0  0  0  0999 V2000
  -28.4450   14.1860  -16.5440 C   0  0  0  0  0  0  0  0  0  0  0  0
  -29.4330   14.3850  -17.6080 N   0  0  0  0  0  0  0  0  0  0  0  0
  -30.5270   13.5400  -17.7020 C   0  0  0  0  0  0  0  0  0  0  0  0
  -31.4540   13.7540  -18.7170 C   0  0  0  0  0  0  0  0  0  0  0  0
  -32.4300   12.7790  -18.5660 N   0  0  0  0  0  0  0  0  0  0  0  0
  -32.0740   12.0300  -17.4890 C   0  0  0  0  0  0  0  0  0  0  0  0
  -31.2490   14.8100  -19.6220 C   0  0  0  0  0  0  0  0  0  0  0  0
  -30.1650   15.6000  -19.4790 N   0  0  0  0  0  0  0  0  0  0  0  0
  -29.9500   16.7060  -20.4160 C   0  0  0  0  0  0  0  0  0  0  0  0
  -32.0460   15.0140  -20.5210 O   0  0  0  0  0  0  0  0  0  0  0  0
  -30.9430   12.4890  -16.9930 N   0  0  0  0  0  0  0  0  0  0  0  0
  -29.2780   15.3880  -18.4920 C   0  0  0  0  0  0  0  0  0  0  0  0
  -28.3110   16.1200  -18.3940 O   0  0  0  0  0  0  0  0  0  0  0  0
  -32.7790   10.9550  -16.9980 N   0  0  0  0  0  0  0  0  0  0  0  0
  -32.5940   10.0490  -17.3380 H   0  0  0  0  0  0  0  0  0  0  0  0
  -33.8030   11.1570  -15.9710 C   0  0  0  0  0  0  0  0  0  0  0  0
  -34.0180   12.6560  -15.7530 C   0  0  0  0  0  0  0  0  0  0  0  0
  -35.0660   12.8530  -14.8020 O   0  0  0  0  0  0  0  0  0  0  0  0
  -34.7690   12.5560  -13.9280 H   0  0  0  0  0  0  0  0  0  0  0  0
  -33.6160   12.5930  -19.4050 C   0  0  0  0  0  0  0  0  0  0  0  0
  -33.4280   11.3570  -20.2890 C   0  0  1  0  0  0  0  0  0  0  0  0
  -34.6420   11.0870  -20.9940 O   0  0  0  0  0  0  0  0  0  0  0  0
  -35.2870   10.6930  -20.3860 H   0  0  0  0  0  0  0  0  0  0  0  0
  -32.3020   11.6130  -21.2920 C   0  0  0  0  0  0  0  0  0  0  0  0
  -31.1240   10.9230  -20.8730 O   0  0  0  0  0  0  0  0  0  0  0  0
  -29.9350   11.5420  -21.0930 C   0  0  0  0  0  0  0  0  0  0  0  0
  -29.1750   11.9890  -20.0210 C   0  0  0  0  0  0  0  0  0  0  0  0
  -27.9630   12.6130  -20.2480 C   0  0  0  0  0  0  0  0  0  0  0  0
  -27.5130   12.8020  -21.5410 C   0  0  0  0  0  0  0  0  0  0  0  0
  -28.2710   12.3630  -22.6110 C   0  0  0  0  0  0  0  0  0  0  0  0
  -29.4800   11.7340  -22.3890 C   0  0  0  0  0  0  0  0  0  0  0  0
  2  1  1  0  0  0  0
  3  2  1  0  0  0  0
  3 11  1  0  0  0  0
  4  5  1  0  0  0  0
  4  3  2  0  0  0  0
  5  6  1  0  0  0  0
  6 14  1  0  0  0  0
  6 11  2  0  0  0  0
  7  8  1  0  0  0  0
  7  4  1  0  0  0  0
  8 12  1  0  0  0  0
  9  8  1  0  0  0  0
 10  7  2  0  0  0  0
 12 13  2  0  0  0  0
 12  2  1  0  0  0  0
 14 16  1  0  0  0  0
 15 14  1  0  0  0  0
 16 17  1  0  0  0  0
 17 18  1  0  0  0  0
 18 19  1  0  0  0  0
 20  5  1  0  0  0  0
 21 24  1  6  0  0  0
 21 20  1  0  0  0  0
 22 23  1  0  0  0  0
 22 21  1  0  0  0  0
 24 25  1  0  0  0  0
 26 25  1  0  0  0  0
 26 27  2  0  0  0  0
 28 27  1  0  0  0  0
 29 28  2  0  0  0  0
 30 31  2  0  0  0  0
 30 29  1  0  0  0  0
 31 26  1  0  0  0  0
M  END
>  <MODEL>
1

>  <REMARK>
 VINA RESULT:      -5.8      0.000      0.000
  Name = ZINC08642818
                            x       y       z     vdW  Elec       q    Type
                         _______ _______ _______ _____ _____    ______ ____

>  <TORSDO>
F 10

>  <vina_score>
-5.8

$$$$
ZINC20261639
 OpenBabel01091702073D

 20 20  0  0  0  0  0  0  0  0999 V2000
  -31.2360   13.4760  -20.0640 N   0  0  0  0  0  0  0  0  0  0  0  0
  -32.5860   14.0420  -20.0280 C   0  0  0  0  0  0  0  0  0  0  0  0
  -29.9380   13.3850  -18.0230 C   0  0  0  0  0  0  0  0  0  0  0  0
  -28.9470   13.9090  -17.2100 C   0  0  0  0  0  0  0  0  0  0  0  0
  -28.2530   15.0380  -17.6040 C   0  0  0  0  0  0  0  0  0  0  0  0
  -28.5470   15.6490  -18.8090 C   0  0  0  0  0  0  0  0  0  0  0  0
  -29.5320   15.1300  -19.6290 C   0  0  0  0  0  0  0  0  0  0  0  0
  -30.2340   14.0000  -19.2370 C   0  0  0  0  0  0  0  0  0  0  0  0
  -30.6190   12.2730  -17.6370 O   0  0  0  0  0  0  0  0  0  0  0  0
  -32.8600   11.4880  -17.1890 C   0  0  0  0  0  0  0  0  0  0  0  0
  -31.7550   12.4680  -16.7920 C   0  0  0  0  0  0  0  0  0  0  0  0
  -30.8930   12.2170  -21.0830 S   0  0  0  0  0  0  0  0  0  0  0  0
  -31.5500   11.0960  -20.5100 O   0  0  0  0  0  0  0  0  0  0  0  0
  -31.2540   12.6870  -22.3750 O   0  0  0  0  0  0  0  0  0  0  0  0
  -29.0940   12.0080  -20.9760 C   0  0  0  0  0  0  0  0  0  0  0  0
  -28.4800   12.1470  -22.3710 C   0  0  0  0  0  0  0  0  0  0  0  0
  -28.0400   13.5320  -22.5760 N   0  0  0  0  0  0  0  0  0  0  0  0
  -27.1320   13.5360  -23.0410 H   0  0  0  0  0  0  0  0  0  0  0  0
  -28.7200   14.0230  -23.1580 H   0  0  0  0  0  0  0  0  0  0  0  0
  -27.9620   14.0020  -21.6750 H   0  0  0  0  0  0  0  0  0  0  0  0
  1  2  1  0  0  0  0
  1  8  1  0  0  0  0
  3  9  1  0  0  0  0
  3  4  2  0  0  0  0
  5  4  1  0  0  0  0
  6  5  2  0  0  0  0
  7  8  2  0  0  0  0
  7  6  1  0  0  0  0
  8  3  1  0  0  0  0
  9 11  1  0  0  0  0
 10 11  1  0  0  0  0
 12 15  1  0  0  0  0
 12 13  2  0  0  0  0
 12  1  1  0  0  0  0
 14 12  2  0  0  0  0
 16 15  1  0  0  0  0
 17 16  1  0  0  0  0
 17 20  1  0  0  0  0
 18 17  1  0  0  0  0
 19 17  1  0  0  0  0
M  END
>  <MODEL>
1

>  <REMARK>
 VINA RESULT:      -5.8      0.000      0.000
  Name = ZINC20261639
                            x       y       z     vdW  Elec       q    Type
                         _______ _______ _______ _____ _____    ______ ____

>  <TORSDO>
F 7

>  <vina_score>
-5.8

$$$$
ZINC20676572
 OpenBabel01091702123D

 28 30  0  0  0  0  0  0  0  0999 V2000
  -33.4290   11.8460  -17.0680 C   0  0  0  0  0  0  0  0  0  0  0  0
  -31.9270   11.9370  -16.9910 C   0  0  0  0  0  0  0  0  0  0  0  0
  -31.3020   13.0720  -17.3640 N   0  0  0  0  0  0  0  0  0  0  0  0
  -31.8260   13.8400  -17.6860 H   0  0  0  0  0  0  0  0  0  0  0  0
  -31.2800   10.9900  -16.5960 O   0  0  0  0  0  0  0  0  0  0  0  0
  -29.8410   13.1620  -17.2900 C   0  0  0  0  0  0  0  0  0  0  0  0
  -29.3890   14.5360  -17.7860 C   0  0  0  0  0  0  0  0  0  0  0  0
  -27.8700   14.6550  -17.6460 C   0  0  0  0  0  0  0  0  0  0  0  0
  -27.2360   14.3890  -18.9440 N   0  0  0  0  0  0  0  0  0  0  0  0
  -26.5090   15.0910  -19.0840 H   0  0  0  0  0  0  0  0  0  0  0  0
  -28.2070   14.5130  -20.0400 C   0  0  0  0  0  0  0  0  0  0  0  0
  -27.4920   14.2870  -21.3750 C   0  0  0  0  0  0  0  0  0  0  0  0
  -26.8530   13.0070  -21.3580 O   0  0  0  0  0  0  0  0  0  0  0  0
  -25.9010   12.8520  -20.3030 C   0  0  0  0  0  0  0  0  0  0  0  0
  -26.6000   13.0630  -18.9570 C   0  0  0  0  0  0  0  0  0  0  0  0
  -33.8220   10.8030  -18.1170 C   0  0  0  0  0  0  0  0  0  0  0  0
  -34.2020   11.4790  -19.3590 N   0  0  0  0  0  0  0  0  0  0  0  0
  -35.1430   11.7190  -19.5220 H   0  0  0  0  0  0  0  0  0  0  0  0
  -32.0870   15.1460  -20.1980 C   0  0  0  0  0  0  0  0  0  0  0  0
  -31.3540   14.6320  -21.2250 N   0  0  0  0  0  0  0  0  0  0  0  0
  -30.6890   15.1170  -21.7650 H   0  0  0  0  0  0  0  0  0  0  0  0
  -31.7130   13.3160  -21.3690 C   0  0  0  0  0  0  0  0  0  0  0  0
  -32.6920   13.0730  -20.3910 C   0  0  0  0  0  0  0  0  0  0  0  0
  -33.2390   11.7810  -20.3070 C   0  0  0  0  0  0  0  0  0  0  0  0
  -32.8140   10.8560  -21.1610 N   0  0  0  0  0  0  0  0  0  0  0  0
  -31.8950   11.1330  -22.0680 C   0  0  0  0  0  0  0  0  0  0  0  0
  -31.3510   12.3270  -22.1800 N   0  0  0  0  0  0  0  0  0  0  0  0
  -32.8690   14.2280  -19.7070 N   0  0  0  0  0  0  0  0  0  0  0  0
  1  2  1  0  0  0  0
  2  5  2  0  0  0  0
  3  6  1  0  0  0  0
  3  2  1  0  0  0  0
  4  3  1  0  0  0  0
  7  8  1  0  0  0  0
  7  6  1  0  0  0  0
  9  8  1  0  0  0  0
 10  9  1  0  0  0  0
 11  9  1  0  0  0  0
 12 13  1  0  0  0  0
 12 11  1  0  0  0  0
 13 14  1  0  0  0  0
 14 15  1  0  0  0  0
 15  9  1  0  0  0  0
 16  1  1  0  0  0  0
 17 16  1  0  0  0  0
 18 17  1  0  0  0  0
 19 28  2  0  0  0  0
 20 19  1  0  0  0  0
 21 20  1  0  0  0  0
 22 20  1  0  0  0  0
 22 23  2  0  0  0  0
 23 24  1  0  0  0  0
 23 28  1  0  0  0  0
 24 17  1  0  0  0  0
 25 24  2  0  0  0  0
 26 25  1  0  0  0  0
 27 26  2  0  0  0  0
 27 22  1  0  0  0  0
M  END
>  <MODEL>
1

>  <REMARK>
 VINA RESULT:      -5.8      0.000      0.000
  Name = ZINC20676572
                            x       y       z     vdW  Elec       q    Type
                         _______ _______ _______ _____ _____    ______ ____

>  <TORSDO>
F 8

>  <vina_score>
-5.8

$$$$
ZINC09287414
 OpenBabel01091702123D

 27 28  0  0  1  0  0  0  0  0999 V2000
  -28.0410   14.9700  -18.3970 C   0  0  1  0  0  0  0  0  0  0  0  0
  -27.0930   13.8550  -18.8210 C   0  0  0  0  0  0  0  0  0  0  0  0
  -27.2780   13.4350  -20.0460 N   0  0  0  0  0  0  0  0  0  0  0  0
  -28.1980   13.9140  -20.8660 C   0  0  0  0  0  0  0  0  0  0  0  0
  -26.2400   13.3970  -18.0870 O   0  0  0  0  0  0  0  0  0  0  0  0
  -29.0070   15.1480  -19.9500 S   0  0  0  0  0  0  0  0  0  0  0  0
  -28.4520   13.5280  -22.1550 N   0  0  0  0  0  0  0  0  0  0  0  0
  -28.5050   14.2040  -22.8690 H   0  0  0  0  0  0  0  0  0  0  0  0
  -28.6330   12.1920  -22.4520 C   0  0  0  0  0  0  0  0  0  0  0  0
  -27.5440   11.4570  -22.6120 N   0  0  0  0  0  0  0  0  0  0  0  0
  -27.6230   10.5000  -22.8250 H   0  0  0  0  0  0  0  0  0  0  0  0
  -26.6540   11.8690  -22.5170 H   0  0  0  0  0  0  0  0  0  0  0  0
  -29.9040   11.6820  -22.5710 N   0  0  0  0  0  0  0  0  0  0  0  0
  -30.6830   12.2490  -22.3690 H   0  0  0  0  0  0  0  0  0  0  0  0
  -30.0360   10.7500  -22.8590 H   0  0  0  0  0  0  0  0  0  0  0  0
  -28.9280   14.5350  -17.2280 C   0  0  0  0  0  0  0  0  0  0  0  0
  -31.1580   13.9220  -18.1080 N   0  0  0  0  0  0  0  0  0  0  0  0
  -31.4240   14.8640  -18.0040 H   0  0  0  0  0  0  0  0  0  0  0  0
  -29.9330   13.5210  -17.7120 C   0  0  0  0  0  0  0  0  0  0  0  0
  -29.6410   12.3450  -17.7460 O   0  0  0  0  0  0  0  0  0  0  0  0
  -33.0400   12.6650  -16.3840 C   0  0  0  0  0  0  0  0  0  0  0  0
  -32.9850   12.3630  -17.8590 C   0  0  0  0  0  0  0  0  0  0  0  0
  -33.8690   11.4570  -18.4140 C   0  0  0  0  0  0  0  0  0  0  0  0
  -33.8160   11.1760  -19.7670 C   0  0  0  0  0  0  0  0  0  0  0  0
  -32.8810   11.8040  -20.5700 C   0  0  0  0  0  0  0  0  0  0  0  0
  -31.9990   12.7150  -20.0230 C   0  0  0  0  0  0  0  0  0  0  0  0
  -32.0510   12.9990  -18.6650 C   0  0  0  0  0  0  0  0  0  0  0  0
  1 16  1  1  0  0  0
  2  1  1  0  0  0  0
  2  5  2  0  0  0  0
  3  2  1  0  0  0  0
  4  3  2  0  0  0  0
  4  6  1  0  0  0  0
  6  1  1  0  0  0  0
  7  4  1  0  0  0  0
  8  7  1  0  0  0  0
  9  7  1  0  0  0  0
 10 12  1  0  0  0  0
 10  9  2  0  0  0  0
 11 10  1  0  0  0  0
 13  9  1  0  0  0  0
 13 14  1  0  0  0  0
 15 13  1  0  0  0  0
 17 18  1  0  0  0  0
 17 19  1  0  0  0  0
 19 16  1  0  0  0  0
 20 19  2  0  0  0  0
 22 21  1  0  0  0  0
 23 22  1  0  0  0  0
 24 23  2  0  0  0  0
 25 26  2  0  0  0  0
 25 24  1  0  0  0  0
 26 27  1  0  0  0  0
 27 17  1  0  0  0  0
 27 22  2  0  0  0  0
M  END
>  <MODEL>
1

>  <REMARK>
 VINA RESULT:      -5.8      0.000      0.000
  Name = ZINC09287414
                            x       y       z     vdW  Elec       q    Type
                         _______ _______ _______ _____ _____    ______ ____

>  <TORSDO>
F 6

>  <vina_score>
-5.8

$$$$
ZINC32067408
 OpenBabel01091702143D

 30 32  0  0  1  0  0  0  0  0999 V2000
  -31.0980   13.2700  -17.3440 C   0  0  0  0  0  0  0  0  0  0  0  0
  -32.3310   12.6810  -17.3830 C   0  0  0  0  0  0  0  0  0  0  0  0
  -32.5510   12.2880  -18.7790 C   0  0  0  0  0  0  0  0  0  0  0  0
  -33.6360   11.6310  -19.5100 C   0  0  0  0  0  0  0  0  0  0  0  0
  -33.4530   11.4340  -20.8670 N   0  0  0  0  0  0  0  0  0  0  0  0
  -32.3010   11.8480  -21.4560 C   0  0  0  0  0  0  0  0  0  0  0  0
  -31.3410   12.4320  -20.8030 N   0  0  0  0  0  0  0  0  0  0  0  0
  -34.7330   11.2450  -18.9040 N   0  0  0  0  0  0  0  0  0  0  0  0
  -34.8410   11.3960  -17.9360 H   0  0  0  0  0  0  0  0  0  0  0  0
  -31.4100   12.6740  -19.4810 C   0  0  1  0  0  0  0  0  0  0  0  0
  -30.5550   13.2580  -18.5870 N   0  0  0  0  0  0  0  0  0  0  0  0
  -33.2530   12.4860  -16.2530 C   0  0  0  0  0  0  0  0  0  0  0  0
  -33.7320   11.2560  -15.9800 N   0  0  0  0  0  0  0  0  0  0  0  0
  -34.3520   11.1260  -15.2260 H   0  0  0  0  0  0  0  0  0  0  0  0
  -33.4610   10.4880  -16.5320 H   0  0  0  0  0  0  0  0  0  0  0  0
  -33.5880   13.4350  -15.5710 O   0  0  0  0  0  0  0  0  0  0  0  0
  -29.2370   13.8020  -18.9260 C   0  0  1  0  0  0  0  0  0  0  0  0
  -28.1890   12.6650  -19.0330 C   0  0  1  0  0  0  0  0  0  0  0  0
  -27.1270   13.2910  -19.9690 C   0  0  1  0  0  0  0  0  0  0  0  0
  -27.8850   14.4150  -20.7030 C   0  0  2  0  0  0  0  0  0  0  0  0
  -29.2500   14.3800  -20.2490 O   0  0  0  0  0  0  0  0  0  0  0  0
  -27.6280   12.3670  -17.7530 O   0  0  0  0  0  0  0  0  0  0  0  0
  -27.2750   11.4640  -17.7570 H   0  0  0  0  0  0  0  0  0  0  0  0
  -26.0450   13.8320  -19.2080 O   0  0  0  0  0  0  0  0  0  0  0  0
  -26.3720   14.1180  -18.3410 H   0  0  0  0  0  0  0  0  0  0  0  0
  -27.8300   14.1780  -22.2140 C   0  0  0  0  0  0  0  0  0  0  0  0
  -28.6000   13.0200  -22.5430 O   0  0  0  0  0  0  0  0  0  0  0  0
  -28.4650   12.7960  -23.4770 H   0  0  0  0  0  0  0  0  0  0  0  0
  -34.4610   10.8050  -21.6390 O   0  0  0  0  0  0  0  0  0  0  0  0
  -35.3650   10.9600  -21.4440 H   0  0  0  0  0  0  0  0  0  0  0  0
  2  1  2  0  0  0  0
  2 12  1  0  0  0  0
  3  2  1  0  0  0  0
  4  8  1  0  0  0  0
  4  3  2  0  0  0  0
  5  4  1  0  0  0  0
  6  5  1  0  0  0  0
  6  7  2  0  0  0  0
  8  9  1  0  0  0  0
 10  7  1  6  0  0  0
 10  3  1  0  0  0  0
 10 11  1  0  0  0  0
 11  1  1  0  0  0  0
 12 13  1  0  0  0  0
 12 16  2  0  0  0  0
 13 14  1  0  0  0  0
 15 13  1  0  0  0  0
 17 11  1  6  0  0  0
 18 17  1  0  0  0  0
 18 22  1  1  0  0  0
 19 24  1  1  0  0  0
 19 18  1  0  0  0  0
 20 26  1  6  0  0  0
 20 21  1  0  0  0  0
 20 19  1  0  0  0  0
 21 17  1  0  0  0  0
 23 22  1  0  0  0  0
 24 25  1  0  0  0  0
 27 26  1  0  0  0  0
 28 27  1  0  0  0  0
 29 30  1  0  0  0  0
 29  5  1  0  0  0  0
M  END
>  <MODEL>
1

>  <REMARK>
 VINA RESULT:      -5.8      0.000      0.000
  Name = ZINC32067408
                            x       y       z     vdW  Elec       q    Type
                         _______ _______ _______ _____ _____    ______ ____

>  <TORSDO>
F 7

>  <vina_score>
-5.8

$$$$
ZINC19282844
 OpenBabel01091702173D

 22 22  0  0  0  0  0  0  0  0999 V2000
  -33.1970   13.2160  -18.4480 C   0  0  0  0  0  0  0  0  0  0  0  0
  -33.8870   12.6640  -19.5180 C   0  0  0  0  0  0  0  0  0  0  0  0
  -33.2390   12.4390  -20.7180 C   0  0  0  0  0  0  0  0  0  0  0  0
  -31.9000   12.7630  -20.8560 C   0  0  0  0  0  0  0  0  0  0  0  0
  -31.2050   13.3180  -19.7840 C   0  0  0  0  0  0  0  0  0  0  0  0
  -31.8550   13.5380  -18.5790 C   0  0  0  0  0  0  0  0  0  0  0  0
  -33.8370   13.4350  -17.2680 O   0  0  0  0  0  0  0  0  0  0  0  0
  -34.5020   12.6370  -15.0860 C   0  0  0  0  0  0  0  0  0  0  0  0
  -33.3930   12.6790  -16.1400 C   0  0  0  0  0  0  0  0  0  0  0  0
  -31.2630   12.5400  -22.0380 O   0  0  0  0  0  0  0  0  0  0  0  0
  -31.1130   11.1780  -22.4470 C   0  0  0  0  0  0  0  0  0  0  0  0
  -29.6290   10.8070  -22.4490 C   0  0  0  0  0  0  0  0  0  0  0  0
  -29.8520   13.6450  -19.9210 N   0  0  0  0  0  0  0  0  0  0  0  0
  -28.6970   12.7340  -19.1580 S   0  0  0  0  0  0  0  0  0  0  0  0
  -29.3810   11.5630  -18.7340 O   0  0  0  0  0  0  0  0  0  0  0  0
  -27.6280   12.6500  -20.0910 O   0  0  0  0  0  0  0  0  0  0  0  0
  -28.1980   13.7230  -17.7220 C   0  0  0  0  0  0  0  0  0  0  0  0
  -28.0700   15.1920  -18.1330 C   0  0  0  0  0  0  0  0  0  0  0  0
  -27.1500   15.3020  -19.2720 N   0  0  0  0  0  0  0  0  0  0  0  0
  -27.6730   15.5650  -20.1080 H   0  0  0  0  0  0  0  0  0  0  0  0
  -26.4470   16.0130  -19.0740 H   0  0  0  0  0  0  0  0  0  0  0  0
  -26.6910   14.4040  -19.4270 H   0  0  0  0  0  0  0  0  0  0  0  0
  1  7  1  0  0  0  0
  2  1  2  0  0  0  0
  3  2  1  0  0  0  0
  4  3  2  0  0  0  0
  4  5  1  0  0  0  0
  5  6  2  0  0  0  0
  6  1  1  0  0  0  0
  7  9  1  0  0  0  0
  9  8  1  0  0  0  0
 10  4  1  0  0  0  0
 11 10  1  0  0  0  0
 12 11  1  0  0  0  0
 13  5  1  0  0  0  0
 13 14  1  0  0  0  0
 14 15  2  0  0  0  0
 14 17  1  0  0  0  0
 16 14  2  0  0  0  0
 18 17  1  0  0  0  0
 19 21  1  0  0  0  0
 19 18  1  0  0  0  0
 20 19  1  0  0  0  0
 22 19  1  0  0  0  0
M  END
>  <MODEL>
1

>  <REMARK>
 VINA RESULT:      -5.8      0.000      0.000
  Name = ZINC19282844
                            x       y       z     vdW  Elec       q    Type
                         _______ _______ _______ _____ _____    ______ ____

>  <TORSDO>
F 9

>  <vina_score>
-5.8

$$$$
ZINC05063166
 OpenBabel01091701543D

 24 25  0  0  0  0  0  0  0  0999 V2000
  -34.1090   10.8030  -19.4090 C   0  0  0  0  0  0  0  0  0  0  0  0
  -34.0120   11.5600  -20.7340 C   0  0  0  0  0  0  0  0  0  0  0  0
  -32.5470   11.9000  -21.0200 C   0  0  0  0  0  0  0  0  0  0  0  0
  -31.9900   12.7540  -19.8860 C   0  0  0  0  0  0  0  0  0  0  0  0
  -30.5510   13.1240  -20.1640 C   0  0  0  0  0  0  0  0  0  0  0  0
  -30.5320   14.4710  -20.2340 N   0  0  0  0  0  0  0  0  0  0  0  0
  -31.7490   14.9930  -20.0340 C   0  0  0  0  0  0  0  0  0  0  0  0
  -31.9840   16.1850  -20.0440 O   0  0  0  0  0  0  0  0  0  0  0  0
  -29.6110   12.3700  -20.2950 O   0  0  0  0  0  0  0  0  0  0  0  0
  -32.1030   12.0220  -18.5540 C   0  0  0  0  0  0  0  0  0  0  0  0
  -32.6850   14.0460  -19.8250 N   0  0  0  0  0  0  0  0  0  0  0  0
  -33.5700   11.6810  -18.2780 C   0  0  0  0  0  0  0  0  0  0  0  0
  -29.3280   15.2660  -20.4890 C   0  0  0  0  0  0  0  0  0  0  0  0
  -28.6620   15.6250  -19.1580 C   0  0  0  0  0  0  0  0  0  0  0  0
  -27.2900   15.0770  -19.1490 N   0  0  0  0  0  0  0  0  0  0  0  0
  -26.6410   15.8130  -18.8740 H   0  0  0  0  0  0  0  0  0  0  0  0
  -26.9290   14.5990  -20.5000 C   0  0  0  0  0  0  0  0  0  0  0  0
  -26.2830   13.2180  -20.3750 C   0  0  0  0  0  0  0  0  0  0  0  0
  -26.8380   12.3400  -21.3560 O   0  0  0  0  0  0  0  0  0  0  0  0
  -26.7670   12.7490  -22.2330 H   0  0  0  0  0  0  0  0  0  0  0  0
  -27.1960   13.9660  -18.1790 C   0  0  0  0  0  0  0  0  0  0  0  0
  -28.3790   14.0560  -17.2120 C   0  0  0  0  0  0  0  0  0  0  0  0
  -29.1210   12.8350  -17.2520 O   0  0  0  0  0  0  0  0  0  0  0  0
  -29.9610   12.9830  -17.7140 H   0  0  0  0  0  0  0  0  0  0  0  0
  1 12  1  0  0  0  0
  2  1  1  0  0  0  0
  3  2  1  0  0  0  0
  3  4  1  0  0  0  0
  4 11  1  0  0  0  0
  4 10  1  0  0  0  0
  5  4  1  0  0  0  0
  6  5  1  0  0  0  0
  6  7  1  0  0  0  0
  7 11  1  0  0  0  0
  8  7  2  0  0  0  0
  9  5  2  0  0  0  0
 10 12  1  0  0  0  0
 13  6  1  0  0  0  0
 13 14  1  0  0  0  0
 14 15  1  0  0  0  0
 15 16  1  0  0  0  0
 15 21  1  0  0  0  0
 17 18  1  0  0  0  0
 17 15  1  0  0  0  0
 19 18  1  0  0  0  0
 20 19  1  0  0  0  0
 21 22  1  0  0  0  0
 23 22  1  0  0  0  0
 24 23  1  0  0  0  0
M  END
>  <MODEL>
1

>  <REMARK>
 VINA RESULT:      -5.8      0.000      0.000
  Name = ZINC05063166
                            x       y       z     vdW  Elec       q    Type
                         _______ _______ _______ _____ _____    ______ ____

>  <TORSDO>
F 9

>  <vina_score>
-5.8

$$$$
ZINC22843212
 OpenBabel01091701563D

 30 31  0  0  1  0  0  0  0  0999 V2000
  -31.8140   11.4690  -21.0130 N   0  0  0  0  0  0  0  0  0  0  0  0
  -31.4340   10.9140  -20.2480 H   0  0  0  0  0  0  0  0  0  0  0  0
  -31.4520   12.8740  -20.7790 C   0  0  0  0  0  0  0  0  0  0  0  0
  -29.9280   12.9990  -20.7060 C   0  0  0  0  0  0  0  0  0  0  0  0
  -29.3380   12.5090  -21.9580 N   0  0  0  0  0  0  0  0  0  0  0  0
  -29.7180   13.0650  -22.7250 H   0  0  0  0  0  0  0  0  0  0  0  0
  -29.7010   11.1040  -22.1940 C   0  0  0  0  0  0  0  0  0  0  0  0
  -31.2240   10.9780  -22.2670 C   0  0  0  0  0  0  0  0  0  0  0  0
  -33.2730   11.2950  -21.0160 C   0  0  0  0  0  0  0  0  0  0  0  0
  -33.0850   11.6430  -18.5740 N   0  0  0  0  0  0  0  0  0  0  0  0
  -32.1710   11.2800  -18.6240 H   0  0  0  0  0  0  0  0  0  0  0  0
  -33.8340   11.7430  -19.6900 C   0  0  0  0  0  0  0  0  0  0  0  0
  -34.9580   12.1900  -19.6270 O   0  0  0  0  0  0  0  0  0  0  0  0
  -34.9480   11.7610  -13.9510 C   0  0  0  0  0  0  0  0  0  0  0  0
  -34.4200   12.1000  -15.3210 C   0  0  0  0  0  0  0  0  0  0  0  0
  -33.9980   11.2280  -16.2640 C   0  0  0  0  0  0  0  0  0  0  0  0
  -33.6040   12.0570  -17.3470 C   0  0  0  0  0  0  0  0  0  0  0  0
  -33.8280   13.2870  -16.9650 N   0  0  0  0  0  0  0  0  0  0  0  0
  -34.2780   13.3270  -15.8430 O   0  0  0  0  0  0  0  0  0  0  0  0
  -27.8790   12.6830  -21.9570 C   0  0  0  0  0  0  0  0  0  0  0  0
  -27.5460   14.1250  -21.6740 C   0  0  0  0  0  0  0  0  0  0  0  0
  -27.8070   14.9770  -22.4880 O   0  0  0  0  0  0  0  0  0  0  0  0
  -26.8870   14.5040  -20.3720 C   0  0  2  0  0  0  0  0  0  0  0  0
  -26.3450   13.2660  -19.7050 C   0  0  1  0  0  0  0  0  0  0  0  0
  -27.0590   12.6770  -18.5140 C   0  0  0  0  0  0  0  0  0  0  0  0
  -25.2810   12.7140  -20.1500 N   0  0  0  0  0  0  0  0  0  0  0  0
  -24.9260   11.9050  -19.7140 H   0  0  0  0  0  0  0  0  0  0  0  0
  -24.8150   13.0990  -20.9270 H   0  0  0  0  0  0  0  0  0  0  0  0
  -27.8760   15.1430  -19.4900 C   0  0  0  0  0  0  0  0  0  0  0  0
  -28.6390   15.6370  -18.8070 N   0  0  0  0  0  0  0  0  0  0  0  0
  1  3  1  0  0  0  0
  1  2  1  0  0  0  0
  3  4  1  0  0  0  0
  5 20  1  0  0  0  0
  5  4  1  0  0  0  0
  6  5  1  0  0  0  0
  7  5  1  0  0  0  0
  8  7  1  0  0  0  0
  8  1  1  0  0  0  0
  9  1  1  0  0  0  0
  9 12  1  0  0  0  0
 10 17  1  0  0  0  0
 11 10  1  0  0  0  0
 12 13  2  0  0  0  0
 12 10  1  0  0  0  0
 15 14  1  0  0  0  0
 16 15  2  0  0  0  0
 17 18  2  0  0  0  0
 17 16  1  0  0  0  0
 18 19  1  0  0  0  0
 19 15  1  0  0  0  0
 20 21  1  0  0  0  0
 22 21  2  0  0  0  0
 23 21  1  6  0  0  0
 23 24  1  0  0  0  0
 23 29  1  0  0  0  0
 24 26  1  6  0  0  0
 24 25  1  0  0  0  0
 26 27  1  0  0  0  0
 28 26  1  0  0  0  0
 29 30  3  0  0  0  0
M  END
>  <MODEL>
1

>  <REMARK>
 VINA RESULT:      -5.8      0.000      0.000
  Name = ZINC22843212
                            x       y       z     vdW  Elec       q    Type
                         _______ _______ _______ _____ _____    ______ ____

>  <TORSDO>
F 8

>  <vina_score>
-5.8

$$$$
ZINC02837242
 OpenBabel01091701553D

 21 21  0  0  0  0  0  0  0  0999 V2000
  -31.8590   12.8890  -19.9340 C   0  0  0  0  0  0  0  0  0  0  0  0
  -32.9170   12.9980  -20.9530 C   0  0  0  0  0  0  0  0  0  0  0  0
  -34.0340   12.2590  -20.7960 N   0  0  0  0  0  0  0  0  0  0  0  0
  -34.7510   12.3210  -21.4680 H   0  0  0  0  0  0  0  0  0  0  0  0
  -34.1910   11.4420  -19.7450 C   0  0  0  0  0  0  0  0  0  0  0  0
  -33.2740   11.2960  -18.7790 N   0  0  0  0  0  0  0  0  0  0  0  0
  -33.4580   10.6830  -18.0300 H   0  0  0  0  0  0  0  0  0  0  0  0
  -35.2220   10.8030  -19.6620 O   0  0  0  0  0  0  0  0  0  0  0  0
  -32.7870   13.7380  -21.9120 O   0  0  0  0  0  0  0  0  0  0  0  0
  -32.1050   11.9680  -18.8080 C   0  0  0  0  0  0  0  0  0  0  0  0
  -31.2790   11.8250  -17.9270 O   0  0  0  0  0  0  0  0  0  0  0  0
  -30.6960   14.9430  -19.7950 N   0  0  0  0  0  0  0  0  0  0  0  0
  -30.6870   13.6150  -20.0270 C   0  0  0  0  0  0  0  0  0  0  0  0
  -29.4540   15.7120  -19.8940 C   0  0  0  0  0  0  0  0  0  0  0  0
  -28.3290   14.8040  -20.3970 C   0  0  0  0  0  0  0  0  0  0  0  0
  -27.2870   14.7120  -19.3540 N   0  0  0  0  0  0  0  0  0  0  0  0
  -26.4920   15.2900  -19.6280 H   0  0  0  0  0  0  0  0  0  0  0  0
  -28.2860   14.0370  -17.1970 C   0  0  0  0  0  0  0  0  0  0  0  0
  -27.8160   15.2060  -18.0650 C   0  0  0  0  0  0  0  0  0  0  0  0
  -26.8350   13.3120  -19.2120 C   0  0  0  0  0  0  0  0  0  0  0  0
  -26.0020   12.9370  -20.4390 C   0  0  0  0  0  0  0  0  0  0  0  0
  1 10  1  0  0  0  0
  2  3  1  0  0  0  0
  2  1  1  0  0  0  0
  3  5  1  0  0  0  0
  4  3  1  0  0  0  0
  5  8  2  0  0  0  0
  5  6  1  0  0  0  0
  6  7  1  0  0  0  0
  9  2  2  0  0  0  0
 10  6  1  0  0  0  0
 10 11  2  0  0  0  0
 13  1  1  0  0  0  0
 13 12  2  0  0  0  0
 14 12  1  0  0  0  0
 15 14  1  0  0  0  0
 15 16  1  0  0  0  0
 16 20  1  0  0  0  0
 16 19  1  0  0  0  0
 17 16  1  0  0  0  0
 19 18  1  0  0  0  0
 21 20  1  0  0  0  0
M  END
>  <MODEL>
1

>  <REMARK>
 VINA RESULT:      -5.8      0.000      0.000
  Name = ZINC02837242
                            x       y       z     vdW  Elec       q    Type
                         _______ _______ _______ _____ _____    ______ ____

>  <TORSDO>
F 6

>  <vina_score>
-5.8

$$$$
ZINC19752184
 OpenBabel01091701573D

 24 25  0  0  1  0  0  0  0  0999 V2000
  -28.0180   13.0100  -20.7370 C   0  0  0  0  0  0  0  0  0  0  0  0
  -28.9260   12.7310  -21.6270 N   0  0  0  0  0  0  0  0  0  0  0  0
  -30.0450   12.2700  -21.0090 C   0  0  0  0  0  0  0  0  0  0  0  0
  -31.2920   11.8420  -21.4730 C   0  0  0  0  0  0  0  0  0  0  0  0
  -32.2510   11.4240  -20.5750 C   0  0  0  0  0  0  0  0  0  0  0  0
  -31.9830   11.4240  -19.2050 C   0  0  0  0  0  0  0  0  0  0  0  0
  -30.7540   11.8460  -18.7350 C   0  0  0  0  0  0  0  0  0  0  0  0
  -29.7810   12.2700  -19.6300 C   0  0  0  0  0  0  0  0  0  0  0  0
  -28.4880   12.7400  -19.4880 N   0  0  0  0  0  0  0  0  0  0  0  0
  -25.5900   12.6780  -20.3630 C   0  0  0  0  0  0  0  0  0  0  0  0
  -26.6450   13.5500  -21.0440 C   0  0  2  0  0  0  0  0  0  0  0  0
  -26.5380   14.9280  -20.5470 N   0  0  0  0  0  0  0  0  0  0  0  0
  -26.0630   15.5040  -21.2410 H   0  0  0  0  0  0  0  0  0  0  0  0
  -27.4720   15.3010  -20.3740 H   0  0  0  0  0  0  0  0  0  0  0  0
  -26.0040   14.9340  -19.6770 H   0  0  0  0  0  0  0  0  0  0  0  0
  -33.4650   11.0070  -21.0270 O   0  0  0  0  0  0  0  0  0  0  0  0
  -34.5870   11.8430  -20.7380 C   0  0  0  0  0  0  0  0  0  0  0  0
  -32.9380   11.0090  -18.3290 O   0  0  0  0  0  0  0  0  0  0  0  0
  -33.0800   11.7600  -17.1210 C   0  0  0  0  0  0  0  0  0  0  0  0
  -27.7620   12.9190  -18.2280 C   0  0  0  0  0  0  0  0  0  0  0  0
  -28.4900   13.9490  -17.3630 C   0  0  0  0  0  0  0  0  0  0  0  0
  -28.4010   15.3050  -18.0140 C   0  0  0  0  0  0  0  0  0  0  0  0
  -29.3320   15.6830  -18.9040 O   0  0  0  0  0  0  0  0  0  0  0  0
  -27.4900   16.0480  -17.7390 O   0  0  0  0  0  0  0  0  0  0  0  0
  1  9  1  0  0  0  0
  2  3  1  0  0  0  0
  2  1  2  0  0  0  0
  3  8  1  0  0  0  0
  4  3  2  0  0  0  0
  4  5  1  0  0  0  0
  5  6  2  0  0  0  0
  6  7  1  0  0  0  0
  6 18  1  0  0  0  0
  8  9  1  0  0  0  0
  8  7  2  0  0  0  0
  9 20  1  0  0  0  0
 11  1  1  1  0  0  0
 11 12  1  0  0  0  0
 11 10  1  0  0  0  0
 12 14  1  0  0  0  0
 12 15  1  0  0  0  0
 13 12  1  0  0  0  0
 16 17  1  0  0  0  0
 16  5  1  0  0  0  0
 18 19  1  0  0  0  0
 20 21  1  0  0  0  0
 22 24  1  0  0  0  0
 22 21  1  0  0  0  0
 23 22  2  0  0  0  0
M  END
>  <MODEL>
1

>  <REMARK>
 VINA RESULT:      -5.8      0.000      0.000
  Name = ZINC19752184
                            x       y       z     vdW  Elec       q    Type
                         _______ _______ _______ _____ _____    ______ ____

>  <TORSDO>
F 7

>  <vina_score>
-5.8

$$$$
ZINC28185584
 OpenBabel01091701583D

 23 23  0  0  0  0  0  0  0  0999 V2000
  -33.6660   10.9890  -16.1180 C   0  0  0  0  0  0  0  0  0  0  0  0
  -33.2410   11.4460  -17.4890 C   0  0  0  0  0  0  0  0  0  0  0  0
  -32.3680   12.5190  -17.6130 C   0  0  0  0  0  0  0  0  0  0  0  0
  -31.9810   12.9310  -18.8980 C   0  0  0  0  0  0  0  0  0  0  0  0
  -32.4980   12.2360  -19.9980 C   0  0  0  0  0  0  0  0  0  0  0  0
  -33.3600   11.1810  -19.7780 C   0  0  0  0  0  0  0  0  0  0  0  0
  -33.7000   10.8230  -18.5540 N   0  0  0  0  0  0  0  0  0  0  0  0
  -31.8980   13.1570  -16.5120 O   0  0  0  0  0  0  0  0  0  0  0  0
  -31.9820   12.7600  -15.6680 H   0  0  0  0  0  0  0  0  0  0  0  0
  -31.0610   14.0700  -19.0850 C   0  0  0  0  0  0  0  0  0  0  0  0
  -30.0320   14.2030  -18.3130 N   0  0  0  0  0  0  0  0  0  0  0  0
  -29.1190   15.3340  -18.4990 C   0  0  0  0  0  0  0  0  0  0  0  0
  -27.7560   14.9940  -17.8910 C   0  0  0  0  0  0  0  0  0  0  0  0
  -27.4900   13.4950  -18.0420 C   0  0  0  0  0  0  0  0  0  0  0  0
  -26.2280   13.2920  -18.7580 N   0  0  0  0  0  0  0  0  0  0  0  0
  -25.8380   12.4110  -18.4220 H   0  0  0  0  0  0  0  0  0  0  0  0
  -26.2170   13.2180  -20.4130 S   0  0  0  0  0  0  0  0  0  0  0  0
  -27.9230   12.8000  -20.8710 C   0  0  0  0  0  0  0  0  0  0  0  0
  -25.3490   12.1380  -20.7220 O   0  0  0  0  0  0  0  0  0  0  0  0
  -25.9090   14.5400  -20.8320 O   0  0  0  0  0  0  0  0  0  0  0  0
  -32.1200   12.6330  -21.4010 C   0  0  0  0  0  0  0  0  0  0  0  0
  -33.0500   13.6020  -21.8890 O   0  0  0  0  0  0  0  0  0  0  0  0
  -32.8110   14.4780  -21.5500 H   0  0  0  0  0  0  0  0  0  0  0  0
  2  1  1  0  0  0  0
  3  2  1  0  0  0  0
  3  8  1  0  0  0  0
  4  3  2  0  0  0  0
  5  6  2  0  0  0  0
  5  4  1  0  0  0  0
  6  7  1  0  0  0  0
  7  2  2  0  0  0  0
  8  9  1  0  0  0  0
 10  4  1  0  0  0  0
 10 11  2  0  0  0  0
 12 11  1  0  0  0  0
 12 13  1  0  0  0  0
 14 13  1  0  0  0  0
 15 16  1  0  0  0  0
 15 14  1  0  0  0  0
 17 15  1  0  0  0  0
 18 17  1  0  0  0  0
 19 17  2  0  0  0  0
 20 17  2  0  0  0  0
 21  5  1  0  0  0  0
 22 23  1  0  0  0  0
 22 21  1  0  0  0  0
M  END
>  <MODEL>
1

>  <REMARK>
 VINA RESULT:      -5.8      0.000      0.000
  Name = ZINC28185584
                            x       y       z     vdW  Elec       q    Type
                         _______ _______ _______ _____ _____    ______ ____

>  <TORSDO>
F 9

>  <vina_score>
-5.8

$$$$
ZINC14418737
 OpenBabel01091702033D

 25 25  0  0  1  0  0  0  0  0999 V2000
  -31.7210   12.1440  -19.0720 C   0  0  2  0  0  0  0  0  0  0  0  0
  -31.5950   12.3420  -17.5590 C   0  0  2  0  0  0  0  0  0  0  0  0
  -30.2330   12.6230  -17.2290 O   0  0  0  0  0  0  0  0  0  0  0  0
  -29.7190   13.8120  -17.8320 C   0  0  2  0  0  0  0  0  0  0  0  0
  -29.7700   13.6720  -19.3550 C   0  0  2  0  0  0  0  0  0  0  0  0
  -31.2140   13.4000  -19.7880 C   0  0  2  0  0  0  0  0  0  0  0  0
  -28.3670   14.0110  -17.4160 O   0  0  0  0  0  0  0  0  0  0  0  0
  -27.8200   15.2740  -17.8010 C   0  0  0  0  0  0  0  0  0  0  0  0
  -33.1130   11.9160  -19.4170 O   0  0  0  0  0  0  0  0  0  0  0  0
  -32.2390   10.8030  -21.4410 C   0  0  0  0  0  0  0  0  0  0  0  0
  -33.3630   11.3920  -20.6280 C   0  0  0  0  0  0  0  0  0  0  0  0
  -34.4900   11.3930  -21.0650 O   0  0  0  0  0  0  0  0  0  0  0  0
  -32.0430   11.0700  -16.8380 C   0  0  0  0  0  0  0  0  0  0  0  0
  -33.4830   11.1660  -16.5430 N   0  0  0  0  0  0  0  0  0  0  0  0
  -33.7970   12.1260  -16.6860 H   0  0  0  0  0  0  0  0  0  0  0  0
  -33.9990   10.5430  -17.1640 H   0  0  0  0  0  0  0  0  0  0  0  0
  -33.6500   10.8940  -15.5740 H   0  0  0  0  0  0  0  0  0  0  0  0
  -28.9230   12.5680  -19.7700 O   0  0  0  0  0  0  0  0  0  0  0  0
  -28.2080   12.7380  -20.8930 C   0  0  0  0  0  0  0  0  0  0  0  0
  -26.8240   13.3320  -20.8230 C   0  0  0  0  0  0  0  0  0  0  0  0
  -28.6730   12.4160  -21.9600 O   0  0  0  0  0  0  0  0  0  0  0  0
  -32.0500   14.5320  -19.4320 O   0  0  0  0  0  0  0  0  0  0  0  0
  -32.3840   15.3770  -20.4200 C   0  0  0  0  0  0  0  0  0  0  0  0
  -32.1930   16.8610  -20.2400 C   0  0  0  0  0  0  0  0  0  0  0  0
  -32.8370   14.9480  -21.4550 O   0  0  0  0  0  0  0  0  0  0  0  0
  1  9  1  1  0  0  0
  1  2  1  0  0  0  0
  2  3  1  0  0  0  0
  2 13  1  1  0  0  0
  4  7  1  1  0  0  0
  4  3  1  0  0  0  0
  5 18  1  1  0  0  0
  5  4  1  0  0  0  0
  6 22  1  1  0  0  0
  6  5  1  0  0  0  0
  6  1  1  0  0  0  0
  8  7  1  0  0  0  0
 10 11  1  0  0  0  0
 11  9  1  0  0  0  0
 12 11  2  0  0  0  0
 13 14  1  0  0  0  0
 14 17  1  0  0  0  0
 15 14  1  0  0  0  0
 16 14  1  0  0  0  0
 19 20  1  0  0  0  0
 19 18  1  0  0  0  0
 21 19  2  0  0  0  0
 23 24  1  0  0  0  0
 23 22  1  0  0  0  0
 25 23  2  0  0  0  0
M  END
>  <MODEL>
1

>  <REMARK>
 VINA RESULT:      -5.7      0.000      0.000
  Name = ZINC14418737
                            x       y       z     vdW  Elec       q    Type
                         _______ _______ _______ _____ _____    ______ ____

>  <TORSDO>
F 9

>  <vina_score>
-5.7

$$$$
ZINC07873396
 OpenBabel01091702043D

 25 25  0  0  0  0  0  0  0  0999 V2000
  -32.3080   11.7370  -21.2180 C   0  0  0  0  0  0  0  0  0  0  0  0
  -31.0140   11.3720  -21.1210 N   0  0  0  0  0  0  0  0  0  0  0  0
  -30.7760   10.4960  -20.7410 H   0  0  0  0  0  0  0  0  0  0  0  0
  -30.0450   12.2080  -21.5460 C   0  0  0  0  0  0  0  0  0  0  0  0
  -28.7510   11.8430  -21.4500 N   0  0  0  0  0  0  0  0  0  0  0  0
  -28.5140   10.9670  -21.0700 H   0  0  0  0  0  0  0  0  0  0  0  0
  -30.3390   13.2900  -22.0160 O   0  0  0  0  0  0  0  0  0  0  0  0
  -32.6000   12.8170  -21.6860 O   0  0  0  0  0  0  0  0  0  0  0  0
  -33.3910   10.8030  -20.7430 C   0  0  0  0  0  0  0  0  0  0  0  0
  -33.5310   10.9080  -18.9380 S   0  0  0  0  0  0  0  0  0  0  0  0
  -30.0270   13.3230  -17.6810 C   0  0  0  0  0  0  0  0  0  0  0  0
  -29.8130   12.0330  -17.8470 N   0  0  0  0  0  0  0  0  0  0  0  0
  -30.8460   11.2110  -18.2360 N   0  0  0  0  0  0  0  0  0  0  0  0
  -32.0460   11.7180  -18.4410 C   0  0  0  0  0  0  0  0  0  0  0  0
  -31.7630   13.4470  -18.0890 S   0  0  0  0  0  0  0  0  0  0  0  0
  -29.1400   14.3220  -17.2990 N   0  0  0  0  0  0  0  0  0  0  0  0
  -28.7340   14.3030  -16.4020 H   0  0  0  0  0  0  0  0  0  0  0  0
  -28.8090   15.4040  -18.2300 C   0  0  0  0  0  0  0  0  0  0  0  0
  -30.1410   16.5550  -20.0030 C   0  0  0  0  0  0  0  0  0  0  0  0
  -29.5840   15.2090  -19.5340 C   0  0  0  0  0  0  0  0  0  0  0  0
  -27.6980   12.7510  -21.9120 C   0  0  0  0  0  0  0  0  0  0  0  0
  -26.7670   13.0880  -20.7460 C   0  0  0  0  0  0  0  0  0  0  0  0
  -26.5130   14.4640  -20.7350 F   0  0  0  0  0  0  0  0  0  0  0  0
  -25.5630   12.3930  -20.8940 F   0  0  0  0  0  0  0  0  0  0  0  0
  -27.3760   12.7170  -19.5420 F   0  0  0  0  0  0  0  0  0  0  0  0
  1  2  1  0  0  0  0
  1  9  1  0  0  0  0
  2  3  1  0  0  0  0
  4  5  1  0  0  0  0
  4  2  1  0  0  0  0
  5  6  1  0  0  0  0
  7  4  2  0  0  0  0
  8  1  2  0  0  0  0
  9 10  1  0  0  0  0
 10 14  1  0  0  0  0
 11 16  1  0  0  0  0
 12 11  2  0  0  0  0
 13 12  1  0  0  0  0
 14 13  2  0  0  0  0
 14 15  1  0  0  0  0
 15 11  1  0  0  0  0
 16 17  1  0  0  0  0
 18 16  1  0  0  0  0
 19 20  1  0  0  0  0
 20 18  1  0  0  0  0
 21  5  1  0  0  0  0
 21 22  1  0  0  0  0
 22 23  1  0  0  0  0
 22 25  1  0  0  0  0
 24 22  1  0  0  0  0
M  END
>  <MODEL>
1

>  <REMARK>
 VINA RESULT:      -5.7      0.000      0.000
  Name = ZINC07873396
                            x       y       z     vdW  Elec       q    Type
                         _______ _______ _______ _____ _____    ______ ____

>  <TORSDO>
F 8

>  <vina_score>
-5.7

$$$$
ZINC31820560
 OpenBabel01091702043D

 20 20  0  0  1  0  0  0  0  0999 V2000
  -29.6100   14.1090  -20.1110 C   0  0  0  0  0  0  0  0  0  0  0  0
  -29.3550   13.4510  -21.2330 N   0  0  0  0  0  0  0  0  0  0  0  0
  -30.0500   13.3840  -21.9260 H   0  0  0  0  0  0  0  0  0  0  0  0
  -28.1690   12.8790  -21.4340 C   0  0  1  0  0  0  0  0  0  0  0  0
  -27.1970   12.9690  -20.4420 C   0  0  0  0  0  0  0  0  0  0  0  0
  -27.5040   13.6630  -19.2740 C   0  0  0  0  0  0  0  0  0  0  0  0
  -28.7090   14.2140  -19.1460 N   0  0  0  0  0  0  0  0  0  0  0  0
  -27.9090   12.1980  -22.6120 N   0  0  0  0  0  0  0  0  0  0  0  0
  -27.5710   12.6860  -23.3980 H   0  0  0  0  0  0  0  0  0  0  0  0
  -28.0630   11.2270  -22.6650 H   0  0  0  0  0  0  0  0  0  0  0  0
  -26.5670   13.7790  -18.2600 N   0  0  0  0  0  0  0  0  0  0  0  0
  -26.3890   14.6570  -17.8520 H   0  0  0  0  0  0  0  0  0  0  0  0
  -26.0790   12.9830  -17.9460 H   0  0  0  0  0  0  0  0  0  0  0  0
  -31.1910   14.8550  -19.8950 S   0  0  0  0  0  0  0  0  0  0  0  0
  -32.1520   13.4110  -19.3760 C   0  0  0  0  0  0  0  0  0  0  0  0
  -32.9910   12.9250  -20.5300 C   0  0  0  0  0  0  0  0  0  0  0  0
  -34.0520   12.3750  -20.3180 O   0  0  0  0  0  0  0  0  0  0  0  0
  -32.5620   13.0970  -21.7950 N   0  0  0  0  0  0  0  0  0  0  0  0
  -31.7660   10.8510  -21.9240 C   0  0  0  0  0  0  0  0  0  0  0  0
  -31.6080   12.2070  -22.3460 O   0  0  0  0  0  0  0  0  0  0  0  0
  1 14  1  0  0  0  0
  1  7  2  0  0  0  0
  2  1  1  0  0  0  0
  3  2  1  0  0  0  0
  4  8  1  1  0  0  0
  4  2  1  0  0  0  0
  4  5  1  0  0  0  0
  5  6  2  0  0  0  0
  6  7  1  0  0  0  0
  6 11  1  0  0  0  0
  9  8  1  0  0  0  0
 10  8  1  0  0  0  0
 11 13  1  0  0  0  0
 11 12  1  0  0  0  0
 14 15  1  0  0  0  0
 16 17  2  0  0  0  0
 16 15  1  0  0  0  0
 18 16  1  0  0  0  0
 20 19  1  0  0  0  0
 20 18  1  0  0  0  0
M  END
>  <MODEL>
1

>  <REMARK>
 VINA RESULT:      -5.7      0.000      0.000
  Name = ZINC31820560
                            x       y       z     vdW  Elec       q    Type
                         _______ _______ _______ _____ _____    ______ ____

>  <TORSDO>
F 7

>  <vina_score>
-5.7

$$$$
ZINC26490873
 OpenBabel01091701533D

 27 28  0  0  1  0  0  0  0  0999 V2000
  -31.4960   12.3270  -20.6250 C   0  0  2  0  0  0  0  0  0  0  0  0
  -31.3690   10.8030  -20.9380 C   0  0  0  0  0  0  0  0  0  0  0  0
  -30.1060   10.9070  -22.2830 S   0  0  0  0  0  0  0  0  0  0  0  0
  -29.4630   12.5880  -21.8890 C   0  0  1  0  0  0  0  0  0  0  0  0
  -30.1940   12.9230  -20.6850 O   0  0  0  0  0  0  0  0  0  0  0  0
  -31.7550   12.6630  -16.9630 C   0  0  0  0  0  0  0  0  0  0  0  0
  -31.2280   12.4940  -18.1980 C   0  0  0  0  0  0  0  0  0  0  0  0
  -32.0530   12.5070  -19.2820 N   0  0  0  0  0  0  0  0  0  0  0  0
  -33.3770   12.6900  -19.1260 C   0  0  0  0  0  0  0  0  0  0  0  0
  -33.9120   12.8510  -17.9170 N   0  0  0  0  0  0  0  0  0  0  0  0
  -34.1010   12.7030  -20.1080 O   0  0  0  0  0  0  0  0  0  0  0  0
  -33.1470   12.8460  -16.8320 C   0  0  0  0  0  0  0  0  0  0  0  0
  -33.7090   13.0200  -15.5890 N   0  0  0  0  0  0  0  0  0  0  0  0
  -33.1340   13.1780  -14.8060 H   0  0  0  0  0  0  0  0  0  0  0  0
  -34.6870   12.9870  -15.4820 H   0  0  0  0  0  0  0  0  0  0  0  0
  -27.9580   12.5450  -21.6160 C   0  0  0  0  0  0  0  0  0  0  0  0
  -27.7270   12.4830  -20.1840 O   0  0  0  0  0  0  0  0  0  0  0  0
  -26.5720   13.0040  -19.7290 C   0  0  0  0  0  0  0  0  0  0  0  0
  -25.5880   13.0140  -20.4410 O   0  0  0  0  0  0  0  0  0  0  0  0
  -26.5080   13.5140  -18.4860 O   0  0  0  0  0  0  0  0  0  0  0  0
  -27.7640   13.8950  -17.8640 C   0  0  0  0  0  0  0  0  0  0  0  0
  -28.0080   15.3890  -18.0800 C   0  0  0  0  0  0  0  0  0  0  0  0
  -29.2750   15.5830  -18.9160 C   0  0  0  0  0  0  0  0  0  0  0  0
  -28.9170   15.6460  -20.3400 N   0  0  0  0  0  0  0  0  0  0  0  0
  -27.9490   15.3450  -20.4610 H   0  0  0  0  0  0  0  0  0  0  0  0
  -29.5330   15.0320  -20.8720 H   0  0  0  0  0  0  0  0  0  0  0  0
  -29.0200   16.6040  -20.6740 H   0  0  0  0  0  0  0  0  0  0  0  0
  1  8  1  1  0  0  0
  2  1  1  0  0  0  0
  3  4  1  0  0  0  0
  3  2  1  0  0  0  0
  4 16  1  1  0  0  0
  4  5  1  0  0  0  0
  5  1  1  0  0  0  0
  6 12  1  0  0  0  0
  7  6  2  0  0  0  0
  8  9  1  0  0  0  0
  8  7  1  0  0  0  0
  9 10  1  0  0  0  0
 10 12  2  0  0  0  0
 11  9  2  0  0  0  0
 12 13  1  0  0  0  0
 13 15  1  0  0  0  0
 13 14  1  0  0  0  0
 16 17  1  0  0  0  0
 17 18  1  0  0  0  0
 18 20  1  0  0  0  0
 19 18  2  0  0  0  0
 20 21  1  0  0  0  0
 22 21  1  0  0  0  0
 23 22  1  0  0  0  0
 24 23  1  0  0  0  0
 25 24  1  0  0  0  0
 26 24  1  0  0  0  0
 27 24  1  0  0  0  0
M  END
>  <MODEL>
1

>  <REMARK>
 VINA RESULT:      -5.7      0.000      0.000
  Name = ZINC26490873
                            x       y       z     vdW  Elec       q    Type
                         _______ _______ _______ _____ _____    ______ ____

>  <TORSDO>
F 10

>  <vina_score>
-5.7

$$$$
ZINC19366398
 OpenBabel01091702103D

 28 28  0  0  0  0  0  0  0  0999 V2000
  -29.6410   11.9150  -21.1370 C   0  0  0  0  0  0  0  0  0  0  0  0
  -31.4370   11.9570  -21.3800 S   0  0  0  0  0  0  0  0  0  0  0  0
  -31.8460   13.2540  -21.7920 O   0  0  0  0  0  0  0  0  0  0  0  0
  -31.8610   10.8030  -22.0950 O   0  0  0  0  0  0  0  0  0  0  0  0
  -32.1180   11.7610  -19.7670 C   0  0  0  0  0  0  0  0  0  0  0  0
  -31.4490   12.2720  -18.6700 C   0  0  0  0  0  0  0  0  0  0  0  0
  -31.9790   12.1190  -17.4040 C   0  0  0  0  0  0  0  0  0  0  0  0
  -33.1860   11.4520  -17.2330 C   0  0  0  0  0  0  0  0  0  0  0  0
  -33.8530   10.9360  -18.3380 C   0  0  0  0  0  0  0  0  0  0  0  0
  -33.3200   11.0970  -19.6010 C   0  0  0  0  0  0  0  0  0  0  0  0
  -33.7270   11.2970  -15.9530 N   0  0  0  0  0  0  0  0  0  0  0  0
  -33.6320   10.4390  -15.4790 H   0  0  0  0  0  0  0  0  0  0  0  0
  -34.3770   12.3210  -15.3660 C   0  0  0  0  0  0  0  0  0  0  0  0
  -35.0390   12.1260  -14.0260 C   0  0  0  0  0  0  0  0  0  0  0  0
  -34.4250   13.4020  -15.9140 O   0  0  0  0  0  0  0  0  0  0  0  0
  -28.9420   11.8690  -22.4970 C   0  0  0  0  0  0  0  0  0  0  0  0
  -27.8510   12.9400  -22.5480 C   0  0  0  0  0  0  0  0  0  0  0  0
  -26.9380   12.7650  -21.4110 N   0  0  0  0  0  0  0  0  0  0  0  0
  -26.0570   12.3850  -21.7570 H   0  0  0  0  0  0  0  0  0  0  0  0
  -27.3630   12.1260  -20.7380 H   0  0  0  0  0  0  0  0  0  0  0  0
  -26.6670   14.0470  -20.7490 C   0  0  0  0  0  0  0  0  0  0  0  0
  -27.2950   14.0460  -19.3550 C   0  0  0  0  0  0  0  0  0  0  0  0
  -28.1300   15.2440  -19.1920 N   0  0  0  0  0  0  0  0  0  0  0  0
  -27.5900   16.0480  -19.5090 H   0  0  0  0  0  0  0  0  0  0  0  0
  -30.0850   16.4940  -19.9760 C   0  0  0  0  0  0  0  0  0  0  0  0
  -29.3400   15.1570  -20.0200 C   0  0  0  0  0  0  0  0  0  0  0  0
  -28.4730   15.4590  -17.7800 C   0  0  0  0  0  0  0  0  0  0  0  0
  -28.5730   14.1110  -17.0670 C   0  0  0  0  0  0  0  0  0  0  0  0
  2  1  1  0  0  0  0
  2  5  1  0  0  0  0
  3  2  2  0  0  0  0
  4  2  2  0  0  0  0
  5 10  2  0  0  0  0
  5  6  1  0  0  0  0
  6  7  2  0  0  0  0
  7  8  1  0  0  0  0
  8 11  1  0  0  0  0
  9  8  2  0  0  0  0
 10  9  1  0  0  0  0
 11 12  1  0  0  0  0
 11 13  1  0  0  0  0
 13 14  1  0  0  0  0
 15 13  2  0  0  0  0
 16  1  1  0  0  0  0
 17 16  1  0  0  0  0
 17 18  1  0  0  0  0
 18 21  1  0  0  0  0
 18 20  1  0  0  0  0
 19 18  1  0  0  0  0
 21 22  1  0  0  0  0
 22 23  1  0  0  0  0
 23 27  1  0  0  0  0
 24 23  1  0  0  0  0
 26 25  1  0  0  0  0
 26 23  1  0  0  0  0
 27 28  1  0  0  0  0
M  END
>  <MODEL>
1

>  <REMARK>
 VINA RESULT:      -5.7      0.000      0.000
  Name = ZINC19366398
                            x       y       z     vdW  Elec       q    Type
                         _______ _______ _______ _____ _____    ______ ____

>  <TORSDO>
F 11

>  <vina_score>
-5.7

$$$$
ZINC20843205
 OpenBabel01091702113D

 20 21  0  0  0  0  0  0  0  0999 V2000
  -29.8020   13.9480  -18.4360 C   0  0  0  0  0  0  0  0  0  0  0  0
  -29.7420   13.0520  -17.4920 N   0  0  0  0  0  0  0  0  0  0  0  0
  -30.8890   12.4950  -17.3370 N   0  0  0  0  0  0  0  0  0  0  0  0
  -31.7520   13.0100  -18.1820 C   0  0  0  0  0  0  0  0  0  0  0  0
  -31.0840   13.9480  -18.9140 N   0  0  0  0  0  0  0  0  0  0  0  0
  -31.5910   14.7290  -19.9140 N   0  0  0  0  0  0  0  0  0  0  0  0
  -31.3830   15.6910  -19.9400 H   0  0  0  0  0  0  0  0  0  0  0  0
  -32.1630   14.3300  -20.6080 H   0  0  0  0  0  0  0  0  0  0  0  0
  -27.8720   15.3280  -17.7160 C   0  0  0  0  0  0  0  0  0  0  0  0
  -28.6690   14.8160  -18.9180 C   0  0  0  0  0  0  0  0  0  0  0  0
  -33.4500   12.5660  -18.3460 S   0  0  0  0  0  0  0  0  0  0  0  0
  -33.2940   11.1130  -19.4160 C   0  0  0  0  0  0  0  0  0  0  0  0
  -32.3460   11.4230  -20.5450 C   0  0  0  0  0  0  0  0  0  0  0  0
  -32.5770   12.2210  -21.5490 N   0  0  0  0  0  0  0  0  0  0  0  0
  -31.5480   12.2450  -22.3220 N   0  0  0  0  0  0  0  0  0  0  0  0
  -30.6250   11.4640  -21.8360 C   0  0  0  0  0  0  0  0  0  0  0  0
  -31.1070   10.9270  -20.7040 O   0  0  0  0  0  0  0  0  0  0  0  0
  -29.2660   11.2120  -22.4350 C   0  0  0  0  0  0  0  0  0  0  0  0
  -28.5840   12.4560  -22.6120 O   0  0  0  0  0  0  0  0  0  0  0  0
  -27.6660   12.7710  -21.5640 C   0  0  0  0  0  0  0  0  0  0  0  0
  1  2  2  0  0  0  0
  2  3  1  0  0  0  0
  4  3  2  0  0  0  0
  5  1  1  0  0  0  0
  5  4  1  0  0  0  0
  6  5  1  0  0  0  0
  7  6  1  0  0  0  0
  8  6  1  0  0  0  0
 10  1  1  0  0  0  0
 10  9  1  0  0  0  0
 11  4  1  0  0  0  0
 12 11  1  0  0  0  0
 13 12  1  0  0  0  0
 14 13  2  0  0  0  0
 15 16  2  0  0  0  0
 15 14  1  0  0  0  0
 16 17  1  0  0  0  0
 17 13  1  0  0  0  0
 18 16  1  0  0  0  0
 19 18  1  0  0  0  0
 19 20  1  0  0  0  0
M  END
>  <MODEL>
1

>  <REMARK>
 VINA RESULT:      -5.7      0.000      0.000
  Name = ZINC20843205
                            x       y       z     vdW  Elec       q    Type
                         _______ _______ _______ _____ _____    ______ ____

>  <TORSDO>
F 7

>  <vina_score>
-5.7

$$$$
ZINC19508865
 OpenBabel01091701533D

 21 21  0  0  1  0  0  0  0  0999 V2000
  -28.0730   12.8530  -21.4990 C   0  0  2  0  0  0  0  0  0  0  0  0
  -28.0790   14.1070  -22.2640 N   0  0  0  0  0  0  0  0  0  0  0  0
  -28.2280   14.8910  -21.6300 H   0  0  0  0  0  0  0  0  0  0  0  0
  -27.1830   14.2190  -22.7390 H   0  0  0  0  0  0  0  0  0  0  0  0
  -28.8280   14.0800  -22.9560 H   0  0  0  0  0  0  0  0  0  0  0  0
  -29.4880   12.4680  -21.1530 C   0  0  0  0  0  0  0  0  0  0  0  0
  -30.4070   13.4240  -20.9110 N   0  0  0  0  0  0  0  0  0  0  0  0
  -30.1740   14.3730  -21.0350 H   0  0  0  0  0  0  0  0  0  0  0  0
  -29.8000   11.2980  -21.0920 O   0  0  0  0  0  0  0  0  0  0  0  0
  -31.6910   13.0690  -20.4820 C   0  0  0  0  0  0  0  0  0  0  0  0
  -32.0510   13.2060  -19.1430 C   0  0  0  0  0  0  0  0  0  0  0  0
  -33.3310   12.8360  -18.7650 C   0  0  0  0  0  0  0  0  0  0  0  0
  -34.2060   12.3570  -19.7220 C   0  0  0  0  0  0  0  0  0  0  0  0
  -33.8340   12.2390  -20.9820 N   0  0  0  0  0  0  0  0  0  0  0  0
  -32.6230   12.5730  -21.3830 C   0  0  0  0  0  0  0  0  0  0  0  0
  -27.2680   13.0450  -20.2130 C   0  0  0  0  0  0  0  0  0  0  0  0
  -27.0900   14.5390  -19.9390 C   0  0  0  0  0  0  0  0  0  0  0  0
  -28.5700   13.5050  -17.7550 C   0  0  0  0  0  0  0  0  0  0  0  0
  -28.2360   15.0570  -18.6330 S   0  0  0  0  0  0  0  0  0  0  0  0
  -29.4420   15.4970  -19.2420 O   0  0  0  0  0  0  0  0  0  0  0  0
  -27.5470   15.9330  -17.7510 O   0  0  0  0  0  0  0  0  0  0  0  0
  1  2  1  1  0  0  0
  1  6  1  0  0  0  0
  1 16  1  0  0  0  0
  2  3  1  0  0  0  0
  4  2  1  0  0  0  0
  5  2  1  0  0  0  0
  6  9  2  0  0  0  0
  6  7  1  0  0  0  0
  7 10  1  0  0  0  0
  8  7  1  0  0  0  0
 10 11  2  0  0  0  0
 11 12  1  0  0  0  0
 13 12  2  0  0  0  0
 14 13  1  0  0  0  0
 15 14  2  0  0  0  0
 15 10  1  0  0  0  0
 16 17  1  0  0  0  0
 17 19  1  0  0  0  0
 19 18  1  0  0  0  0
 19 21  2  0  0  0  0
 20 19  2  0  0  0  0
M  END
>  <MODEL>
1

>  <REMARK>
 VINA RESULT:      -5.7      0.000      0.000
  Name = ZINC19508865
                            x       y       z     vdW  Elec       q    Type
                         _______ _______ _______ _____ _____    ______ ____

>  <TORSDO>
F 6

>  <vina_score>
-5.7

$$$$
ZINC20236119
 OpenBabel01091702143D

 22 22  0  0  0  0  0  0  0  0999 V2000
  -28.2180   13.0760  -20.1050 N   0  0  0  0  0  0  0  0  0  0  0  0
  -29.5880   12.9500  -20.3570 C   0  0  0  0  0  0  0  0  0  0  0  0
  -30.0840   11.7870  -20.9350 C   0  0  0  0  0  0  0  0  0  0  0  0
  -31.4370   11.6590  -21.1790 C   0  0  0  0  0  0  0  0  0  0  0  0
  -32.3030   12.6930  -20.8590 C   0  0  0  0  0  0  0  0  0  0  0  0
  -31.8080   13.8600  -20.2850 C   0  0  0  0  0  0  0  0  0  0  0  0
  -30.4520   13.9880  -20.0340 C   0  0  0  0  0  0  0  0  0  0  0  0
  -33.6350   12.5670  -21.1050 O   0  0  0  0  0  0  0  0  0  0  0  0
  -34.3860   11.7490  -20.2040 C   0  0  0  0  0  0  0  0  0  0  0  0
  -32.6570   14.8750  -19.9690 O   0  0  0  0  0  0  0  0  0  0  0  0
  -32.2400   16.1980  -20.3110 C   0  0  0  0  0  0  0  0  0  0  0  0
  -27.6720   13.2200  -18.5490 S   0  0  0  0  0  0  0  0  0  0  0  0
  -28.5910   12.4680  -17.7700 O   0  0  0  0  0  0  0  0  0  0  0  0
  -26.3010   12.8490  -18.6090 O   0  0  0  0  0  0  0  0  0  0  0  0
  -28.7860   15.1700  -16.9880 C   0  0  0  0  0  0  0  0  0  0  0  0
  -27.8240   14.9850  -18.1630 C   0  0  0  0  0  0  0  0  0  0  0  0
  -27.2660   13.0810  -21.2190 C   0  0  0  0  0  0  0  0  0  0  0  0
  -26.9510   14.5240  -21.6150 C   0  0  0  0  0  0  0  0  0  0  0  0
  -25.7260   14.9630  -20.9320 N   0  0  0  0  0  0  0  0  0  0  0  0
  -25.0590   15.3120  -21.6210 H   0  0  0  0  0  0  0  0  0  0  0  0
  -25.9520   15.7050  -20.2710 H   0  0  0  0  0  0  0  0  0  0  0  0
  -25.3150   14.1750  -20.4310 H   0  0  0  0  0  0  0  0  0  0  0  0
  1 12  1  0  0  0  0
  2  1  1  0  0  0  0
  2  7  2  0  0  0  0
  3  2  1  0  0  0  0
  4  3  2  0  0  0  0
  4  5  1  0  0  0  0
  5  6  2  0  0  0  0
  6  7  1  0  0  0  0
  6 10  1  0  0  0  0
  8  5  1  0  0  0  0
  8  9  1  0  0  0  0
 11 10  1  0  0  0  0
 12 16  1  0  0  0  0
 12 13  2  0  0  0  0
 14 12  2  0  0  0  0
 16 15  1  0  0  0  0
 17  1  1  0  0  0  0
 18 17  1  0  0  0  0
 18 19  1  0  0  0  0
 19 22  1  0  0  0  0
 19 21  1  0  0  0  0
 20 19  1  0  0  0  0
M  END
>  <MODEL>
1

>  <REMARK>
 VINA RESULT:      -5.7      0.000      0.000
  Name = ZINC20236119
                            x       y       z     vdW  Elec       q    Type
                         _______ _______ _______ _____ _____    ______ ____

>  <TORSDO>
F 8

>  <vina_score>
-5.7

$$$$
ZINC04972884
 OpenBabel01091702153D

 23 23  0  0  1  0  0  0  0  0999 V2000
  -31.3310   13.4930  -18.4280 C   0  0  1  0  0  0  0  0  0  0  0  0
  -29.9160   13.9740  -18.0540 C   0  0  0  0  0  0  0  0  0  0  0  0
  -29.1490   13.9910  -19.3070 N   0  0  0  0  0  0  0  0  0  0  0  0
  -27.9940   14.6540  -19.5120 C   0  0  0  0  0  0  0  0  0  0  0  0
  -27.5010   15.3080  -18.6150 O   0  0  0  0  0  0  0  0  0  0  0  0
  -29.8500   13.1670  -20.2990 C   0  0  0  0  0  0  0  0  0  0  0  0
  -31.1050   12.6200  -19.6520 C   0  0  0  0  0  0  0  0  0  0  0  0
  -31.8200   11.6360  -20.0500 N   0  0  0  0  0  0  0  0  0  0  0  0
  -33.0340   11.3500  -19.4110 N   0  0  0  0  0  0  0  0  0  0  0  0
  -33.0400   10.8310  -18.5740 H   0  0  0  0  0  0  0  0  0  0  0  0
  -34.1940   11.7860  -19.9420 C   0  0  0  0  0  0  0  0  0  0  0  0
  -34.1800   12.5810  -21.0310 N   0  0  0  0  0  0  0  0  0  0  0  0
  -35.0280   12.8990  -21.4190 H   0  0  0  0  0  0  0  0  0  0  0  0
  -33.3230   12.8430  -21.4370 H   0  0  0  0  0  0  0  0  0  0  0  0
  -35.2520   11.4600  -19.4400 O   0  0  0  0  0  0  0  0  0  0  0  0
  -31.9290   12.6840  -17.3060 C   0  0  0  0  0  0  0  0  0  0  0  0
  -31.3320   11.7320  -16.8630 O   0  0  0  0  0  0  0  0  0  0  0  0
  -33.1250   13.0210  -16.8000 O   0  0  0  0  0  0  0  0  0  0  0  0
  -34.6050   12.7460  -14.8850 C   0  0  0  0  0  0  0  0  0  0  0  0
  -33.7910   12.0350  -15.9680 C   0  0  0  0  0  0  0  0  0  0  0  0
  -27.3860   14.5920  -20.7120 O   0  0  0  0  0  0  0  0  0  0  0  0
  -25.9730   14.2570  -20.7180 C   0  0  0  0  0  0  0  0  0  0  0  0
  -25.7960   12.7860  -20.3330 C   0  0  0  0  0  0  0  0  0  0  0  0
  1  2  1  0  0  0  0
  1 16  1  1  0  0  0
  3  2  1  0  0  0  0
  4  3  1  0  0  0  0
  4  5  2  0  0  0  0
  6  7  1  0  0  0  0
  6  3  1  0  0  0  0
  7  1  1  0  0  0  0
  8  7  2  0  0  0  0
  8  9  1  0  0  0  0
  9 10  1  0  0  0  0
 11 15  2  0  0  0  0
 11  9  1  0  0  0  0
 12 11  1  0  0  0  0
 13 12  1  0  0  0  0
 14 12  1  0  0  0  0
 16 17  2  0  0  0  0
 16 18  1  0  0  0  0
 18 20  1  0  0  0  0
 20 19  1  0  0  0  0
 21  4  1  0  0  0  0
 22 21  1  0  0  0  0
 22 23  1  0  0  0  0
M  END
>  <MODEL>
1

>  <REMARK>
 VINA RESULT:      -5.7      0.000      0.000
  Name = ZINC04972884
                            x       y       z     vdW  Elec       q    Type
                         _______ _______ _______ _____ _____    ______ ____

>  <TORSDO>
F 6

>  <vina_score>
-5.7

$$$$
ZINC00481078
 OpenBabel01091701563D

 24 24  0  0  0  0  0  0  0  0999 V2000
  -31.2260   13.3030  -18.2850 C   0  0  0  0  0  0  0  0  0  0  0  0
  -29.8590   13.4470  -18.1300 C   0  0  0  0  0  0  0  0  0  0  0  0
  -29.1930   14.3360  -18.9110 N   0  0  0  0  0  0  0  0  0  0  0  0
  -29.8300   15.0820  -19.8270 C   0  0  0  0  0  0  0  0  0  0  0  0
  -31.1550   14.9870  -20.0300 N   0  0  0  0  0  0  0  0  0  0  0  0
  -31.5860   15.5450  -20.7180 H   0  0  0  0  0  0  0  0  0  0  0  0
  -29.1870   15.8670  -20.4970 O   0  0  0  0  0  0  0  0  0  0  0  0
  -31.8990   14.1300  -19.3000 C   0  0  0  0  0  0  0  0  0  0  0  0
  -33.0990   14.0410  -19.4760 O   0  0  0  0  0  0  0  0  0  0  0  0
  -33.7860   11.8960  -16.0500 C   0  0  0  0  0  0  0  0  0  0  0  0
  -33.1450   12.7310  -16.8910 N   0  0  0  0  0  0  0  0  0  0  0  0
  -33.5250   13.6170  -17.0900 H   0  0  0  0  0  0  0  0  0  0  0  0
  -31.9830   12.3520  -17.4600 C   0  0  0  0  0  0  0  0  0  0  0  0
  -31.5620   11.2240  -17.2900 O   0  0  0  0  0  0  0  0  0  0  0  0
  -33.3170   10.8030  -15.8030 O   0  0  0  0  0  0  0  0  0  0  0  0
  -34.9470   12.2740  -15.4820 O   0  0  0  0  0  0  0  0  0  0  0  0
  -35.9020   11.0410  -13.6110 C   0  0  0  0  0  0  0  0  0  0  0  0
  -35.0210   12.2180  -14.0330 C   0  0  0  0  0  0  0  0  0  0  0  0
  -27.7450   14.4880  -18.7460 C   0  0  0  0  0  0  0  0  0  0  0  0
  -27.0590   13.1430  -18.9900 C   0  0  0  0  0  0  0  0  0  0  0  0
  -26.5390   13.1160  -20.3730 N   0  0  0  0  0  0  0  0  0  0  0  0
  -25.7540   12.4670  -20.4190 H   0  0  0  0  0  0  0  0  0  0  0  0
  -26.0730   14.4620  -20.7650 C   0  0  0  0  0  0  0  0  0  0  0  0
  -27.5940   12.6570  -21.3010 C   0  0  0  0  0  0  0  0  0  0  0  0
  1  2  2  0  0  0  0
  1 13  1  0  0  0  0
  3 19  1  0  0  0  0
  3  2  1  0  0  0  0
  4  3  1  0  0  0  0
  5  4  1  0  0  0  0
  5  8  1  0  0  0  0
  6  5  1  0  0  0  0
  7  4  2  0  0  0  0
  8  1  1  0  0  0  0
  9  8  2  0  0  0  0
 10 15  2  0  0  0  0
 10 16  1  0  0  0  0
 11 10  1  0  0  0  0
 12 11  1  0  0  0  0
 13 14  2  0  0  0  0
 13 11  1  0  0  0  0
 16 18  1  0  0  0  0
 18 17  1  0  0  0  0
 20 19  1  0  0  0  0
 21 20  1  0  0  0  0
 22 21  1  0  0  0  0
 23 21  1  0  0  0  0
 24 21  1  0  0  0  0
M  END
>  <MODEL>
1

>  <REMARK>
 VINA RESULT:      -5.7      0.000      0.000
  Name = ZINC00481078
                            x       y       z     vdW  Elec       q    Type
                         _______ _______ _______ _____ _____    ______ ____

>  <TORSDO>
F 6

>  <vina_score>
-5.7

$$$$
ZINC19996022
 OpenBabel01091702023D

 27 28  0  0  0  0  0  0  0  0999 V2000
  -31.4140   13.6360  -18.3700 N   0  0  0  0  0  0  0  0  0  0  0  0
  -30.0950   13.5700  -18.0940 C   0  0  0  0  0  0  0  0  0  0  0  0
  -29.1760   14.4150  -18.8770 C   0  0  0  0  0  0  0  0  0  0  0  0
  -29.7750   15.2760  -19.9130 C   0  0  0  0  0  0  0  0  0  0  0  0
  -31.1130   15.2380  -20.0780 N   0  0  0  0  0  0  0  0  0  0  0  0
  -31.5280   15.8070  -20.7660 H   0  0  0  0  0  0  0  0  0  0  0  0
  -29.0810   16.0050  -20.5970 O   0  0  0  0  0  0  0  0  0  0  0  0
  -27.8130   14.4000  -18.6500 C   0  0  0  0  0  0  0  0  0  0  0  0
  -29.6750   12.8320  -17.2220 O   0  0  0  0  0  0  0  0  0  0  0  0
  -31.8900   14.4440  -19.3290 C   0  0  0  0  0  0  0  0  0  0  0  0
  -33.0890   14.4560  -19.5280 O   0  0  0  0  0  0  0  0  0  0  0  0
  -34.2960   13.0370  -14.4300 C   0  0  0  0  0  0  0  0  0  0  0  0
  -33.7190   12.5280  -15.7260 C   0  0  0  0  0  0  0  0  0  0  0  0
  -34.0700   11.2750  -16.1930 C   0  0  0  0  0  0  0  0  0  0  0  0
  -33.5440   10.8030  -17.3810 C   0  0  0  0  0  0  0  0  0  0  0  0
  -32.6670   11.5870  -18.1080 C   0  0  0  0  0  0  0  0  0  0  0  0
  -32.3080   12.8420  -17.6380 C   0  0  0  0  0  0  0  0  0  0  0  0
  -32.8390   13.3120  -16.4450 C   0  0  0  0  0  0  0  0  0  0  0  0
  -26.9950   15.1580  -19.4080 N   0  0  0  0  0  0  0  0  0  0  0  0
  -26.8620   16.1090  -19.1900 H   0  0  0  0  0  0  0  0  0  0  0  0
  -26.3040   14.5660  -20.5570 C   0  0  0  0  0  0  0  0  0  0  0  0
  -26.8020   13.1360  -20.7710 C   0  0  0  0  0  0  0  0  0  0  0  0
  -27.8440   13.1200  -21.8900 C   0  0  0  0  0  0  0  0  0  0  0  0
  -28.7840   12.0130  -21.6690 N   0  0  0  0  0  0  0  0  0  0  0  0
  -28.6320   11.6560  -20.7250 H   0  0  0  0  0  0  0  0  0  0  0  0
  -28.5360   10.9150  -22.6130 C   0  0  0  0  0  0  0  0  0  0  0  0
  -30.1750   12.4780  -21.7570 C   0  0  0  0  0  0  0  0  0  0  0  0
  1  2  1  0  0  0  0
  1 17  1  0  0  0  0
  2  9  2  0  0  0  0
  3  8  2  0  0  0  0
  3  2  1  0  0  0  0
  4  3  1  0  0  0  0
  5  4  1  0  0  0  0
  5 10  1  0  0  0  0
  6  5  1  0  0  0  0
  7  4  2  0  0  0  0
 10  1  1  0  0  0  0
 11 10  2  0  0  0  0
 13 12  1  0  0  0  0
 14 13  1  0  0  0  0
 15 14  2  0  0  0  0
 16 17  2  0  0  0  0
 16 15  1  0  0  0  0
 17 18  1  0  0  0  0
 18 13  2  0  0  0  0
 19 20  1  0  0  0  0
 19  8  1  0  0  0  0
 21 19  1  0  0  0  0
 22 21  1  0  0  0  0
 23 24  1  0  0  0  0
 23 22  1  0  0  0  0
 24 25  1  0  0  0  0
 26 24  1  0  0  0  0
 27 24  1  0  0  0  0
M  END
>  <MODEL>
1

>  <REMARK>
 VINA RESULT:      -5.6      0.000      0.000
  Name = ZINC19996022
                            x       y       z     vdW  Elec       q    Type
                         _______ _______ _______ _____ _____    ______ ____

>  <TORSDO>
F 6

>  <vina_score>
-5.6

$$$$
ZINC16697325
 OpenBabel01091702023D

 22 22  0  0  1  0  0  0  0  0999 V2000
  -30.7670   12.1260  -18.5640 C   0  0  0  0  0  0  0  0  0  0  0  0
  -30.4660   12.3700  -19.8550 N   0  0  0  0  0  0  0  0  0  0  0  0
  -31.0300   11.5390  -20.9260 C   0  0  0  0  0  0  0  0  0  0  0  0
  -29.8860   11.0080  -21.7950 C   0  0  0  0  0  0  0  0  0  0  0  0
  -29.0400   12.1820  -22.2910 C   0  0  0  0  0  0  0  0  0  0  0  0
  -28.4360   12.9200  -21.0940 C   0  0  2  0  0  0  0  0  0  0  0  0
  -29.5640   13.4730  -20.2170 C   0  0  0  0  0  0  0  0  0  0  0  0
  -30.2920   12.8210  -17.6880 O   0  0  0  0  0  0  0  0  0  0  0  0
  -31.5930   11.1120  -18.2460 O   0  0  0  0  0  0  0  0  0  0  0  0
  -33.3200   10.9510  -16.5360 C   0  0  0  0  0  0  0  0  0  0  0  0
  -32.9690   11.4550  -17.9380 C   0  0  0  0  0  0  0  0  0  0  0  0
  -33.8990   10.8030  -18.9630 C   0  0  0  0  0  0  0  0  0  0  0  0
  -33.1400   12.9750  -17.9900 C   0  0  0  0  0  0  0  0  0  0  0  0
  -27.5640   14.0740  -21.5920 C   0  0  0  0  0  0  0  0  0  0  0  0
  -26.4220   14.3150  -20.6010 C   0  0  1  0  0  0  0  0  0  0  0  0
  -26.8860   15.2410  -19.5540 N   0  0  0  0  0  0  0  0  0  0  0  0
  -27.4890   14.7400  -18.9010 H   0  0  0  0  0  0  0  0  0  0  0  0
  -26.0810   15.6180  -19.0520 H   0  0  0  0  0  0  0  0  0  0  0  0
  -27.4080   16.0060  -19.9810 H   0  0  0  0  0  0  0  0  0  0  0  0
  -25.9980   13.0030  -19.9950 C   0  0  0  0  0  0  0  0  0  0  0  0
  -26.4170   12.6650  -18.7650 O   0  0  0  0  0  0  0  0  0  0  0  0
  -25.2820   12.2540  -20.6160 O   0  0  0  0  0  0  0  0  0  0  0  0
  1  9  1  0  0  0  0
  1  8  2  0  0  0  0
  2  1  1  0  0  0  0
  3  2  1  0  0  0  0
  4  3  1  0  0  0  0
  5  4  1  0  0  0  0
  5  6  1  0  0  0  0
  6 14  1  6  0  0  0
  6  7  1  0  0  0  0
  7  2  1  0  0  0  0
  9 11  1  0  0  0  0
 11 10  1  0  0  0  0
 12 11  1  0  0  0  0
 13 11  1  0  0  0  0
 15 14  1  6  0  0  0
 15 20  1  0  0  0  0
 15 16  1  0  0  0  0
 16 18  1  0  0  0  0
 16 17  1  0  0  0  0
 19 16  1  0  0  0  0
 20 21  1  0  0  0  0
 22 20  2  0  0  0  0
M  END
>  <MODEL>
1

>  <REMARK>
 VINA RESULT:      -5.6      0.000      0.000
  Name = ZINC16697325
                            x       y       z     vdW  Elec       q    Type
                         _______ _______ _______ _____ _____    ______ ____

>  <TORSDO>
F 6

>  <vina_score>
-5.6

$$$$
ZINC20306534
 OpenBabel01091701523D

 21 21  0  0  1  0  0  0  0  0999 V2000
  -31.2880   12.8300  -16.9550 C   0  0  0  0  0  0  0  0  0  0  0  0
  -28.5950   13.4330  -20.2210 C   0  0  0  0  0  0  0  0  0  0  0  0
  -28.9790   14.5110  -19.4210 C   0  0  0  0  0  0  0  0  0  0  0  0
  -29.8480   14.3090  -18.3690 C   0  0  0  0  0  0  0  0  0  0  0  0
  -30.3390   13.0430  -18.1060 C   0  0  0  0  0  0  0  0  0  0  0  0
  -29.9590   11.9690  -18.8910 C   0  0  0  0  0  0  0  0  0  0  0  0
  -29.0950   12.1570  -19.9500 C   0  0  0  0  0  0  0  0  0  0  0  0
  -27.6650   13.6410  -21.3490 C   0  0  0  0  0  0  0  0  0  0  0  0
  -28.0570   13.5110  -22.4920 O   0  0  0  0  0  0  0  0  0  0  0  0
  -25.5870   13.0340  -20.3420 C   0  0  0  0  0  0  0  0  0  0  0  0
  -26.3810   13.9740  -21.1120 O   0  0  0  0  0  0  0  0  0  0  0  0
  -32.8070   12.0440  -17.5590 S   0  0  0  0  0  0  0  0  0  0  0  0
  -33.4150   13.1850  -18.8310 C   0  0  0  0  0  0  0  0  0  0  0  0
  -33.3100   12.5200  -20.2060 C   0  0  1  0  0  0  0  0  0  0  0  0
  -34.6550   12.3680  -20.7800 N   0  0  0  0  0  0  0  0  0  0  0  0
  -34.8600   13.1680  -21.3780 H   0  0  0  0  0  0  0  0  0  0  0  0
  -34.6940   11.5120  -21.3320 H   0  0  0  0  0  0  0  0  0  0  0  0
  -35.3420   12.3190  -20.0280 H   0  0  0  0  0  0  0  0  0  0  0  0
  -32.4700   13.3770  -21.1160 C   0  0  0  0  0  0  0  0  0  0  0  0
  -31.8160   12.8200  -22.1470 O   0  0  0  0  0  0  0  0  0  0  0  0
  -32.3790   14.5650  -20.9140 O   0  0  0  0  0  0  0  0  0  0  0  0
  2  7  2  0  0  0  0
  2  3  1  0  0  0  0
  3  4  2  0  0  0  0
  4  5  1  0  0  0  0
  5  1  1  0  0  0  0
  6  5  2  0  0  0  0
  7  6  1  0  0  0  0
  8 11  1  0  0  0  0
  8  2  1  0  0  0  0
  9  8  2  0  0  0  0
 11 10  1  0  0  0  0
 12  1  1  0  0  0  0
 13 12  1  0  0  0  0
 14 19  1  6  0  0  0
 14 13  1  0  0  0  0
 15 14  1  0  0  0  0
 15 18  1  0  0  0  0
 16 15  1  0  0  0  0
 17 15  1  0  0  0  0
 19 21  1  0  0  0  0
 20 19  2  0  0  0  0
M  END
>  <MODEL>
1

>  <REMARK>
 VINA RESULT:      -5.6      0.000      0.000
  Name = ZINC20306534
                            x       y       z     vdW  Elec       q    Type
                         _______ _______ _______ _____ _____    ______ ____

>  <TORSDO>
F 8

>  <vina_score>
-5.6

$$$$
ZINC17669880
 OpenBabel01091702083D

 25 26  0  0  0  0  0  0  0  0999 V2000
  -30.1120   12.4880  -21.5240 C   0  0  0  0  0  0  0  0  0  0  0  0
  -29.0340   13.2130  -20.7620 C   0  0  0  0  0  0  0  0  0  0  0  0
  -29.3120   14.3470  -20.1440 N   0  0  0  0  0  0  0  0  0  0  0  0
  -28.3630   14.9880  -19.4660 C   0  0  0  0  0  0  0  0  0  0  0  0
  -27.1310   14.4920  -19.4210 N   0  0  0  0  0  0  0  0  0  0  0  0
  -26.8530   13.3550  -20.0480 C   0  0  0  0  0  0  0  0  0  0  0  0
  -27.8090   12.7170  -20.7200 N   0  0  0  0  0  0  0  0  0  0  0  0
  -28.6560   16.1690  -18.8160 N   0  0  0  0  0  0  0  0  0  0  0  0
  -29.4630   16.2350  -18.2550 H   0  0  0  0  0  0  0  0  0  0  0  0
  -28.0600   16.9460  -18.9130 H   0  0  0  0  0  0  0  0  0  0  0  0
  -25.5760   12.8360  -20.0050 N   0  0  0  0  0  0  0  0  0  0  0  0
  -24.9770   13.0630  -19.2570 H   0  0  0  0  0  0  0  0  0  0  0  0
  -25.2640   12.2360  -20.7210 H   0  0  0  0  0  0  0  0  0  0  0  0
  -30.4490   10.8980  -20.7270 S   0  0  0  0  0  0  0  0  0  0  0  0
  -31.5620   11.6580  -17.0490 C   0  0  0  0  0  0  0  0  0  0  0  0
  -32.8080   12.2730  -17.2130 C   0  0  0  0  0  0  0  0  0  0  0  0
  -33.2990   12.4460  -18.5260 C   0  0  0  0  0  0  0  0  0  0  0  0
  -32.5620   12.0210  -19.5450 N   0  0  0  0  0  0  0  0  0  0  0  0
  -31.3870   11.4440  -19.3390 C   0  0  0  0  0  0  0  0  0  0  0  0
  -30.8940   11.2660  -18.1180 N   0  0  0  0  0  0  0  0  0  0  0  0
  -34.5210   13.0460  -18.7450 N   0  0  0  0  0  0  0  0  0  0  0  0
  -34.7880   13.3020  -19.6580 H   0  0  0  0  0  0  0  0  0  0  0  0
  -35.1280   13.2190  -17.9890 H   0  0  0  0  0  0  0  0  0  0  0  0
  -33.5640   12.7150  -16.0810 C   0  0  0  0  0  0  0  0  0  0  0  0
  -34.1650   13.0660  -15.1820 N   0  0  0  0  0  0  0  0  0  0  0  0
  1  2  1  0  0  0  0
  1 14  1  0  0  0  0
  2  7  2  0  0  0  0
  2  3  1  0  0  0  0
  3  4  2  0  0  0  0
  4  5  1  0  0  0  0
  4  8  1  0  0  0  0
  6 11  1  0  0  0  0
  6  5  2  0  0  0  0
  7  6  1  0  0  0  0
  8  9  1  0  0  0  0
 10  8  1  0  0  0  0
 11 12  1  0  0  0  0
 13 11  1  0  0  0  0
 14 19  1  0  0  0  0
 16 15  1  0  0  0  0
 16 24  1  0  0  0  0
 17 16  2  0  0  0  0
 18 19  2  0  0  0  0
 18 17  1  0  0  0  0
 19 20  1  0  0  0  0
 20 15  2  0  0  0  0
 21 17  1  0  0  0  0
 21 23  1  0  0  0  0
 22 21  1  0  0  0  0
 24 25  3  0  0  0  0
M  END
>  <MODEL>
1

>  <REMARK>
 VINA RESULT:      -5.6      0.000      0.000
  Name = ZINC17669880
                            x       y       z     vdW  Elec       q    Type
                         _______ _______ _______ _____ _____    ______ ____

>  <TORSDO>
F 7

>  <vina_score>
-5.6

$$$$
ZINC31768924
 OpenBabel01091701523D

 25 26  0  0  0  0  0  0  0  0999 V2000
  -31.1800   12.1290  -22.1180 C   0  0  0  0  0  0  0  0  0  0  0  0
  -29.4500   12.2360  -20.3520 N   0  0  0  0  0  0  0  0  0  0  0  0
  -29.0860   11.3900  -20.7020 H   0  0  0  0  0  0  0  0  0  0  0  0
  -30.5290   12.7970  -20.9340 C   0  0  0  0  0  0  0  0  0  0  0  0
  -30.9760   13.8390  -20.5040 O   0  0  0  0  0  0  0  0  0  0  0  0
  -27.5540   13.2420  -19.1690 N   0  0  0  0  0  0  0  0  0  0  0  0
  -28.8480   12.8550  -19.2570 C   0  0  0  0  0  0  0  0  0  0  0  0
  -29.4540   13.1760  -18.0810 C   0  0  0  0  0  0  0  0  0  0  0  0
  -28.5000   13.7840  -17.2610 C   0  0  0  0  0  0  0  0  0  0  0  0
  -27.3640   13.8240  -17.9090 N   0  0  0  0  0  0  0  0  0  0  0  0
  -26.5350   13.0850  -20.2090 C   0  0  0  0  0  0  0  0  0  0  0  0
  -27.4510   14.5370  -22.0230 C   0  0  0  0  0  0  0  0  0  0  0  0
  -26.3610   14.4080  -20.9580 C   0  0  0  0  0  0  0  0  0  0  0  0
  -31.8030   10.8030  -21.6760 C   0  0  0  0  0  0  0  0  0  0  0  0
  -32.3560   10.9500  -20.3270 N   0  0  0  0  0  0  0  0  0  0  0  0
  -31.8590   10.6060  -19.5510 H   0  0  0  0  0  0  0  0  0  0  0  0
  -33.5470   11.5580  -20.1500 C   0  0  0  0  0  0  0  0  0  0  0  0
  -34.1610   11.9840  -21.1110 O   0  0  0  0  0  0  0  0  0  0  0  0
  -34.0820   11.6990  -18.8480 C   0  0  0  0  0  0  0  0  0  0  0  0
  -33.2550   11.9170  -17.7950 C   0  0  0  0  0  0  0  0  0  0  0  0
  -33.7910   12.0580  -16.4920 C   0  0  0  0  0  0  0  0  0  0  0  0
  -34.0830   11.0310  -15.6180 C   0  0  0  0  0  0  0  0  0  0  0  0
  -34.5850   11.6290  -14.4520 C   0  0  0  0  0  0  0  0  0  0  0  0
  -34.5890   12.9660  -14.6580 C   0  0  0  0  0  0  0  0  0  0  0  0
  -34.1100   13.2200  -15.8850 O   0  0  0  0  0  0  0  0  0  0  0  0
  1 14  1  0  0  0  0
  1  4  1  0  0  0  0
  2  7  1  0  0  0  0
  3  2  1  0  0  0  0
  4  5  2  0  0  0  0
  4  2  1  0  0  0  0
  6 10  1  0  0  0  0
  7  6  1  0  0  0  0
  7  8  2  0  0  0  0
  8  9  1  0  0  0  0
 10  9  2  0  0  0  0
 11  6  1  0  0  0  0
 12 13  1  0  0  0  0
 13 11  1  0  0  0  0
 14 15  1  0  0  0  0
 15 17  1  0  0  0  0
 15 16  1  0  0  0  0
 17 19  1  0  0  0  0
 18 17  2  0  0  0  0
 19 20  2  0  0  0  0
 20 21  1  0  0  0  0
 21 25  1  0  0  0  0
 21 22  2  0  0  0  0
 22 23  1  0  0  0  0
 24 23  2  0  0  0  0
 25 24  1  0  0  0  0
M  END
>  <MODEL>
1

>  <REMARK>
 VINA RESULT:      -5.6      0.000      0.000
  Name = ZINC31768924
                            x       y       z     vdW  Elec       q    Type
                         _______ _______ _______ _____ _____    ______ ____

>  <TORSDO>
F 8

>  <vina_score>
-5.6

$$$$
ZINC20313019
 OpenBabel01091702123D

 19 19  0  0  0  0  0  0  0  0999 V2000
  -29.6800   13.7650  -19.1380 C   0  0  0  0  0  0  0  0  0  0  0  0
  -29.0440   12.8040  -19.8380 N   0  0  0  0  0  0  0  0  0  0  0  0
  -29.5120   11.9680  -20.0630 H   0  0  0  0  0  0  0  0  0  0  0  0
  -29.1360   14.8340  -18.9400 O   0  0  0  0  0  0  0  0  0  0  0  0
  -32.3390   14.2590  -20.6270 C   0  0  0  0  0  0  0  0  0  0  0  0
  -32.2140   13.7360  -19.2650 N   0  0  0  0  0  0  0  0  0  0  0  0
  -31.0330   13.5190  -18.6120 C   0  0  0  0  0  0  0  0  0  0  0  0
  -31.3510   13.0300  -17.3720 C   0  0  0  0  0  0  0  0  0  0  0  0
  -32.7600   12.9750  -17.3400 C   0  0  0  0  0  0  0  0  0  0  0  0
  -33.1990   13.4070  -18.5080 N   0  0  0  0  0  0  0  0  0  0  0  0
  -33.5910   12.5120  -16.2110 C   0  0  0  0  0  0  0  0  0  0  0  0
  -33.7560   11.1930  -15.9930 O   0  0  0  0  0  0  0  0  0  0  0  0
  -34.1260   13.3210  -15.4800 O   0  0  0  0  0  0  0  0  0  0  0  0
  -27.6580   13.0050  -20.2650 C   0  0  0  0  0  0  0  0  0  0  0  0
  -27.6300   13.3800  -21.7490 C   0  0  0  0  0  0  0  0  0  0  0  0
  -27.8260   14.8280  -21.8920 N   0  0  0  0  0  0  0  0  0  0  0  0
  -28.4180   15.1680  -21.1320 H   0  0  0  0  0  0  0  0  0  0  0  0
  -26.9230   15.2990  -21.8560 H   0  0  0  0  0  0  0  0  0  0  0  0
  -28.2770   15.0230  -22.7860 H   0  0  0  0  0  0  0  0  0  0  0  0
  1  4  2  0  0  0  0
  1  7  1  0  0  0  0
  2  1  1  0  0  0  0
  3  2  1  0  0  0  0
  5  6  1  0  0  0  0
  6  7  1  0  0  0  0
  6 10  1  0  0  0  0
  7  8  2  0  0  0  0
  8  9  1  0  0  0  0
  9 11  1  0  0  0  0
 10  9  2  0  0  0  0
 11 12  2  0  0  0  0
 11 13  1  0  0  0  0
 14  2  1  0  0  0  0
 15 14  1  0  0  0  0
 16 18  1  0  0  0  0
 16 15  1  0  0  0  0
 16 17  1  0  0  0  0
 19 16  1  0  0  0  0
M  END
>  <MODEL>
1

>  <REMARK>
 VINA RESULT:      -5.6      0.000      0.000
  Name = ZINC20313019
                            x       y       z     vdW  Elec       q    Type
                         _______ _______ _______ _____ _____    ______ ____

>  <TORSDO>
F 5

>  <vina_score>
-5.6

$$$$
ZINC06495501
 OpenBabel01091702123D

 22 22  0  0  0  0  0  0  0  0999 V2000
  -30.3610   13.6440  -19.9010 C   0  0  0  0  0  0  0  0  0  0  0  0
  -29.4890   12.7420  -20.3950 N   0  0  0  0  0  0  0  0  0  0  0  0
  -29.4900   11.8190  -20.0530 H   0  0  0  0  0  0  0  0  0  0  0  0
  -30.3600   14.7840  -20.3240 O   0  0  0  0  0  0  0  0  0  0  0  0
  -30.8680   12.5870  -17.6940 C   0  0  0  0  0  0  0  0  0  0  0  0
  -31.7960   12.2410  -16.7320 C   0  0  0  0  0  0  0  0  0  0  0  0
  -33.1410   12.5510  -16.9400 C   0  0  0  0  0  0  0  0  0  0  0  0
  -33.5320   13.1800  -18.0450 N   0  0  0  0  0  0  0  0  0  0  0  0
  -32.6770   13.5300  -18.9810 C   0  0  0  0  0  0  0  0  0  0  0  0
  -31.3150   13.2480  -18.8450 C   0  0  0  0  0  0  0  0  0  0  0  0
  -34.1420   12.1810  -15.9200 C   0  0  0  0  0  0  0  0  0  0  0  0
  -34.5320   13.0530  -15.0490 N   0  0  0  0  0  0  0  0  0  0  0  0
  -35.4920   12.6980  -14.0710 O   0  0  0  0  0  0  0  0  0  0  0  0
  -28.5430   13.1350  -21.4420 C   0  0  0  0  0  0  0  0  0  0  0  0
  -27.1390   13.2500  -20.8450 C   0  0  0  0  0  0  0  0  0  0  0  0
  -27.0420   14.5040  -20.0750 N   0  0  0  0  0  0  0  0  0  0  0  0
  -26.1850   14.9900  -20.3400 H   0  0  0  0  0  0  0  0  0  0  0  0
  -27.8530   15.0880  -20.2800 H   0  0  0  0  0  0  0  0  0  0  0  0
  -27.0020   14.2170  -18.6290 C   0  0  0  0  0  0  0  0  0  0  0  0
  -27.8970   15.2160  -17.8940 C   0  0  0  0  0  0  0  0  0  0  0  0
  -28.3290   16.2290  -18.8050 O   0  0  0  0  0  0  0  0  0  0  0  0
  -27.8140   16.1670  -19.6250 H   0  0  0  0  0  0  0  0  0  0  0  0
  1 10  1  0  0  0  0
  2  3  1  0  0  0  0
  2  1  1  0  0  0  0
  4  1  2  0  0  0  0
  5  6  2  0  0  0  0
  7  6  1  0  0  0  0
  7 11  1  0  0  0  0
  8  7  2  0  0  0  0
  9 10  2  0  0  0  0
  9  8  1  0  0  0  0
 10  5  1  0  0  0  0
 11 12  2  0  0  0  0
 12 13  1  0  0  0  0
 14 15  1  0  0  0  0
 14  2  1  0  0  0  0
 15 16  1  0  0  0  0
 16 19  1  0  0  0  0
 17 16  1  0  0  0  0
 18 16  1  0  0  0  0
 19 20  1  0  0  0  0
 21 20  1  0  0  0  0
 22 21  1  0  0  0  0
M  END
>  <MODEL>
1

>  <REMARK>
 VINA RESULT:      -5.6      0.000      0.000
  Name = ZINC06495501
                            x       y       z     vdW  Elec       q    Type
                         _______ _______ _______ _____ _____    ______ ____

>  <TORSDO>
F 8

>  <vina_score>
-5.6

$$$$
ZINC05976180
 OpenBabel01091702143D

 27 28  0  0  1  0  0  0  0  0999 V2000
  -32.2830   15.9750  -20.5260 C   0  0  0  0  0  0  0  0  0  0  0  0
  -30.8830   15.9490  -19.9720 C   0  0  0  0  0  0  0  0  0  0  0  0
  -30.5050   14.9420  -19.0510 C   0  0  0  0  0  0  0  0  0  0  0  0
  -29.3270   14.8560  -18.3810 C   0  0  0  0  0  0  0  0  0  0  0  0
  -28.3030   15.7320  -18.4830 O   0  0  0  0  0  0  0  0  0  0  0  0
  -29.3450   13.6520  -17.5230 C   0  0  0  0  0  0  0  0  0  0  0  0
  -30.5160   13.0050  -17.6630 N   0  0  0  0  0  0  0  0  0  0  0  0
  -28.4360   13.2980  -16.7990 O   0  0  0  0  0  0  0  0  0  0  0  0
  -31.3340   13.7530  -18.6250 C   0  0  2  0  0  0  0  0  0  0  0  0
  -30.0790   16.7910  -20.3140 O   0  0  0  0  0  0  0  0  0  0  0  0
  -31.6510   12.8890  -19.8180 C   0  0  0  0  0  0  0  0  0  0  0  0
  -30.6470   12.5330  -20.7000 C   0  0  0  0  0  0  0  0  0  0  0  0
  -30.9350   11.7400  -21.7950 C   0  0  0  0  0  0  0  0  0  0  0  0
  -32.2280   11.3000  -22.0100 C   0  0  0  0  0  0  0  0  0  0  0  0
  -33.2340   11.6500  -21.1230 C   0  0  0  0  0  0  0  0  0  0  0  0
  -32.9450   12.4510  -20.0280 C   0  0  0  0  0  0  0  0  0  0  0  0
  -34.5050   11.2140  -21.3290 O   0  0  0  0  0  0  0  0  0  0  0  0
  -34.8540   11.1840  -22.1980 H   0  0  0  0  0  0  0  0  0  0  0  0
  -30.9070   11.7710  -16.9760 C   0  0  0  0  0  0  0  0  0  0  0  0
  -32.4310   11.7140  -16.8580 C   0  0  0  0  0  0  0  0  0  0  0  0
  -32.8770   12.7140  -15.8690 N   0  0  0  0  0  0  0  0  0  0  0  0
  -32.5400   12.4400  -14.9460 H   0  0  0  0  0  0  0  0  0  0  0  0
  -32.5000   13.6280  -16.1220 H   0  0  0  0  0  0  0  0  0  0  0  0
  -34.3500   12.7840  -15.8400 C   0  0  0  0  0  0  0  0  0  0  0  0
  -34.8380   12.4900  -14.4200 C   0  0  0  0  0  0  0  0  0  0  0  0
  -34.5750   13.6180  -13.5830 O   0  0  0  0  0  0  0  0  0  0  0  0
  -34.0170   13.3460  -12.8380 H   0  0  0  0  0  0  0  0  0  0  0  0
  1  2  1  0  0  0  0
  2  3  1  0  0  0  0
  3  9  1  0  0  0  0
  3  4  2  0  0  0  0
  4  6  1  0  0  0  0
  5  4  1  0  0  0  0
  6  8  2  0  0  0  0
  7  6  1  0  0  0  0
  7 19  1  0  0  0  0
  9 11  1  6  0  0  0
  9  7  1  0  0  0  0
 10  2  2  0  0  0  0
 12 11  2  0  0  0  0
 13 12  1  0  0  0  0
 14 13  2  0  0  0  0
 14 15  1  0  0  0  0
 15 16  2  0  0  0  0
 16 11  1  0  0  0  0
 17 15  1  0  0  0  0
 18 17  1  0  0  0  0
 19 20  1  0  0  0  0
 20 21  1  0  0  0  0
 21 24  1  0  0  0  0
 21 22  1  0  0  0  0
 23 21  1  0  0  0  0
 24 25  1  0  0  0  0
 25 26  1  0  0  0  0
 26 27  1  0  0  0  0
M  END
>  <MODEL>
1

>  <REMARK>
 VINA RESULT:      -5.6      0.000      0.000
  Name = ZINC05976180
                            x       y       z     vdW  Elec       q    Type
                         _______ _______ _______ _____ _____    ______ ____

>  <TORSDO>
F 8

>  <vina_score>
-5.6

$$$$
ZINC31381385
 OpenBabel01091702153D

 27 28  0  0  1  0  0  0  0  0999 V2000
  -30.4400   14.8440  -19.6900 N   0  0  0  0  0  0  0  0  0  0  0  0
  -30.5480   13.8670  -19.7500 H   0  0  0  0  0  0  0  0  0  0  0  0
  -31.4350   15.6590  -20.0910 C   0  0  0  0  0  0  0  0  0  0  0  0
  -31.3010   16.8620  -20.0160 O   0  0  0  0  0  0  0  0  0  0  0  0
  -29.1960   15.4110  -19.1630 C   0  0  0  0  0  0  0  0  0  0  0  0
  -28.0180   14.5260  -19.5730 C   0  0  1  0  0  0  0  0  0  0  0  0
  -27.8420   13.4020  -18.5490 C   0  0  0  0  0  0  0  0  0  0  0  0
  -28.3850   13.8590  -17.1940 C   0  0  0  0  0  0  0  0  0  0  0  0
  -26.3570   13.0610  -18.4160 C   0  0  0  0  0  0  0  0  0  0  0  0
  -28.2810   13.9460  -20.8970 N   0  0  0  0  0  0  0  0  0  0  0  0
  -29.1780   14.3020  -21.2230 H   0  0  0  0  0  0  0  0  0  0  0  0
  -26.0160   14.8520  -21.1160 C   0  0  0  0  0  0  0  0  0  0  0  0
  -27.2550   14.3580  -21.8650 C   0  0  0  0  0  0  0  0  0  0  0  0
  -28.3740   12.4820  -20.8210 C   0  0  0  0  0  0  0  0  0  0  0  0
  -28.5170   11.9070  -22.2320 C   0  0  0  0  0  0  0  0  0  0  0  0
  -32.7120   15.0750  -20.6390 C   0  0  0  0  0  0  0  0  0  0  0  0
  -32.7220   13.6270  -20.4160 N   0  0  0  0  0  0  0  0  0  0  0  0
  -33.2790   13.0300  -19.3450 C   0  0  0  0  0  0  0  0  0  0  0  0
  -33.0520   11.5440  -19.5390 C   0  0  1  0  0  0  0  0  0  0  0  0
  -34.3870   10.8030  -19.6310 C   0  0  0  0  0  0  0  0  0  0  0  0
  -32.3260   11.4690  -20.8180 N   0  0  0  0  0  0  0  0  0  0  0  0
  -33.8430   13.5700  -18.4170 O   0  0  0  0  0  0  0  0  0  0  0  0
  -32.1850   12.7340  -21.2560 C   0  0  0  0  0  0  0  0  0  0  0  0
  -31.6300   13.0320  -22.2950 O   0  0  0  0  0  0  0  0  0  0  0  0
  -32.2000   10.9760  -18.4030 C   0  0  0  0  0  0  0  0  0  0  0  0
  -31.5060   11.9710  -17.4730 C   0  0  0  0  0  0  0  0  0  0  0  0
  -30.6850   11.1740  -18.4890 C   0  0  0  0  0  0  0  0  0  0  0  0
  1  5  1  0  0  0  0
  2  1  1  0  0  0  0
  3  4  2  0  0  0  0
  3  1  1  0  0  0  0
  6 10  1  6  0  0  0
  6  5  1  0  0  0  0
  6  7  1  0  0  0  0
  7  9  1  0  0  0  0
  7  8  1  0  0  0  0
 10 14  1  0  0  0  0
 11 10  1  0  0  0  0
 13 12  1  0  0  0  0
 13 10  1  0  0  0  0
 15 14  1  0  0  0  0
 16 17  1  0  0  0  0
 16  3  1  0  0  0  0
 17 18  1  0  0  0  0
 18 22  2  0  0  0  0
 19 20  1  6  0  0  0
 19 18  1  0  0  0  0
 19 25  1  0  0  0  0
 21 19  1  0  0  0  0
 23 21  1  0  0  0  0
 23 17  1  0  0  0  0
 24 23  2  0  0  0  0
 25 26  1  0  0  0  0
 27 25  1  0  0  0  0
 27 26  1  0  0  0  0
M  END
>  <MODEL>
1

>  <REMARK>
 VINA RESULT:      -5.6      0.000      0.000
  Name = ZINC31381385
                            x       y       z     vdW  Elec       q    Type
                         _______ _______ _______ _____ _____    ______ ____

>  <TORSDO>
F 9

>  <vina_score>
-5.6

$$$$
ZINC29496759
 OpenBabel01091702163D

 22 22  0  0  1  0  0  0  0  0999 V2000
  -30.1840   13.3830  -19.9980 N   0  0  0  0  0  0  0  0  0  0  0  0
  -31.0550   12.7780  -20.8290 C   0  0  0  0  0  0  0  0  0  0  0  0
  -30.7280   11.7730  -21.4240 O   0  0  0  0  0  0  0  0  0  0  0  0
  -28.8430   12.8260  -19.8110 C   0  0  2  0  0  0  0  0  0  0  0  0
  -28.1800   13.4930  -18.5940 C   0  0  0  0  0  0  0  0  0  0  0  0
  -26.6670   13.1270  -18.6040 C   0  0  0  0  0  0  0  0  0  0  0  0
  -26.2980   13.2740  -20.4030 S   0  0  0  0  0  0  0  0  0  0  0  0
  -25.8350   14.5900  -20.6740 O   0  0  0  0  0  0  0  0  0  0  0  0
  -25.5130   12.1600  -20.8070 O   0  0  0  0  0  0  0  0  0  0  0  0
  -27.9970   13.0860  -21.0810 C   0  0  0  0  0  0  0  0  0  0  0  0
  -30.5800   14.5970  -19.2800 C   0  0  0  0  0  0  0  0  0  0  0  0
  -31.2090   16.8450  -20.1710 C   0  0  0  0  0  0  0  0  0  0  0  0
  -30.0750   15.8260  -20.0390 C   0  0  0  0  0  0  0  0  0  0  0  0
  -32.4360   13.3510  -21.0220 C   0  0  0  0  0  0  0  0  0  0  0  0
  -33.6720   12.1290  -20.5200 S   0  0  0  0  0  0  0  0  0  0  0  0
  -33.2650   11.9630  -18.8140 C   0  0  0  0  0  0  0  0  0  0  0  0
  -33.5210   12.9370  -17.9850 N   0  0  0  0  0  0  0  0  0  0  0  0
  -33.9430   13.7640  -18.3120 H   0  0  0  0  0  0  0  0  0  0  0  0
  -33.1820   12.7990  -16.5670 C   0  0  0  0  0  0  0  0  0  0  0  0
  -32.6750   10.8070  -18.3570 N   0  0  0  0  0  0  0  0  0  0  0  0
  -33.2290   10.0160  -18.1620 H   0  0  0  0  0  0  0  0  0  0  0  0
  -31.7000   10.7710  -18.2240 H   0  0  0  0  0  0  0  0  0  0  0  0
  1 11  1  0  0  0  0
  2  1  1  0  0  0  0
  3  2  2  0  0  0  0
  4  1  1  6  0  0  0
  4  5  1  0  0  0  0
  6  5  1  0  0  0  0
  7  6  1  0  0  0  0
  8  7  2  0  0  0  0
  9  7  2  0  0  0  0
 10  7  1  0  0  0  0
 10  4  1  0  0  0  0
 12 13  1  0  0  0  0
 13 11  1  0  0  0  0
 14  2  1  0  0  0  0
 14 15  1  0  0  0  0
 15 16  1  0  0  0  0
 16 20  2  0  0  0  0
 16 17  1  0  0  0  0
 17 19  1  0  0  0  0
 18 17  1  0  0  0  0
 20 22  1  0  0  0  0
 20 21  1  0  0  0  0
M  END
>  <MODEL>
1

>  <REMARK>
 VINA RESULT:      -5.6      0.000      0.000
  Name = ZINC29496759
                            x       y       z     vdW  Elec       q    Type
                         _______ _______ _______ _____ _____    ______ ____

>  <TORSDO>
F 7

>  <vina_score>
-5.6

$$$$
ZINC01771393
 OpenBabel01091702173D

 19 19  0  0  1  0  0  0  0  0999 V2000
  -29.6600   13.3100  -21.6110 N   0  0  0  0  0  0  0  0  0  0  0  0
  -29.2200   13.0970  -22.5050 H   0  0  0  0  0  0  0  0  0  0  0  0
  -30.4300   13.9660  -21.7470 H   0  0  0  0  0  0  0  0  0  0  0  0
  -28.6590   13.9160  -20.7140 C   0  0  1  0  0  0  0  0  0  0  0  0
  -29.3950   14.6890  -19.6020 C   0  0  0  0  0  0  0  0  0  0  0  0
  -28.6970   13.9710  -18.0560 S   0  0  0  0  0  0  0  0  0  0  0  0
  -27.1910   13.1890  -18.7850 C   0  0  0  0  0  0  0  0  0  0  0  0
  -29.5670   12.9550  -17.5780 O   0  0  0  0  0  0  0  0  0  0  0  0
  -28.3010   15.0260  -17.1890 O   0  0  0  0  0  0  0  0  0  0  0  0
  -27.7500   12.8070  -20.1840 C   0  0  2  0  0  0  0  0  0  0  0  0
  -26.6630   12.6140  -21.0920 O   0  0  0  0  0  0  0  0  0  0  0  0
  -26.9120   12.9450  -21.9690 H   0  0  0  0  0  0  0  0  0  0  0  0
  -30.1840   12.0620  -21.0240 C   0  0  0  0  0  0  0  0  0  0  0  0
  -31.6730   11.9410  -21.3510 C   0  0  0  0  0  0  0  0  0  0  0  0
  -32.3260   13.3220  -21.2720 C   0  0  0  0  0  0  0  0  0  0  0  0
  -34.1880   12.0130  -20.4470 C   0  0  0  0  0  0  0  0  0  0  0  0
  -33.4300   13.2730  -20.2900 N   0  0  0  0  0  0  0  0  0  0  0  0
  -34.0570   14.0600  -20.4570 H   0  0  0  0  0  0  0  0  0  0  0  0
  -32.8900   13.3710  -18.9170 C   0  0  0  0  0  0  0  0  0  0  0  0
  1 13  1  0  0  0  0
  2  1  1  0  0  0  0
  3  1  1  0  0  0  0
  4  1  1  6  0  0  0
  4 10  1  0  0  0  0
  4  5  1  0  0  0  0
  5  6  1  0  0  0  0
  6  8  2  0  0  0  0
  6  9  2  0  0  0  0
  7  6  1  0  0  0  0
 10 11  1  6  0  0  0
 10  7  1  0  0  0  0
 12 11  1  0  0  0  0
 14 15  1  0  0  0  0
 14 13  1  0  0  0  0
 15 17  1  0  0  0  0
 16 17  1  0  0  0  0
 17 19  1  0  0  0  0
 18 17  1  0  0  0  0
M  END
>  <MODEL>
1

>  <REMARK>
 VINA RESULT:      -5.6      0.000      0.000
  Name = ZINC01771393
                            x       y       z     vdW  Elec       q    Type
                         _______ _______ _______ _____ _____    ______ ____

>  <TORSDO>
F 6

>  <vina_score>
-5.6

$$$$
ZINC09325686
 OpenBabel01091701543D

 27 28  0  0  1  0  0  0  0  0999 V2000
  -32.8940   11.9160  -19.8750 C   0  0  1  0  0  0  0  0  0  0  0  0
  -33.7580   11.5830  -18.7260 N   0  0  0  0  0  0  0  0  0  0  0  0
  -34.0840   12.4470  -18.2950 H   0  0  0  0  0  0  0  0  0  0  0  0
  -34.5530   11.0330  -19.0510 H   0  0  0  0  0  0  0  0  0  0  0  0
  -33.0030   10.8030  -17.7270 C   0  0  0  0  0  0  0  0  0  0  0  0
  -32.4870   11.7470  -16.6390 C   0  0  0  0  0  0  0  0  0  0  0  0
  -33.5800   12.7540  -16.2760 C   0  0  0  0  0  0  0  0  0  0  0  0
  -34.4250   12.1960  -15.2170 N   0  0  0  0  0  0  0  0  0  0  0  0
  -34.5710   10.8720  -14.9070 C   0  0  0  0  0  0  0  0  0  0  0  0
  -35.4320   10.8050  -13.8740 C   0  0  0  0  0  0  0  0  0  0  0  0
  -35.8100   12.0550  -13.5670 N   0  0  0  0  0  0  0  0  0  0  0  0
  -35.2100   12.8940  -14.3670 C   0  0  0  0  0  0  0  0  0  0  0  0
  -33.3890   11.1940  -21.1010 C   0  0  0  0  0  0  0  0  0  0  0  0
  -32.5600   10.9830  -22.1360 O   0  0  0  0  0  0  0  0  0  0  0  0
  -34.5320   10.8050  -21.1550 O   0  0  0  0  0  0  0  0  0  0  0  0
  -32.9420   13.4260  -20.1180 C   0  0  0  0  0  0  0  0  0  0  0  0
  -30.5970   13.2650  -19.3470 N   0  0  0  0  0  0  0  0  0  0  0  0
  -30.7580   12.3130  -19.1540 H   0  0  0  0  0  0  0  0  0  0  0  0
  -31.5710   14.0130  -19.9030 C   0  0  0  0  0  0  0  0  0  0  0  0
  -31.3440   15.1590  -20.2300 O   0  0  0  0  0  0  0  0  0  0  0  0
  -27.9340   15.0300  -17.5270 C   0  0  0  0  0  0  0  0  0  0  0  0
  -29.1600   14.4680  -17.8230 C   0  0  0  0  0  0  0  0  0  0  0  0
  -29.3580   13.8410  -19.0470 C   0  0  0  0  0  0  0  0  0  0  0  0
  -28.3250   13.7920  -19.9730 C   0  0  0  0  0  0  0  0  0  0  0  0
  -27.1000   14.3560  -19.6710 C   0  0  0  0  0  0  0  0  0  0  0  0
  -25.8060   14.2900  -20.8260 Cl  0  0  0  0  0  0  0  0  0  0  0  0
  -26.9050   14.9750  -18.4480 C   0  0  0  0  0  0  0  0  0  0  0  0
  1 13  1  6  0  0  0
  1  2  1  0  0  0  0
  2  3  1  0  0  0  0
  2  5  1  0  0  0  0
  4  2  1  0  0  0  0
  5  6  1  0  0  0  0
  6  7  1  0  0  0  0
  7  8  1  0  0  0  0
  8  9  1  0  0  0  0
  8 12  1  0  0  0  0
  9 10  2  0  0  0  0
 10 11  1  0  0  0  0
 12 11  2  0  0  0  0
 14 13  2  0  0  0  0
 15 13  1  0  0  0  0
 16 19  1  0  0  0  0
 16  1  1  0  0  0  0
 17 18  1  0  0  0  0
 17 23  1  0  0  0  0
 19 17  1  0  0  0  0
 20 19  2  0  0  0  0
 22 21  1  0  0  0  0
 23 22  2  0  0  0  0
 24 25  2  0  0  0  0
 24 23  1  0  0  0  0
 25 27  1  0  0  0  0
 26 25  1  0  0  0  0
 27 21  2  0  0  0  0
M  END
>  <MODEL>
1

>  <REMARK>
 VINA RESULT:      -5.6      0.000      0.000
  Name = ZINC09325686
                            x       y       z     vdW  Elec       q    Type
                         _______ _______ _______ _____ _____    ______ ____

>  <TORSDO>
F 9

>  <vina_score>
-5.6

$$$$
ZINC29587161
 OpenBabel01091701553D

 25 26  0  0  1  0  0  0  0  0999 V2000
  -30.9580   10.8040  -22.4890 C   0  0  0  0  0  0  0  0  0  0  0  0
  -31.4520   11.6570  -21.3480 C   0  0  0  0  0  0  0  0  0  0  0  0
  -31.3600   13.0430  -21.4320 C   0  0  0  0  0  0  0  0  0  0  0  0
  -31.8160   13.8100  -20.3770 C   0  0  0  0  0  0  0  0  0  0  0  0
  -32.3370   13.1780  -19.2850 N   0  0  0  0  0  0  0  0  0  0  0  0
  -32.4110   11.8140  -19.2490 C   0  0  0  0  0  0  0  0  0  0  0  0
  -32.9590   11.4810  -18.0870 N   0  0  0  0  0  0  0  0  0  0  0  0
  -33.2240   12.5760  -17.3850 C   0  0  0  0  0  0  0  0  0  0  0  0
  -32.8710   13.6360  -18.0730 N   0  0  0  0  0  0  0  0  0  0  0  0
  -31.9640   11.0850  -20.2790 N   0  0  0  0  0  0  0  0  0  0  0  0
  -33.8460   12.6000  -16.0130 C   0  0  0  0  0  0  0  0  0  0  0  0
  -35.1490   13.1000  -16.1010 F   0  0  0  0  0  0  0  0  0  0  0  0
  -33.0880   13.4190  -15.1710 F   0  0  0  0  0  0  0  0  0  0  0  0
  -33.8800   11.3010  -15.4930 F   0  0  0  0  0  0  0  0  0  0  0  0
  -31.7420   15.1840  -20.4240 N   0  0  0  0  0  0  0  0  0  0  0  0
  -32.4530   15.7000  -20.8700 H   0  0  0  0  0  0  0  0  0  0  0  0
  -30.6060   15.8780  -19.8130 C   0  0  0  0  0  0  0  0  0  0  0  0
  -29.3280   15.0700  -20.0490 C   0  0  1  0  0  0  0  0  0  0  0  0
  -28.6370   15.5920  -21.1850 O   0  0  0  0  0  0  0  0  0  0  0  0
  -29.0680   16.4100  -21.4780 H   0  0  0  0  0  0  0  0  0  0  0  0
  -28.4280   15.1670  -18.8160 C   0  0  0  0  0  0  0  0  0  0  0  0
  -28.3070   13.8430  -18.1920 N   0  0  0  0  0  0  0  0  0  0  0  0
  -27.4690   13.8460  -17.6100 H   0  0  0  0  0  0  0  0  0  0  0  0
  -28.1480   12.7940  -19.2080 C   0  0  0  0  0  0  0  0  0  0  0  0
  -29.4590   13.5640  -17.3230 C   0  0  0  0  0  0  0  0  0  0  0  0
  1  2  1  0  0  0  0
  2 10  2  0  0  0  0
  3  2  1  0  0  0  0
  3  4  2  0  0  0  0
  4  5  1  0  0  0  0
  5  6  1  0  0  0  0
  5  9  1  0  0  0  0
  6  7  2  0  0  0  0
  7  8  1  0  0  0  0
  8 11  1  0  0  0  0
  9  8  2  0  0  0  0
 10  6  1  0  0  0  0
 11 14  1  0  0  0  0
 11 13  1  0  0  0  0
 12 11  1  0  0  0  0
 15  4  1  0  0  0  0
 15 17  1  0  0  0  0
 16 15  1  0  0  0  0
 18 19  1  6  0  0  0
 18 17  1  0  0  0  0
 18 21  1  0  0  0  0
 20 19  1  0  0  0  0
 21 22  1  0  0  0  0
 22 23  1  0  0  0  0
 22 25  1  0  0  0  0
 24 22  1  0  0  0  0
M  END
>  <MODEL>
1

>  <REMARK>
 VINA RESULT:      -5.6      0.000      0.000
  Name = ZINC29587161
                            x       y       z     vdW  Elec       q    Type
                         _______ _______ _______ _____ _____    ______ ____

>  <TORSDO>
F 7

>  <vina_score>
-5.6

$$$$
ZINC04650547
 OpenBabel01091701563D

 25 25  0  0  1  0  0  0  0  0999 V2000
  -29.4600   15.4930  -18.7200 C   0  0  0  0  0  0  0  0  0  0  0  0
  -29.5050   13.9900  -18.6340 C   0  0  0  0  0  0  0  0  0  0  0  0
  -28.5040   13.3710  -18.3640 O   0  0  0  0  0  0  0  0  0  0  0  0
  -30.7990   13.2590  -18.8870 C   0  0  2  0  0  0  0  0  0  0  0  0
  -31.6590   14.0320  -19.8640 C   0  0  0  0  0  0  0  0  0  0  0  0
  -32.1000   15.1450  -19.7160 O   0  0  0  0  0  0  0  0  0  0  0  0
  -31.8560   13.1430  -21.0450 C   0  0  0  0  0  0  0  0  0  0  0  0
  -32.5020   13.4410  -22.0280 O   0  0  0  0  0  0  0  0  0  0  0  0
  -31.2210   11.9760  -20.8810 N   0  0  0  0  0  0  0  0  0  0  0  0
  -30.8460   11.9540  -18.0730 C   0  0  0  0  0  0  0  0  0  0  0  0
  -32.0490   11.9570  -17.1660 C   0  0  0  0  0  0  0  0  0  0  0  0
  -32.3870   13.1100  -16.4840 C   0  0  0  0  0  0  0  0  0  0  0  0
  -33.4990   13.1030  -15.6550 C   0  0  0  0  0  0  0  0  0  0  0  0
  -34.2240   11.9280  -15.5340 C   0  0  0  0  0  0  0  0  0  0  0  0
  -33.8220   10.8120  -16.2420 C   0  0  0  0  0  0  0  0  0  0  0  0
  -32.7620   10.8560  -17.0260 N   0  0  0  0  0  0  0  0  0  0  0  0
  -31.2170   10.8930  -21.8670 C   0  0  0  0  0  0  0  0  0  0  0  0
  -29.8370   10.8050  -22.5230 C   0  0  0  0  0  0  0  0  0  0  0  0
  -28.8710   11.5800  -21.7230 N   0  0  0  0  0  0  0  0  0  0  0  0
  -29.3590   12.0090  -20.9360 H   0  0  0  0  0  0  0  0  0  0  0  0
  -28.1400   10.9560  -21.3800 H   0  0  0  0  0  0  0  0  0  0  0  0
  -28.2590   12.6410  -22.5450 C   0  0  0  0  0  0  0  0  0  0  0  0
  -27.4250   13.5550  -21.6450 C   0  0  0  0  0  0  0  0  0  0  0  0
  -27.8320   14.9110  -21.8340 O   0  0  0  0  0  0  0  0  0  0  0  0
  -27.1220   15.4020  -22.2790 H   0  0  0  0  0  0  0  0  0  0  0  0
  1  2  1  0  0  0  0
  2  3  2  0  0  0  0
  4  5  1  1  0  0  0
  4  2  1  0  0  0  0
  4 10  1  0  0  0  0
  5  6  2  0  0  0  0
  7  9  1  0  0  0  0
  7  5  1  0  0  0  0
  8  7  2  0  0  0  0
 10 11  1  0  0  0  0
 11 16  2  0  0  0  0
 11 12  1  0  0  0  0
 12 13  2  0  0  0  0
 13 14  1  0  0  0  0
 15 14  2  0  0  0  0
 16 15  1  0  0  0  0
 17  9  1  0  0  0  0
 18 17  1  0  0  0  0
 18 19  1  0  0  0  0
 19 21  1  0  0  0  0
 19 20  1  0  0  0  0
 22 19  1  0  0  0  0
 22 23  1  0  0  0  0
 24 23  1  0  0  0  0
 25 24  1  0  0  0  0
M  END
>  <MODEL>
1

>  <REMARK>
 VINA RESULT:      -5.6      0.000      0.000
  Name = ZINC04650547
                            x       y       z     vdW  Elec       q    Type
                         _______ _______ _______ _____ _____    ______ ____

>  <TORSDO>
F 7

>  <vina_score>
-5.6

$$$$
ZINC04992018
 OpenBabel01091702023D

 22 23  0  0  0  0  0  0  0  0999 V2000
  -29.4130   12.5650  -19.5060 C   0  0  0  0  0  0  0  0  0  0  0  0
  -29.4020   12.1440  -20.7350 N   0  0  0  0  0  0  0  0  0  0  0  0
  -33.0930   12.9340  -17.4160 C   0  0  0  0  0  0  0  0  0  0  0  0
  -31.8930   13.1190  -16.7440 C   0  0  0  0  0  0  0  0  0  0  0  0
  -30.6960   12.9960  -17.4190 C   0  0  0  0  0  0  0  0  0  0  0  0
  -30.6910   12.6930  -18.7830 C   0  0  0  0  0  0  0  0  0  0  0  0
  -31.8990   12.5060  -19.4570 C   0  0  0  0  0  0  0  0  0  0  0  0
  -33.0960   12.6260  -18.7740 C   0  0  0  0  0  0  0  0  0  0  0  0
  -34.2460   12.7870  -15.3410 C   0  0  0  0  0  0  0  0  0  0  0  0
  -34.2700   13.0520  -16.7450 O   0  0  0  0  0  0  0  0  0  0  0  0
  -34.2730   12.4450  -19.4290 O   0  0  0  0  0  0  0  0  0  0  0  0
  -34.2020   12.1720  -20.8290 C   0  0  0  0  0  0  0  0  0  0  0  0
  -28.1870   12.0220  -21.4220 N   0  0  0  0  0  0  0  0  0  0  0  0
  -28.0940   11.3600  -22.1450 H   0  0  0  0  0  0  0  0  0  0  0  0
  -27.1170   12.8350  -21.0860 C   0  0  0  0  0  0  0  0  0  0  0  0
  -25.9880   12.4520  -20.5370 N   0  0  0  0  0  0  0  0  0  0  0  0
  -25.2180   13.4670  -20.3680 N   0  0  0  0  0  0  0  0  0  0  0  0
  -25.8090   14.5510  -20.7870 C   0  0  0  0  0  0  0  0  0  0  0  0
  -27.0370   14.1870  -21.2620 N   0  0  0  0  0  0  0  0  0  0  0  0
  -27.9890   15.0060  -21.8010 N   0  0  0  0  0  0  0  0  0  0  0  0
  -27.7280   15.8700  -22.1950 H   0  0  0  0  0  0  0  0  0  0  0  0
  -28.9350   14.7320  -21.7970 H   0  0  0  0  0  0  0  0  0  0  0  0
  1  6  1  0  0  0  0
  2  1  2  0  0  0  0
  3 10  1  0  0  0  0
  3  4  1  0  0  0  0
  5  4  2  0  0  0  0
  6  5  1  0  0  0  0
  7  6  2  0  0  0  0
  7  8  1  0  0  0  0
  8  3  2  0  0  0  0
 10  9  1  0  0  0  0
 11  8  1  0  0  0  0
 12 11  1  0  0  0  0
 13 15  1  0  0  0  0
 13  2  1  0  0  0  0
 14 13  1  0  0  0  0
 15 16  2  0  0  0  0
 16 17  1  0  0  0  0
 18 17  2  0  0  0  0
 19 15  1  0  0  0  0
 19 18  1  0  0  0  0
 20 22  1  0  0  0  0
 20 19  1  0  0  0  0
 21 20  1  0  0  0  0
M  END
>  <MODEL>
1

>  <REMARK>
 VINA RESULT:      -5.5      0.000      0.000
  Name = ZINC04992018
                            x       y       z     vdW  Elec       q    Type
                         _______ _______ _______ _____ _____    ______ ____

>  <TORSDO>
F 6

>  <vina_score>
-5.5

$$$$
ZINC02033672
 OpenBabel01091702053D

 22 22  0  0  1  0  0  0  0  0999 V2000
  -31.3330   10.8030  -18.2810 C   0  0  0  0  0  0  0  0  0  0  0  0
  -30.2940   10.9770  -19.2990 N   0  0  0  0  0  0  0  0  0  0  0  0
  -30.1360   10.2720  -19.9680 H   0  0  0  0  0  0  0  0  0  0  0  0
  -27.5180   13.9870  -21.7880 C   0  0  0  0  0  0  0  0  0  0  0  0
  -28.1980   13.5890  -20.5030 C   0  0  0  0  0  0  0  0  0  0  0  0
  -28.0610   14.3690  -19.3660 C   0  0  0  0  0  0  0  0  0  0  0  0
  -28.7030   13.9680  -18.2050 C   0  0  0  0  0  0  0  0  0  0  0  0
  -28.5840   14.7850  -16.9460 C   0  0  0  0  0  0  0  0  0  0  0  0
  -29.4230   12.8580  -18.2180 N   0  0  0  0  0  0  0  0  0  0  0  0
  -29.5330   12.1330  -19.3210 C   0  0  0  0  0  0  0  0  0  0  0  0
  -28.9280   12.4870  -20.4460 N   0  0  0  0  0  0  0  0  0  0  0  0
  -32.7090   10.8160  -18.9500 C   0  0  0  0  0  0  0  0  0  0  0  0
  -32.5570   11.2020  -20.4220 C   0  0  0  0  0  0  0  0  0  0  0  0
  -33.5080   12.3560  -20.7470 C   0  0  0  0  0  0  0  0  0  0  0  0
  -32.7020   13.5590  -21.2410 C   0  0  2  0  0  0  0  0  0  0  0  0
  -31.5020   13.1100  -21.9690 N   0  0  0  0  0  0  0  0  0  0  0  0
  -31.2380   13.8160  -22.6570 H   0  0  0  0  0  0  0  0  0  0  0  0
  -30.7350   12.9730  -21.3100 H   0  0  0  0  0  0  0  0  0  0  0  0
  -31.7020   12.2310  -22.4450 H   0  0  0  0  0  0  0  0  0  0  0  0
  -32.2730   14.3950  -20.0620 C   0  0  0  0  0  0  0  0  0  0  0  0
  -31.3220   15.3300  -20.2140 O   0  0  0  0  0  0  0  0  0  0  0  0
  -32.7860   14.2240  -18.9820 O   0  0  0  0  0  0  0  0  0  0  0  0
  2  1  1  0  0  0  0
  3  2  1  0  0  0  0
  4  5  1  0  0  0  0
  5 11  2  0  0  0  0
  5  6  1  0  0  0  0
  6  7  2  0  0  0  0
  7  8  1  0  0  0  0
  9  7  1  0  0  0  0
 10  2  1  0  0  0  0
 10  9  2  0  0  0  0
 11 10  1  0  0  0  0
 12  1  1  0  0  0  0
 13 12  1  0  0  0  0
 14 13  1  0  0  0  0
 15 16  1  1  0  0  0
 15 14  1  0  0  0  0
 15 20  1  0  0  0  0
 16 18  1  0  0  0  0
 17 16  1  0  0  0  0
 19 16  1  0  0  0  0
 20 22  1  0  0  0  0
 21 20  2  0  0  0  0
M  END
>  <MODEL>
1

>  <REMARK>
 VINA RESULT:      -5.5      0.000      0.000
  Name = ZINC02033672
                            x       y       z     vdW  Elec       q    Type
                         _______ _______ _______ _____ _____    ______ ____

>  <TORSDO>
F 8

>  <vina_score>
-5.5

$$$$
ZINC02019924
 OpenBabel01091702163D

 27 27  0  0  0  0  0  0  0  0999 V2000
  -30.9270   12.2560  -17.8830 O   0  0  0  0  0  0  0  0  0  0  0  0
  -31.9190   11.6460  -17.2140 C   0  0  0  0  0  0  0  0  0  0  0  0
  -31.6610   10.9010  -16.2980 O   0  0  0  0  0  0  0  0  0  0  0  0
  -33.3540   11.8900  -17.6050 C   0  0  0  0  0  0  0  0  0  0  0  0
  -33.6980   11.0470  -18.8340 C   0  0  0  0  0  0  0  0  0  0  0  0
  -33.9510   11.9530  -20.0110 C   0  0  0  0  0  0  0  0  0  0  0  0
  -35.0800   12.2910  -20.2810 O   0  0  0  0  0  0  0  0  0  0  0  0
  -32.9240   12.3850  -20.7600 O   0  0  0  0  0  0  0  0  0  0  0  0
  -32.8400   13.8140  -21.0020 C   0  0  0  0  0  0  0  0  0  0  0  0
  -32.0390   14.4750  -19.8790 C   0  0  0  0  0  0  0  0  0  0  0  0
  -31.3250   15.6450  -20.4300 N   0  0  0  0  0  0  0  0  0  0  0  0
  -31.1140   15.4720  -21.4130 H   0  0  0  0  0  0  0  0  0  0  0  0
  -30.0580   15.8560  -19.6970 C   0  0  0  0  0  0  0  0  0  0  0  0
  -32.1750   16.8500  -20.3270 C   0  0  0  0  0  0  0  0  0  0  0  0
  -30.0370   11.4100  -18.6570 C   0  0  0  0  0  0  0  0  0  0  0  0
  -25.9380   14.6920  -20.9650 C   0  0  0  0  0  0  0  0  0  0  0  0
  -27.0210   13.8210  -20.3850 C   0  0  0  0  0  0  0  0  0  0  0  0
  -27.8770   13.1320  -21.2310 C   0  0  0  0  0  0  0  0  0  0  0  0
  -28.8720   12.3310  -20.6810 C   0  0  0  0  0  0  0  0  0  0  0  0
  -28.9720   12.2590  -19.3010 C   0  0  0  0  0  0  0  0  0  0  0  0
  -28.0790   12.9710  -18.5220 C   0  0  0  0  0  0  0  0  0  0  0  0
  -27.1460   13.7210  -19.0760 N   0  0  0  0  0  0  0  0  0  0  0  0
  -27.7440   13.2380  -22.5810 O   0  0  0  0  0  0  0  0  0  0  0  0
  -28.2390   12.6770  -23.1460 H   0  0  0  0  0  0  0  0  0  0  0  0
  -29.8230   11.5660  -21.5650 C   0  0  0  0  0  0  0  0  0  0  0  0
  -30.4800   12.4720  -22.4540 O   0  0  0  0  0  0  0  0  0  0  0  0
  -29.8790   12.7040  -23.1790 H   0  0  0  0  0  0  0  0  0  0  0  0
  1  2  1  0  0  0  0
  2  3  2  0  0  0  0
  4  2  1  0  0  0  0
  5  4  1  0  0  0  0
  6  5  1  0  0  0  0
  7  6  2  0  0  0  0
  8  6  1  0  0  0  0
  9  8  1  0  0  0  0
  9 10  1  0  0  0  0
 11 14  1  0  0  0  0
 11 10  1  0  0  0  0
 11 13  1  0  0  0  0
 12 11  1  0  0  0  0
 15  1  1  0  0  0  0
 16 17  1  0  0  0  0
 17 22  2  0  0  0  0
 18 19  2  0  0  0  0
 18 17  1  0  0  0  0
 19 20  1  0  0  0  0
 20 15  1  0  0  0  0
 20 21  2  0  0  0  0
 22 21  1  0  0  0  0
 23 18  1  0  0  0  0
 24 23  1  0  0  0  0
 25 19  1  0  0  0  0
 26 25  1  0  0  0  0
 27 26  1  0  0  0  0
M  END
>  <MODEL>
1

>  <REMARK>
 VINA RESULT:      -5.5      0.000      0.000
  Name = ZINC02019924
                            x       y       z     vdW  Elec       q    Type
                         _______ _______ _______ _____ _____    ______ ____

>  <TORSDO>
F 13

>  <vina_score>
-5.5

$$$$
ZINC02861235
 OpenBabel01091701553D

 29 30  0  0  1  0  0  0  0  0999 V2000
  -30.7770   11.7080  -22.0270 C   0  0  0  0  0  0  0  0  0  0  0  0
  -30.0160   12.9660  -21.9000 N   0  0  0  0  0  0  0  0  0  0  0  0
  -29.0490   12.7990  -22.1800 H   0  0  0  0  0  0  0  0  0  0  0  0
  -30.4360   13.6750  -22.5010 H   0  0  0  0  0  0  0  0  0  0  0  0
  -30.0360   13.4380  -20.5030 C   0  0  1  0  0  0  0  0  0  0  0  0
  -28.6470   13.3370  -19.9270 C   0  0  0  0  0  0  0  0  0  0  0  0
  -27.5500   13.3050  -20.7680 C   0  0  0  0  0  0  0  0  0  0  0  0
  -26.2770   13.2130  -20.2390 C   0  0  0  0  0  0  0  0  0  0  0  0
  -26.0990   13.1520  -18.8700 C   0  0  0  0  0  0  0  0  0  0  0  0
  -27.1960   13.1840  -18.0290 C   0  0  0  0  0  0  0  0  0  0  0  0
  -28.4700   13.2770  -18.5580 C   0  0  0  0  0  0  0  0  0  0  0  0
  -30.5010   14.8950  -20.4630 C   0  0  0  0  0  0  0  0  0  0  0  0
  -32.0080   14.9420  -20.4550 C   0  0  0  0  0  0  0  0  0  0  0  0
  -32.7070   14.1590  -21.2900 O   0  0  0  0  0  0  0  0  0  0  0  0
  -32.5840   15.6840  -19.6960 O   0  0  0  0  0  0  0  0  0  0  0  0
  -30.8700   11.0380  -20.6540 C   0  0  0  0  0  0  0  0  0  0  0  0
  -32.3400   10.8040  -20.3000 C   0  0  1  0  0  0  0  0  0  0  0  0
  -33.2330   12.7150  -16.5840 C   0  0  0  0  0  0  0  0  0  0  0  0
  -34.1690   12.7140  -17.6070 C   0  0  0  0  0  0  0  0  0  0  0  0
  -33.8790   12.0960  -18.8070 C   0  0  0  0  0  0  0  0  0  0  0  0
  -32.6550   11.4790  -18.9890 C   0  0  0  0  0  0  0  0  0  0  0  0
  -31.7220   11.4730  -17.9690 C   0  0  0  0  0  0  0  0  0  0  0  0
  -32.0060   12.0950  -16.7690 C   0  0  0  0  0  0  0  0  0  0  0  0
  -33.5160   13.3220  -15.4010 O   0  0  0  0  0  0  0  0  0  0  0  0
  -34.7180   12.9240  -14.7380 C   0  0  0  0  0  0  0  0  0  0  0  0
  -35.9220   11.0120  -13.6710 C   0  0  0  0  0  0  0  0  0  0  0  0
  -34.6560   11.4280  -14.4250 C   0  0  0  0  0  0  0  0  0  0  0  0
  -33.1710   11.3500  -21.3270 O   0  0  0  0  0  0  0  0  0  0  0  0
  -33.0690   12.3140  -21.3480 H   0  0  0  0  0  0  0  0  0  0  0  0
  1  2  1  0  0  0  0
  1 16  1  0  0  0  0
  3  2  1  0  0  0  0
  4  2  1  0  0  0  0
  5  2  1  6  0  0  0
  5 12  1  0  0  0  0
  5  6  1  0  0  0  0
  6 11  2  0  0  0  0
  7  8  2  0  0  0  0
  7  6  1  0  0  0  0
  8  9  1  0  0  0  0
  9 10  2  0  0  0  0
 11 10  1  0  0  0  0
 12 13  1  0  0  0  0
 13 15  1  0  0  0  0
 14 13  2  0  0  0  0
 16 17  1  0  0  0  0
 17 28  1  6  0  0  0
 17 21  1  0  0  0  0
 18 24  1  0  0  0  0
 19 18  2  0  0  0  0
 20 19  1  0  0  0  0
 21 20  2  0  0  0  0
 21 22  1  0  0  0  0
 22 23  2  0  0  0  0
 23 18  1  0  0  0  0
 24 25  1  0  0  0  0
 25 27  1  0  0  0  0
 27 26  1  0  0  0  0
 29 28  1  0  0  0  0
M  END
>  <MODEL>
1

>  <REMARK>
 VINA RESULT:      -5.5      0.000      0.000
  Name = ZINC02861235
                            x       y       z     vdW  Elec       q    Type
                         _______ _______ _______ _____ _____    ______ ____

>  <TORSDO>
F 12

>  <vina_score>
-5.5

$$$$
ZINC06509720
 OpenBabel01091702163D

 26 27  0  0  0  0  0  0  0  0999 V2000
  -28.9910   14.1700  -19.0310 C   0  0  0  0  0  0  0  0  0  0  0  0
  -29.9560   13.1500  -19.0950 C   0  0  0  0  0  0  0  0  0  0  0  0
  -31.2210   13.4620  -19.5040 N   0  0  0  0  0  0  0  0  0  0  0  0
  -31.5540   14.7170  -19.8440 C   0  0  0  0  0  0  0  0  0  0  0  0
  -30.6750   15.7320  -19.8020 N   0  0  0  0  0  0  0  0  0  0  0  0
  -31.1070   17.0780  -20.1870 C   0  0  0  0  0  0  0  0  0  0  0  0
  -32.6930   14.9440  -20.2010 O   0  0  0  0  0  0  0  0  0  0  0  0
  -29.4000   15.5270  -19.4110 C   0  0  0  0  0  0  0  0  0  0  0  0
  -28.6070   16.4500  -19.3740 O   0  0  0  0  0  0  0  0  0  0  0  0
  -29.6370   11.8730  -18.7490 N   0  0  0  0  0  0  0  0  0  0  0  0
  -28.6930   11.6050  -18.6710 H   0  0  0  0  0  0  0  0  0  0  0  0
  -30.3520   11.2170  -18.5780 H   0  0  0  0  0  0  0  0  0  0  0  0
  -27.6700   13.8980  -18.6130 C   0  0  0  0  0  0  0  0  0  0  0  0
  -27.3650   14.0210  -17.4440 O   0  0  0  0  0  0  0  0  0  0  0  0
  -26.6390   13.4510  -19.6180 C   0  0  0  0  0  0  0  0  0  0  0  0
  -27.1020   14.3610  -21.8130 C   0  0  0  0  0  0  0  0  0  0  0  0
  -26.3640   14.5590  -20.5520 N   0  0  0  0  0  0  0  0  0  0  0  0
  -25.3630   14.5820  -20.7530 H   0  0  0  0  0  0  0  0  0  0  0  0
  -26.6540   15.4400  -20.1260 H   0  0  0  0  0  0  0  0  0  0  0  0
  -32.2340   12.4060  -19.5750 C   0  0  0  0  0  0  0  0  0  0  0  0
  -32.7990   12.1600  -18.2000 C   0  0  0  0  0  0  0  0  0  0  0  0
  -32.4370   11.0270  -17.4960 C   0  0  0  0  0  0  0  0  0  0  0  0
  -32.9510   10.8030  -16.2330 C   0  0  0  0  0  0  0  0  0  0  0  0
  -33.8370   11.7080  -15.6770 C   0  0  0  0  0  0  0  0  0  0  0  0
  -34.2040   12.8380  -16.3830 C   0  0  0  0  0  0  0  0  0  0  0  0
  -33.6850   13.0650  -17.6450 C   0  0  0  0  0  0  0  0  0  0  0  0
  1 13  1  0  0  0  0
  2  1  2  0  0  0  0
  2 10  1  0  0  0  0
  3  2  1  0  0  0  0
  4  5  1  0  0  0  0
  4  3  1  0  0  0  0
  5  8  1  0  0  0  0
  6  5  1  0  0  0  0
  7  4  2  0  0  0  0
  8  9  2  0  0  0  0
  8  1  1  0  0  0  0
 10 11  1  0  0  0  0
 10 12  1  0  0  0  0
 13 14  2  0  0  0  0
 15 13  1  0  0  0  0
 16 17  1  0  0  0  0
 17 19  1  0  0  0  0
 17 15  1  0  0  0  0
 18 17  1  0  0  0  0
 20  3  1  0  0  0  0
 20 21  1  0  0  0  0
 21 26  2  0  0  0  0
 21 22  1  0  0  0  0
 22 23  2  0  0  0  0
 23 24  1  0  0  0  0
 25 24  2  0  0  0  0
 26 25  1  0  0  0  0
M  END
>  <MODEL>
1

>  <REMARK>
 VINA RESULT:      -5.5      0.000      0.000
  Name = ZINC06509720
                            x       y       z     vdW  Elec       q    Type
                         _______ _______ _______ _____ _____    ______ ____

>  <TORSDO>
F 6

>  <vina_score>
-5.5

$$$$
ZINC12409987
 OpenBabel01091701513D

 29 30  0  0  1  0  0  0  0  0999 V2000
  -32.6900   11.5130  -17.1640 C   0  0  1  0  0  0  0  0  0  0  0  0
  -33.4250   12.8470  -17.1920 C   0  0  0  0  0  0  0  0  0  0  0  0
  -33.7170   13.2690  -18.3940 N   0  0  0  0  0  0  0  0  0  0  0  0
  -33.4140   12.6190  -19.5050 C   0  0  0  0  0  0  0  0  0  0  0  0
  -33.7140   13.4650  -16.1860 O   0  0  0  0  0  0  0  0  0  0  0  0
  -32.5990   11.1830  -18.9690 S   0  0  0  0  0  0  0  0  0  0  0  0
  -33.6850   12.9950  -20.7940 N   0  0  0  0  0  0  0  0  0  0  0  0
  -34.5710   12.8150  -21.1830 H   0  0  0  0  0  0  0  0  0  0  0  0
  -32.7160   13.6270  -21.5470 C   0  0  0  0  0  0  0  0  0  0  0  0
  -32.9270   14.8960  -21.8600 N   0  0  0  0  0  0  0  0  0  0  0  0
  -32.2640   15.3880  -22.3950 H   0  0  0  0  0  0  0  0  0  0  0  0
  -33.7480   15.3470  -21.5580 H   0  0  0  0  0  0  0  0  0  0  0  0
  -31.5910   12.9380  -21.9360 N   0  0  0  0  0  0  0  0  0  0  0  0
  -31.3190   12.1250  -21.4520 H   0  0  0  0  0  0  0  0  0  0  0  0
  -31.0590   13.2570  -22.7010 H   0  0  0  0  0  0  0  0  0  0  0  0
  -31.2950   11.6550  -16.5510 C   0  0  0  0  0  0  0  0  0  0  0  0
  -29.8520   13.2680  -17.7470 N   0  0  0  0  0  0  0  0  0  0  0  0
  -30.1040   13.9450  -17.0780 H   0  0  0  0  0  0  0  0  0  0  0  0
  -30.3050   12.0050  -17.6320 C   0  0  0  0  0  0  0  0  0  0  0  0
  -29.9160   11.1480  -18.3980 O   0  0  0  0  0  0  0  0  0  0  0  0
  -29.4450   14.5720  -19.7470 C   0  0  0  0  0  0  0  0  0  0  0  0
  -28.6200   14.9170  -20.8050 C   0  0  0  0  0  0  0  0  0  0  0  0
  -27.3800   14.3220  -20.9380 C   0  0  0  0  0  0  0  0  0  0  0  0
  -26.9610   13.3730  -20.0220 C   0  0  0  0  0  0  0  0  0  0  0  0
  -25.4050   12.6260  -20.1990 Cl  0  0  0  0  0  0  0  0  0  0  0  0
  -27.7780   13.0240  -18.9620 C   0  0  0  0  0  0  0  0  0  0  0  0
  -29.0230   13.6210  -18.8210 C   0  0  0  0  0  0  0  0  0  0  0  0
  -30.7640   16.5360  -19.9870 C   0  0  0  0  0  0  0  0  0  0  0  0
  -30.6630   15.1610  -19.6110 O   0  0  0  0  0  0  0  0  0  0  0  0
  1 16  1  6  0  0  0
  2  1  1  0  0  0  0
  2  5  2  0  0  0  0
  3  2  1  0  0  0  0
  4  6  1  0  0  0  0
  4  3  2  0  0  0  0
  6  1  1  0  0  0  0
  7  4  1  0  0  0  0
  8  7  1  0  0  0  0
  9  7  1  0  0  0  0
 10 12  1  0  0  0  0
 10  9  1  0  0  0  0
 11 10  1  0  0  0  0
 13  9  2  0  0  0  0
 13 14  1  0  0  0  0
 15 13  1  0  0  0  0
 17 19  1  0  0  0  0
 17 18  1  0  0  0  0
 19 16  1  0  0  0  0
 20 19  2  0  0  0  0
 21 29  1  0  0  0  0
 21 27  2  0  0  0  0
 22 21  1  0  0  0  0
 23 22  2  0  0  0  0
 23 24  1  0  0  0  0
 24 26  2  0  0  0  0
 25 24  1  0  0  0  0
 26 27  1  0  0  0  0
 27 17  1  0  0  0  0
 28 29  1  0  0  0  0
M  END
>  <MODEL>
1

>  <REMARK>
 VINA RESULT:      -5.5      0.000      0.000
  Name = ZINC12409987
                            x       y       z     vdW  Elec       q    Type
                         _______ _______ _______ _____ _____    ______ ____

>  <TORSDO>
F 7

>  <vina_score>
-5.5

$$$$
ZINC02538462
 OpenBabel01091701513D

 25 26  0  0  1  0  0  0  0  0999 V2000
  -30.5580   12.5710  -20.5950 C   0  0  0  0  0  0  0  0  0  0  0  0
  -30.7860   11.8190  -21.7520 C   0  0  0  0  0  0  0  0  0  0  0  0
  -29.7120   11.5310  -22.5730 C   0  0  0  0  0  0  0  0  0  0  0  0
  -28.5070   11.9720  -22.2420 N   0  0  0  0  0  0  0  0  0  0  0  0
  -28.3190   12.6830  -21.1400 C   0  0  0  0  0  0  0  0  0  0  0  0
  -29.3200   12.9770  -20.3230 N   0  0  0  0  0  0  0  0  0  0  0  0
  -33.1510   12.8020  -18.0670 N   0  0  0  0  0  0  0  0  0  0  0  0
  -32.1250   12.1440  -18.6410 C   0  0  0  0  0  0  0  0  0  0  0  0
  -31.5710   10.8100  -18.2100 C   0  0  0  0  0  0  0  0  0  0  0  0
  -31.6770   12.9060  -19.6830 C   0  0  0  0  0  0  0  0  0  0  0  0
  -32.4770   14.0650  -19.7350 C   0  0  0  0  0  0  0  0  0  0  0  0
  -32.3450   15.1880  -20.7320 C   0  0  0  0  0  0  0  0  0  0  0  0
  -33.3540   13.9960  -18.7690 N   0  0  0  0  0  0  0  0  0  0  0  0
  -33.4280   13.0570  -15.6510 C   0  0  0  0  0  0  0  0  0  0  0  0
  -33.9240   12.3430  -16.9100 C   0  0  0  0  0  0  0  0  0  0  0  0
  -26.6960   13.2460  -20.7460 S   0  0  0  0  0  0  0  0  0  0  0  0
  -26.7010   12.9890  -18.9550 C   0  0  0  0  0  0  0  0  0  0  0  0
  -26.9900   14.3160  -18.2500 C   0  0  1  0  0  0  0  0  0  0  0  0
  -27.1490   15.3720  -19.2650 N   0  0  0  0  0  0  0  0  0  0  0  0
  -27.8560   15.0880  -19.9430 H   0  0  0  0  0  0  0  0  0  0  0  0
  -27.4400   16.2380  -18.8130 H   0  0  0  0  0  0  0  0  0  0  0  0
  -26.2600   15.5200  -19.7440 H   0  0  0  0  0  0  0  0  0  0  0  0
  -28.2460   14.1840  -17.4270 C   0  0  0  0  0  0  0  0  0  0  0  0
  -28.8190   12.9800  -17.2650 O   0  0  0  0  0  0  0  0  0  0  0  0
  -28.7350   15.1600  -16.9090 O   0  0  0  0  0  0  0  0  0  0  0  0
  1  6  1  0  0  0  0
  1 10  1  0  0  0  0
  2  1  2  0  0  0  0
  3  4  2  0  0  0  0
  3  2  1  0  0  0  0
  4  5  1  0  0  0  0
  5 16  1  0  0  0  0
  5  6  2  0  0  0  0
  7 15  1  0  0  0  0
  8  9  1  0  0  0  0
  8  7  1  0  0  0  0
 10  8  2  0  0  0  0
 11 10  1  0  0  0  0
 11 13  2  0  0  0  0
 12 11  1  0  0  0  0
 13  7  1  0  0  0  0
 15 14  1  0  0  0  0
 16 17  1  0  0  0  0
 17 18  1  0  0  0  0
 18 19  1  6  0  0  0
 18 23  1  0  0  0  0
 19 21  1  0  0  0  0
 20 19  1  0  0  0  0
 22 19  1  0  0  0  0
 23 24  2  0  0  0  0
 23 25  1  0  0  0  0
M  END
>  <MODEL>
1

>  <REMARK>
 VINA RESULT:      -5.5      0.000      0.000
  Name = ZINC02538462
                            x       y       z     vdW  Elec       q    Type
                         _______ _______ _______ _____ _____    ______ ____

>  <TORSDO>
F 7

>  <vina_score>
-5.5

$$$$
ZINC02538358
 OpenBabel01091702013D

 21 21  0  0  1  0  0  0  0  0999 V2000
  -33.0790   13.3180  -19.1690 C   0  0  0  0  0  0  0  0  0  0  0  0
  -29.8670   14.8150  -19.0120 C   0  0  0  0  0  0  0  0  0  0  0  0
  -30.4630   15.6410  -19.9950 C   0  0  0  0  0  0  0  0  0  0  0  0
  -31.7220   15.1700  -20.1490 C   0  0  0  0  0  0  0  0  0  0  0  0
  -31.8610   14.1200  -19.3120 N   0  0  0  0  0  0  0  0  0  0  0  0
  -30.7740   13.9280  -18.6550 N   0  0  0  0  0  0  0  0  0  0  0  0
  -28.4920   14.9260  -18.4860 C   0  0  0  0  0  0  0  0  0  0  0  0
  -28.3050   15.3250  -17.3540 O   0  0  0  0  0  0  0  0  0  0  0  0
  -27.4450   14.5850  -19.2620 O   0  0  0  0  0  0  0  0  0  0  0  0
  -26.0670   12.9490  -20.4260 C   0  0  0  0  0  0  0  0  0  0  0  0
  -27.0960   13.1770  -19.3160 C   0  0  0  0  0  0  0  0  0  0  0  0
  -32.6350   11.6110  -18.7430 S   0  0  0  0  0  0  0  0  0  0  0  0
  -32.3680   10.8140  -20.3510 C   0  0  0  0  0  0  0  0  0  0  0  0
  -30.8770   10.8430  -20.6920 C   0  0  2  0  0  0  0  0  0  0  0  0
  -30.1080   11.0860  -19.4580 N   0  0  0  0  0  0  0  0  0  0  0  0
  -30.6990   11.5620  -18.7770 H   0  0  0  0  0  0  0  0  0  0  0  0
  -29.7940   10.1960  -19.0730 H   0  0  0  0  0  0  0  0  0  0  0  0
  -29.2980   11.6690  -19.6720 H   0  0  0  0  0  0  0  0  0  0  0  0
  -30.6150   11.9340  -21.6990 C   0  0  0  0  0  0  0  0  0  0  0  0
  -31.6190   12.4050  -22.4550 O   0  0  0  0  0  0  0  0  0  0  0  0
  -29.5010   12.3830  -21.8280 O   0  0  0  0  0  0  0  0  0  0  0  0
  1 12  1  0  0  0  0
  2  6  2  0  0  0  0
  2  7  1  0  0  0  0
  3  2  1  0  0  0  0
  4  3  2  0  0  0  0
  4  5  1  0  0  0  0
  5  1  1  0  0  0  0
  5  6  1  0  0  0  0
  7  8  2  0  0  0  0
  9  7  1  0  0  0  0
 10 11  1  0  0  0  0
 11  9  1  0  0  0  0
 13 12  1  0  0  0  0
 14 19  1  6  0  0  0
 14 13  1  0  0  0  0
 14 15  1  0  0  0  0
 15 17  1  0  0  0  0
 15 16  1  0  0  0  0
 18 15  1  0  0  0  0
 20 19  2  0  0  0  0
 21 19  1  0  0  0  0
M  END
>  <MODEL>
1

>  <REMARK>
 VINA RESULT:      -5.4      0.000      0.000
  Name = ZINC02538358
                            x       y       z     vdW  Elec       q    Type
                         _______ _______ _______ _____ _____    ______ ____

>  <TORSDO>
F 9

>  <vina_score>
-5.4

$$$$
ZINC10111680
 OpenBabel01091702053D

 23 23  0  0  0  0  0  0  0  0999 V2000
  -28.7560   14.3270  -19.1470 C   0  0  0  0  0  0  0  0  0  0  0  0
  -28.7880   13.2940  -18.2150 C   0  0  0  0  0  0  0  0  0  0  0  0
  -29.9940   12.7840  -17.7920 C   0  0  0  0  0  0  0  0  0  0  0  0
  -31.1870   13.2980  -18.3060 C   0  0  0  0  0  0  0  0  0  0  0  0
  -31.1520   14.3320  -19.2460 C   0  0  0  0  0  0  0  0  0  0  0  0
  -29.9430   14.8410  -19.6620 C   0  0  0  0  0  0  0  0  0  0  0  0
  -32.4830   12.7510  -17.8570 C   0  0  0  0  0  0  0  0  0  0  0  0
  -32.5490   11.5000  -17.3610 N   0  0  0  0  0  0  0  0  0  0  0  0
  -31.7350   10.9510  -17.2970 H   0  0  0  0  0  0  0  0  0  0  0  0
  -33.4890   13.4290  -17.9360 O   0  0  0  0  0  0  0  0  0  0  0  0
  -33.8360   10.9570  -16.9160 C   0  0  0  0  0  0  0  0  0  0  0  0
  -33.8270   10.8090  -15.3930 C   0  0  0  0  0  0  0  0  0  0  0  0
  -35.0000   11.5170  -14.8380 N   0  0  0  0  0  0  0  0  0  0  0  0
  -35.7490   11.5110  -15.5300 H   0  0  0  0  0  0  0  0  0  0  0  0
  -34.6430   12.9190  -14.5310 C   0  0  0  0  0  0  0  0  0  0  0  0
  -35.4690   10.8350  -13.6140 C   0  0  0  0  0  0  0  0  0  0  0  0
  -27.5350   14.8430  -19.5700 N   0  0  0  0  0  0  0  0  0  0  0  0
  -27.2050   15.6910  -19.1970 H   0  0  0  0  0  0  0  0  0  0  0  0
  -26.6390   14.0280  -20.6990 S   0  0  0  0  0  0  0  0  0  0  0  0
  -26.3170   12.7900  -20.0810 O   0  0  0  0  0  0  0  0  0  0  0  0
  -25.6160   14.9370  -21.0760 O   0  0  0  0  0  0  0  0  0  0  0  0
  -28.2850   12.3130  -22.0530 C   0  0  0  0  0  0  0  0  0  0  0  0
  -27.7760   13.7560  -22.0870 C   0  0  0  0  0  0  0  0  0  0  0  0
  1  2  2  0  0  0  0
  2  3  1  0  0  0  0
  4  7  1  0  0  0  0
  4  3  2  0  0  0  0
  5  4  1  0  0  0  0
  6  5  2  0  0  0  0
  6  1  1  0  0  0  0
  7  8  1  0  0  0  0
  8  9  1  0  0  0  0
  8 11  1  0  0  0  0
 10  7  2  0  0  0  0
 11 12  1  0  0  0  0
 12 13  1  0  0  0  0
 13 15  1  0  0  0  0
 13 16  1  0  0  0  0
 14 13  1  0  0  0  0
 17 18  1  0  0  0  0
 17  1  1  0  0  0  0
 19 20  2  0  0  0  0
 19 17  1  0  0  0  0
 21 19  2  0  0  0  0
 23 22  1  0  0  0  0
 23 19  1  0  0  0  0
M  END
>  <MODEL>
1

>  <REMARK>
 VINA RESULT:      -5.4      0.000      0.000
  Name = ZINC10111680
                            x       y       z     vdW  Elec       q    Type
                         _______ _______ _______ _____ _____    ______ ____

>  <TORSDO>
F 7

>  <vina_score>
-5.4

$$$$
ZINC05499507
 OpenBabel01091702063D

 25 26  0  0  1  0  0  0  0  0999 V2000
  -31.0530   15.4100  -20.0040 C   0  0  0  0  0  0  0  0  0  0  0  0
  -29.7190   14.9660  -19.5910 N   0  0  0  0  0  0  0  0  0  0  0  0
  -29.0950   15.2710  -18.4180 C   0  0  0  0  0  0  0  0  0  0  0  0
  -27.9220   14.7100  -18.3810 N   0  0  0  0  0  0  0  0  0  0  0  0
  -27.7180   14.0120  -19.5240 C   0  0  0  0  0  0  0  0  0  0  0  0
  -26.6680   13.2280  -20.0290 C   0  0  0  0  0  0  0  0  0  0  0  0
  -26.8120   12.6720  -21.2280 N   0  0  0  0  0  0  0  0  0  0  0  0
  -27.9140   12.8480  -21.9350 C   0  0  0  0  0  0  0  0  0  0  0  0
  -28.9230   13.5740  -21.5010 N   0  0  0  0  0  0  0  0  0  0  0  0
  -28.8700   14.1680  -20.3140 C   0  0  0  0  0  0  0  0  0  0  0  0
  -25.5100   13.0390  -19.2950 N   0  0  0  0  0  0  0  0  0  0  0  0
  -24.8030   12.4430  -19.6360 H   0  0  0  0  0  0  0  0  0  0  0  0
  -25.3910   13.4990  -18.4330 H   0  0  0  0  0  0  0  0  0  0  0  0
  -31.9130   14.1910  -20.3480 C   0  0  2  0  0  0  0  0  0  0  0  0
  -32.7880   14.5160  -21.4300 O   0  0  0  0  0  0  0  0  0  0  0  0
  -33.4230   15.1890  -21.1420 H   0  0  0  0  0  0  0  0  0  0  0  0
  -32.7410   13.7900  -19.1250 C   0  0  0  0  0  0  0  0  0  0  0  0
  -32.5380   12.3490  -18.8690 N   0  0  0  0  0  0  0  0  0  0  0  0
  -32.2140   12.2240  -17.9100 H   0  0  0  0  0  0  0  0  0  0  0  0
  -30.4170   11.1360  -18.9720 C   0  0  0  0  0  0  0  0  0  0  0  0
  -31.5180   11.8110  -19.7940 C   0  0  0  0  0  0  0  0  0  0  0  0
  -33.8120   11.6200  -19.0440 C   0  0  0  0  0  0  0  0  0  0  0  0
  -33.9480   11.2080  -20.5110 C   0  0  0  0  0  0  0  0  0  0  0  0
  -34.7310   12.1800  -21.2070 O   0  0  0  0  0  0  0  0  0  0  0  0
  -34.1770   12.6330  -21.8620 H   0  0  0  0  0  0  0  0  0  0  0  0
  1  2  1  0  0  0  0
  2  3  1  0  0  0  0
  3  4  2  0  0  0  0
  5  4  1  0  0  0  0
  6  5  1  0  0  0  0
  6 11  1  0  0  0  0
  7  6  2  0  0  0  0
  8  9  2  0  0  0  0
  8  7  1  0  0  0  0
  9 10  1  0  0  0  0
 10  2  1  0  0  0  0
 10  5  2  0  0  0  0
 11 13  1  0  0  0  0
 12 11  1  0  0  0  0
 14 15  1  6  0  0  0
 14  1  1  0  0  0  0
 14 17  1  0  0  0  0
 15 16  1  0  0  0  0
 17 18  1  0  0  0  0
 18 19  1  0  0  0  0
 21 20  1  0  0  0  0
 21 18  1  0  0  0  0
 22 18  1  0  0  0  0
 23 22  1  0  0  0  0
 24 23  1  0  0  0  0
 25 24  1  0  0  0  0
M  END
>  <MODEL>
1

>  <REMARK>
 VINA RESULT:      -5.4      0.000      0.000
  Name = ZINC05499507
                            x       y       z     vdW  Elec       q    Type
                         _______ _______ _______ _____ _____    ______ ____

>  <TORSDO>
F 10

>  <vina_score>
-5.4

$$$$
ZINC04535632
 OpenBabel01091702083D

 26 27  0  0  1  0  0  0  0  0999 V2000
  -31.0190   13.3290  -19.4530 C   0  0  2  0  0  0  0  0  0  0  0  0
  -31.0260   12.4450  -20.6790 C   0  0  0  0  0  0  0  0  0  0  0  0
  -32.1610   12.0310  -21.4150 C   0  0  0  0  0  0  0  0  0  0  0  0
  -33.5230   12.5780  -21.0700 C   0  0  0  0  0  0  0  0  0  0  0  0
  -32.0390   11.2380  -22.3240 O   0  0  0  0  0  0  0  0  0  0  0  0
  -29.7340   12.1260  -20.9370 C   0  0  0  0  0  0  0  0  0  0  0  0
  -29.3070   11.3460  -21.9570 O   0  0  0  0  0  0  0  0  0  0  0  0
  -28.8640   12.7670  -19.9260 C   0  0  0  0  0  0  0  0  0  0  0  0
  -27.6540   12.6710  -19.8860 O   0  0  0  0  0  0  0  0  0  0  0  0
  -29.6130   13.4700  -19.0570 N   0  0  0  0  0  0  0  0  0  0  0  0
  -34.0410   10.8470  -15.1990 C   0  0  0  0  0  0  0  0  0  0  0  0
  -33.2530   11.4940  -16.3080 C   0  0  0  0  0  0  0  0  0  0  0  0
  -33.5560   12.7820  -16.7110 C   0  0  0  0  0  0  0  0  0  0  0  0
  -32.8360   13.3740  -17.7330 C   0  0  0  0  0  0  0  0  0  0  0  0
  -31.8070   12.6820  -18.3430 C   0  0  0  0  0  0  0  0  0  0  0  0
  -31.5010   11.3970  -17.9370 C   0  0  0  0  0  0  0  0  0  0  0  0
  -32.2240   10.8030  -16.9200 C   0  0  0  0  0  0  0  0  0  0  0  0
  -29.1120   14.2410  -17.9170 C   0  0  0  0  0  0  0  0  0  0  0  0
  -28.1270   15.3030  -18.4120 C   0  0  0  0  0  0  0  0  0  0  0  0
  -28.8790   16.4990  -18.8350 N   0  0  0  0  0  0  0  0  0  0  0  0
  -29.4980   16.7880  -18.0770 H   0  0  0  0  0  0  0  0  0  0  0  0
  -28.2240   17.2480  -19.0560 H   0  0  0  0  0  0  0  0  0  0  0  0
  -29.6920   16.1970  -20.0290 C   0  0  0  0  0  0  0  0  0  0  0  0
  -30.8910   17.1470  -20.0730 C   0  0  0  0  0  0  0  0  0  0  0  0
  -32.0710   16.4080  -20.3940 O   0  0  0  0  0  0  0  0  0  0  0  0
  -32.0220   16.1020  -21.3130 H   0  0  0  0  0  0  0  0  0  0  0  0
  1 10  1  0  0  0  0
  1 15  1  1  0  0  0
  2  1  1  0  0  0  0
  3  4  1  0  0  0  0
  3  2  1  0  0  0  0
  5  3  2  0  0  0  0
  6  2  2  0  0  0  0
  6  8  1  0  0  0  0
  7  6  1  0  0  0  0
  8  9  2  0  0  0  0
  8 10  1  0  0  0  0
 10 18  1  0  0  0  0
 12 11  1  0  0  0  0
 13 12  1  0  0  0  0
 14 13  2  0  0  0  0
 15 16  2  0  0  0  0
 15 14  1  0  0  0  0
 16 17  1  0  0  0  0
 17 12  2  0  0  0  0
 19 18  1  0  0  0  0
 20 19  1  0  0  0  0
 20 21  1  0  0  0  0
 22 20  1  0  0  0  0
 23 20  1  0  0  0  0
 24 23  1  0  0  0  0
 25 24  1  0  0  0  0
 26 25  1  0  0  0  0
M  END
>  <MODEL>
1

>  <REMARK>
 VINA RESULT:      -5.4      0.000      0.000
  Name = ZINC04535632
                            x       y       z     vdW  Elec       q    Type
                         _______ _______ _______ _____ _____    ______ ____

>  <TORSDO>
F 7

>  <vina_score>
-5.4

$$$$
ZINC20341969
 OpenBabel01091702093D

 23 23  0  0  0  0  0  0  0  0999 V2000
  -31.3410   13.0130  -17.6960 C   0  0  0  0  0  0  0  0  0  0  0  0
  -31.2320   13.7160  -18.8410 N   0  0  0  0  0  0  0  0  0  0  0  0
  -32.0010   14.2310  -19.1780 H   0  0  0  0  0  0  0  0  0  0  0  0
  -30.3940   12.3800  -17.2800 O   0  0  0  0  0  0  0  0  0  0  0  0
  -30.0370   13.7150  -19.5440 C   0  0  0  0  0  0  0  0  0  0  0  0
  -29.7120   13.0040  -20.6940 C   0  0  0  0  0  0  0  0  0  0  0  0
  -28.3820   13.1980  -21.2230 C   0  0  0  0  0  0  0  0  0  0  0  0
  -27.9200   12.4860  -22.4670 C   0  0  0  0  0  0  0  0  0  0  0  0
  -27.5740   14.0430  -20.5570 C   0  0  0  0  0  0  0  0  0  0  0  0
  -26.1540   14.4270  -20.8800 C   0  0  0  0  0  0  0  0  0  0  0  0
  -28.5870   14.5960  -19.2010 S   0  0  0  0  0  0  0  0  0  0  0  0
  -30.6720   12.1070  -21.3410 C   0  0  0  0  0  0  0  0  0  0  0  0
  -31.5770   12.6020  -22.2100 O   0  0  0  0  0  0  0  0  0  0  0  0
  -30.6540   10.9160  -21.0930 O   0  0  0  0  0  0  0  0  0  0  0  0
  -32.6400   13.0150  -16.9320 C   0  0  0  0  0  0  0  0  0  0  0  0
  -33.4740   11.8920  -17.3800 N   0  0  0  0  0  0  0  0  0  0  0  0
  -34.4320   12.2300  -17.4710 H   0  0  0  0  0  0  0  0  0  0  0  0
  -34.1910   11.2670  -15.1240 C   0  0  0  0  0  0  0  0  0  0  0  0
  -33.4710   10.8050  -16.3920 C   0  0  0  0  0  0  0  0  0  0  0  0
  -33.0410   11.4070  -18.6970 C   0  0  0  0  0  0  0  0  0  0  0  0
  -34.1090   11.7400  -19.7410 C   0  0  0  0  0  0  0  0  0  0  0  0
  -33.8780   13.0520  -20.2580 O   0  0  0  0  0  0  0  0  0  0  0  0
  -33.0100   13.3680  -19.9640 H   0  0  0  0  0  0  0  0  0  0  0  0
  1  4  2  0  0  0  0
  1 15  1  0  0  0  0
  2  1  1  0  0  0  0
  3  2  1  0  0  0  0
  5 11  1  0  0  0  0
  5  2  1  0  0  0  0
  6  5  2  0  0  0  0
  7  6  1  0  0  0  0
  7  9  2  0  0  0  0
  8  7  1  0  0  0  0
  9 11  1  0  0  0  0
 10  9  1  0  0  0  0
 12 14  1  0  0  0  0
 12  6  1  0  0  0  0
 13 12  2  0  0  0  0
 16 15  1  0  0  0  0
 16 19  1  0  0  0  0
 17 16  1  0  0  0  0
 19 18  1  0  0  0  0
 20 16  1  0  0  0  0
 21 20  1  0  0  0  0
 22 23  1  0  0  0  0
 22 21  1  0  0  0  0
M  END
>  <MODEL>
1

>  <REMARK>
 VINA RESULT:      -5.4      0.000      0.000
  Name = ZINC20341969
                            x       y       z     vdW  Elec       q    Type
                         _______ _______ _______ _____ _____    ______ ____

>  <TORSDO>
F 8

>  <vina_score>
-5.4

$$$$
ZINC01689632
 OpenBabel01091702103D

 22 22  0  0  0  0  0  0  0  0999 V2000
  -29.9110   14.4600  -18.4140 N   0  0  0  0  0  0  0  0  0  0  0  0
  -30.4540   15.0580  -18.9770 H   0  0  0  0  0  0  0  0  0  0  0  0
  -30.2490   13.1610  -18.2910 C   0  0  0  0  0  0  0  0  0  0  0  0
  -29.5780   12.4210  -17.5970 O   0  0  0  0  0  0  0  0  0  0  0  0
  -31.4320   12.6360  -18.9990 C   0  0  0  0  0  0  0  0  0  0  0  0
  -32.7870   12.8390  -18.4530 C   0  0  0  0  0  0  0  0  0  0  0  0
  -33.8290   12.3300  -19.1500 N   0  0  0  0  0  0  0  0  0  0  0  0
  -34.7510   12.4340  -18.8230 H   0  0  0  0  0  0  0  0  0  0  0  0
  -33.5770   11.6760  -20.3030 C   0  0  0  0  0  0  0  0  0  0  0  0
  -32.3240   11.5230  -20.7570 N   0  0  0  0  0  0  0  0  0  0  0  0
  -32.1140   10.8030  -22.0160 C   0  0  0  0  0  0  0  0  0  0  0  0
  -34.5040   11.2160  -20.9420 O   0  0  0  0  0  0  0  0  0  0  0  0
  -32.9620   13.4410  -17.4100 O   0  0  0  0  0  0  0  0  0  0  0  0
  -31.2990   11.9830  -20.1320 N   0  0  0  0  0  0  0  0  0  0  0  0
  -28.7350   14.9800  -17.7120 C   0  0  0  0  0  0  0  0  0  0  0  0
  -27.5580   15.0690  -18.6860 C   0  0  0  0  0  0  0  0  0  0  0  0
  -27.5560   13.8620  -19.5390 N   0  0  0  0  0  0  0  0  0  0  0  0
  -28.4330   13.3580  -19.4010 H   0  0  0  0  0  0  0  0  0  0  0  0
  -28.1870   13.2170  -21.8120 C   0  0  0  0  0  0  0  0  0  0  0  0
  -27.4440   14.2480  -20.9610 C   0  0  0  0  0  0  0  0  0  0  0  0
  -26.4310   12.9800  -19.1640 C   0  0  0  0  0  0  0  0  0  0  0  0
  -25.3370   13.1020  -20.2260 C   0  0  0  0  0  0  0  0  0  0  0  0
  1  3  1  0  0  0  0
  1 15  1  0  0  0  0
  2  1  1  0  0  0  0
  3  4  2  0  0  0  0
  5  6  1  0  0  0  0
  5  3  1  0  0  0  0
  6 13  2  0  0  0  0
  7  8  1  0  0  0  0
  7  6  1  0  0  0  0
  9  7  1  0  0  0  0
 10  9  1  0  0  0  0
 10 14  1  0  0  0  0
 11 10  1  0  0  0  0
 12  9  2  0  0  0  0
 14  5  2  0  0  0  0
 16 15  1  0  0  0  0
 17 18  1  0  0  0  0
 17 21  1  0  0  0  0
 17 16  1  0  0  0  0
 19 20  1  0  0  0  0
 20 17  1  0  0  0  0
 22 21  1  0  0  0  0
M  END
>  <MODEL>
1

>  <REMARK>
 VINA RESULT:      -5.4      0.000      0.000
  Name = ZINC01689632
                            x       y       z     vdW  Elec       q    Type
                         _______ _______ _______ _____ _____    ______ ____

>  <TORSDO>
F 6

>  <vina_score>
-5.4

$$$$
ZINC27082580
 OpenBabel01091702113D

 26 27  0  0  0  0  0  0  0  0999 V2000
  -31.8290   12.0960  -18.4480 N   0  0  0  0  0  0  0  0  0  0  0  0
  -31.7670   12.1690  -17.4680 H   0  0  0  0  0  0  0  0  0  0  0  0
  -27.7730   15.2800  -17.8210 C   0  0  0  0  0  0  0  0  0  0  0  0
  -29.0750   15.3060  -18.5820 C   0  0  0  0  0  0  0  0  0  0  0  0
  -29.9370   14.2220  -18.5030 C   0  0  0  0  0  0  0  0  0  0  0  0
  -29.6190   13.1400  -17.7470 O   0  0  0  0  0  0  0  0  0  0  0  0
  -31.1480   14.2660  -19.2140 C   0  0  0  0  0  0  0  0  0  0  0  0
  -32.1020   13.1430  -19.1580 C   0  0  0  0  0  0  0  0  0  0  0  0
  -31.4220   15.4080  -19.9760 C   0  0  0  0  0  0  0  0  0  0  0  0
  -30.5030   16.4350  -20.0000 C   0  0  0  0  0  0  0  0  0  0  0  0
  -29.3750   16.3560  -19.3190 N   0  0  0  0  0  0  0  0  0  0  0  0
  -32.7060   15.5130  -20.7590 C   0  0  0  0  0  0  0  0  0  0  0  0
  -32.6990   14.5500  -21.8150 O   0  0  0  0  0  0  0  0  0  0  0  0
  -31.8790   14.6360  -22.3260 H   0  0  0  0  0  0  0  0  0  0  0  0
  -31.6130   10.8030  -19.1010 C   0  0  0  0  0  0  0  0  0  0  0  0
  -30.8920   11.0190  -20.4340 C   0  0  0  0  0  0  0  0  0  0  0  0
  -29.5670   11.5930  -20.1850 N   0  0  0  0  0  0  0  0  0  0  0  0
  -29.1650   11.5330  -19.2880 H   0  0  0  0  0  0  0  0  0  0  0  0
  -28.8990   12.2040  -21.1830 C   0  0  0  0  0  0  0  0  0  0  0  0
  -29.3560   12.2030  -22.3110 O   0  0  0  0  0  0  0  0  0  0  0  0
  -27.6220   12.8710  -20.9100 C   0  0  0  0  0  0  0  0  0  0  0  0
  -26.6170   12.4030  -20.0890 C   0  0  0  0  0  0  0  0  0  0  0  0
  -25.5870   13.3480  -20.1210 C   0  0  0  0  0  0  0  0  0  0  0  0
  -25.9720   14.3540  -20.9420 C   0  0  0  0  0  0  0  0  0  0  0  0
  -27.2030   14.0740  -21.4320 N   0  0  0  0  0  0  0  0  0  0  0  0
  -27.9650   14.9130  -22.3610 C   0  0  0  0  0  0  0  0  0  0  0  0
  1  2  1  0  0  0  0
  4  5  1  0  0  0  0
  4  3  1  0  0  0  0
  5  6  1  0  0  0  0
  7  8  1  0  0  0  0
  7  5  2  0  0  0  0
  8  1  1  0  0  0  0
  9  7  1  0  0  0  0
 10  9  2  0  0  0  0
 10 11  1  0  0  0  0
 11  4  2  0  0  0  0
 12  9  1  0  0  0  0
 13 12  1  0  0  0  0
 14 13  1  0  0  0  0
 15  1  1  0  0  0  0
 16 17  1  0  0  0  0
 16 15  1  0  0  0  0
 17 18  1  0  0  0  0
 19 21  1  0  0  0  0
 19 17  1  0  0  0  0
 20 19  2  0  0  0  0
 21 22  2  0  0  0  0
 23 22  1  0  0  0  0
 24 23  2  0  0  0  0
 25 24  1  0  0  0  0
 25 21  1  0  0  0  0
 26 25  1  0  0  0  0
M  END
>  <MODEL>
1

>  <REMARK>
 VINA RESULT:      -5.4      0.000      0.000
  Name = ZINC27082580
                            x       y       z     vdW  Elec       q    Type
                         _______ _______ _______ _____ _____    ______ ____

>  <TORSDO>
F 7

>  <vina_score>
-5.4

$$$$
ZINC19844186
 OpenBabel01091702153D

 23 24  0  0  0  0  0  0  0  0999 V2000
  -30.0920   13.5270  -18.1670 N   0  0  0  0  0  0  0  0  0  0  0  0
  -29.9860   14.5470  -19.2200 C   0  0  0  0  0  0  0  0  0  0  0  0
  -28.5310   15.0150  -19.3300 C   0  0  0  0  0  0  0  0  0  0  0  0
  -27.6740   13.8350  -19.5200 N   0  0  0  0  0  0  0  0  0  0  0  0
  -27.8210   12.7100  -18.5820 C   0  0  0  0  0  0  0  0  0  0  0  0
  -29.3030   12.3340  -18.5020 C   0  0  0  0  0  0  0  0  0  0  0  0
  -33.6120   12.6320  -18.7430 C   0  0  0  0  0  0  0  0  0  0  0  0
  -34.0730   12.5400  -17.4360 C   0  0  0  0  0  0  0  0  0  0  0  0
  -33.2120   12.7670  -16.3800 C   0  0  0  0  0  0  0  0  0  0  0  0
  -31.8920   13.0950  -16.6200 C   0  0  0  0  0  0  0  0  0  0  0  0
  -31.4260   13.1940  -17.9250 C   0  0  0  0  0  0  0  0  0  0  0  0
  -32.2880   12.9620  -18.9870 C   0  0  0  0  0  0  0  0  0  0  0  0
  -34.2260   11.2290  -20.5610 C   0  0  0  0  0  0  0  0  0  0  0  0
  -34.4590   12.4030  -19.7810 O   0  0  0  0  0  0  0  0  0  0  0  0
  -26.5740   13.7720  -20.7560 S   0  0  0  0  0  0  0  0  0  0  0  0
  -25.8510   12.5690  -20.5380 O   0  0  0  0  0  0  0  0  0  0  0  0
  -25.9150   15.0310  -20.7170 O   0  0  0  0  0  0  0  0  0  0  0  0
  -27.5740   13.6370  -22.2630 C   0  0  0  0  0  0  0  0  0  0  0  0
  -28.3890   12.3430  -22.2200 C   0  0  0  0  0  0  0  0  0  0  0  0
  -29.8100   12.6650  -22.0320 N   0  0  0  0  0  0  0  0  0  0  0  0
  -30.3820   11.9650  -22.5060 H   0  0  0  0  0  0  0  0  0  0  0  0
  -30.0300   12.6660  -21.0370 H   0  0  0  0  0  0  0  0  0  0  0  0
  -30.0050   13.5860  -22.4250 H   0  0  0  0  0  0  0  0  0  0  0  0
  1 11  1  0  0  0  0
  2  1  1  0  0  0  0
  3  2  1  0  0  0  0
  4  3  1  0  0  0  0
  4  5  1  0  0  0  0
  5  6  1  0  0  0  0
  6  1  1  0  0  0  0
  7  8  1  0  0  0  0
  8  9  2  0  0  0  0
 10  9  1  0  0  0  0
 11 10  2  0  0  0  0
 12  7  2  0  0  0  0
 12 11  1  0  0  0  0
 13 14  1  0  0  0  0
 14  7  1  0  0  0  0
 15 17  2  0  0  0  0
 15 16  2  0  0  0  0
 15  4  1  0  0  0  0
 18 19  1  0  0  0  0
 18 15  1  0  0  0  0
 19 20  1  0  0  0  0
 20 22  1  0  0  0  0
 21 20  1  0  0  0  0
 23 20  1  0  0  0  0
M  END
>  <MODEL>
1

>  <REMARK>
 VINA RESULT:      -5.4      0.000      0.000
  Name = ZINC19844186
                            x       y       z     vdW  Elec       q    Type
                         _______ _______ _______ _____ _____    ______ ____

>  <TORSDO>
F 6

>  <vina_score>
-5.4

$$$$
ZINC02338152
 OpenBabel01091702163D

 26 27  0  0  0  0  0  0  0  0999 V2000
  -32.7680   12.2130  -19.4570 C   0  0  0  0  0  0  0  0  0  0  0  0
  -32.2440   11.3740  -20.3380 N   0  0  0  0  0  0  0  0  0  0  0  0
  -31.8390   11.7980  -21.5260 C   0  0  0  0  0  0  0  0  0  0  0  0
  -31.2510   10.8300  -22.5200 C   0  0  0  0  0  0  0  0  0  0  0  0
  -31.9580   13.1370  -21.8420 C   0  0  0  0  0  0  0  0  0  0  0  0
  -32.5090   13.9990  -20.8920 C   0  0  0  0  0  0  0  0  0  0  0  0
  -32.8990   13.5050  -19.7210 N   0  0  0  0  0  0  0  0  0  0  0  0
  -32.6470   15.3510  -21.1650 N   0  0  0  0  0  0  0  0  0  0  0  0
  -33.1720   15.6440  -21.9440 H   0  0  0  0  0  0  0  0  0  0  0  0
  -32.0130   16.3430  -20.2930 C   0  0  0  0  0  0  0  0  0  0  0  0
  -30.5750   15.9150  -19.9940 C   0  0  0  0  0  0  0  0  0  0  0  0
  -29.7060   17.1050  -20.0130 N   0  0  0  0  0  0  0  0  0  0  0  0
  -29.3490   17.2790  -19.0740 H   0  0  0  0  0  0  0  0  0  0  0  0
  -28.9250   16.9440  -20.6500 H   0  0  0  0  0  0  0  0  0  0  0  0
  -30.2420   17.9130  -20.3290 H   0  0  0  0  0  0  0  0  0  0  0  0
  -33.1840   11.7310  -18.2290 N   0  0  0  0  0  0  0  0  0  0  0  0
  -32.2940   12.0520  -16.8700 S   0  0  0  0  0  0  0  0  0  0  0  0
  -32.9350   13.1350  -16.2120 O   0  0  0  0  0  0  0  0  0  0  0  0
  -32.0640   10.8030  -16.2320 O   0  0  0  0  0  0  0  0  0  0  0  0
  -26.9210   14.0880  -18.7080 C   0  0  0  0  0  0  0  0  0  0  0  0
  -28.2630   13.5790  -18.2480 C   0  0  0  0  0  0  0  0  0  0  0  0
  -28.7260   12.3530  -18.6900 C   0  0  0  0  0  0  0  0  0  0  0  0
  -29.9560   11.8860  -18.2680 C   0  0  0  0  0  0  0  0  0  0  0  0
  -30.7230   12.6430  -17.4020 C   0  0  0  0  0  0  0  0  0  0  0  0
  -30.2600   13.8690  -16.9600 C   0  0  0  0  0  0  0  0  0  0  0  0
  -29.0300   14.3370  -17.3830 C   0  0  0  0  0  0  0  0  0  0  0  0
  1 16  1  0  0  0  0
  2  1  2  0  0  0  0
  3  2  1  0  0  0  0
  4  3  1  0  0  0  0
  5  3  2  0  0  0  0
  5  6  1  0  0  0  0
  6  7  2  0  0  0  0
  7  1  1  0  0  0  0
  8  6  1  0  0  0  0
  8 10  1  0  0  0  0
  9  8  1  0  0  0  0
 10 11  1  0  0  0  0
 12 11  1  0  0  0  0
 12 13  1  0  0  0  0
 14 12  1  0  0  0  0
 15 12  1  0  0  0  0
 16 17  1  0  0  0  0
 17 19  2  0  0  0  0
 17 18  2  0  0  0  0
 20 21  1  0  0  0  0
 21 26  2  0  0  0  0
 22 23  2  0  0  0  0
 22 21  1  0  0  0  0
 23 24  1  0  0  0  0
 24 25  2  0  0  0  0
 24 17  1  0  0  0  0
 26 25  1  0  0  0  0
M  END
>  <MODEL>
1

>  <REMARK>
 VINA RESULT:      -5.4      0.000      0.000
  Name = ZINC02338152
                            x       y       z     vdW  Elec       q    Type
                         _______ _______ _______ _____ _____    ______ ____

>  <TORSDO>
F 7

>  <vina_score>
-5.4

$$$$
ZINC04802570
 OpenBabel01091702173D

 23 24  0  0  1  0  0  0  0  0999 V2000
  -29.6330   15.6350  -19.7400 C   0  0  0  0  0  0  0  0  0  0  0  0
  -28.9990   14.6050  -18.8040 C   0  0  0  0  0  0  0  0  0  0  0  0
  -27.5540   15.0040  -18.4980 C   0  0  0  0  0  0  0  0  0  0  0  0
  -29.0260   13.2840  -19.4300 O   0  0  0  0  0  0  0  0  0  0  0  0
  -30.2190   12.7480  -18.9170 C   0  0  1  0  0  0  0  0  0  0  0  0
  -30.5530   11.2940  -18.7330 C   0  0  1  0  0  0  0  0  0  0  0  0
  -31.2850   11.2190  -17.4800 O   0  0  0  0  0  0  0  0  0  0  0  0
  -31.2680   12.5280  -16.8390 C   0  0  1  0  0  0  0  0  0  0  0  0
  -30.0180   13.1610  -17.4020 C   0  0  2  0  0  0  0  0  0  0  0  0
  -29.7630   14.5260  -17.5660 O   0  0  0  0  0  0  0  0  0  0  0  0
  -32.4250   13.2850  -17.2000 O   0  0  0  0  0  0  0  0  0  0  0  0
  -33.6550   12.7230  -16.7380 C   0  0  0  0  0  0  0  0  0  0  0  0
  -31.4290   10.8030  -19.8880 C   0  0  0  0  0  0  0  0  0  0  0  0
  -31.4470   11.8410  -20.9410 N   0  0  0  0  0  0  0  0  0  0  0  0
  -30.7920   12.5800  -20.6900 H   0  0  0  0  0  0  0  0  0  0  0  0
  -32.8030   12.4200  -21.0560 C   0  0  0  0  0  0  0  0  0  0  0  0
  -32.6830   13.9460  -21.0670 C   0  0  0  0  0  0  0  0  0  0  0  0
  -32.9990   14.4580  -19.7710 O   0  0  0  0  0  0  0  0  0  0  0  0
  -32.9540   13.7390  -19.1210 H   0  0  0  0  0  0  0  0  0  0  0  0
  -31.0380   11.2560  -22.2360 C   0  0  0  0  0  0  0  0  0  0  0  0
  -29.5180   11.3680  -22.3660 C   0  0  0  0  0  0  0  0  0  0  0  0
  -29.1320   12.7410  -22.2840 O   0  0  0  0  0  0  0  0  0  0  0  0
  -29.8910   13.3040  -22.5080 H   0  0  0  0  0  0  0  0  0  0  0  0
  1  2  1  0  0  0  0
  2  3  1  0  0  0  0
  2 10  1  0  0  0  0
  4  2  1  0  0  0  0
  5  4  1  6  0  0  0
  5  6  1  0  0  0  0
  5  9  1  0  0  0  0
  6 13  1  6  0  0  0
  6  7  1  0  0  0  0
  7  8  1  0  0  0  0
  8 11  1  6  0  0  0
  9 10  1  6  0  0  0
  9  8  1  0  0  0  0
 11 12  1  0  0  0  0
 14 15  1  0  0  0  0
 14 13  1  0  0  0  0
 16 14  1  0  0  0  0
 17 16  1  0  0  0  0
 17 18  1  0  0  0  0
 18 19  1  0  0  0  0
 20 14  1  0  0  0  0
 21 22  1  0  0  0  0
 21 20  1  0  0  0  0
 23 22  1  0  0  0  0
M  END
>  <MODEL>
1

>  <REMARK>
 VINA RESULT:      -5.4      0.000      0.000
  Name = ZINC04802570
                            x       y       z     vdW  Elec       q    Type
                         _______ _______ _______ _____ _____    ______ ____

>  <TORSDO>
F 9

>  <vina_score>
-5.4

$$$$
ZINC29731274
 OpenBabel01091701573D

 27 27  0  0  0  0  0  0  0  0999 V2000
  -27.8550   12.2020  -20.9430 N   0  0  0  0  0  0  0  0  0  0  0  0
  -27.4730   11.5360  -20.3260 H   0  0  0  0  0  0  0  0  0  0  0  0
  -29.1090   12.0440  -21.4100 C   0  0  0  0  0  0  0  0  0  0  0  0
  -29.8410   10.9770  -21.0330 N   0  0  0  0  0  0  0  0  0  0  0  0
  -29.4600   10.3130  -20.4130 H   0  0  0  0  0  0  0  0  0  0  0  0
  -29.5820   12.8660  -22.1710 O   0  0  0  0  0  0  0  0  0  0  0  0
  -27.0600   13.3620  -21.3530 C   0  0  0  0  0  0  0  0  0  0  0  0
  -25.8310   13.4830  -20.4500 C   0  0  0  0  0  0  0  0  0  0  0  0
  -26.2540   13.3240  -18.9890 C   0  0  0  0  0  0  0  0  0  0  0  0
  -27.1160   14.4450  -18.6050 N   0  0  0  0  0  0  0  0  0  0  0  0
  -26.5980   14.9950  -17.9210 H   0  0  0  0  0  0  0  0  0  0  0  0
  -29.7840   14.8360  -19.1560 C   0  0  0  0  0  0  0  0  0  0  0  0
  -28.6100   14.1550  -17.9530 S   0  0  0  0  0  0  0  0  0  0  0  0
  -28.6380   14.9180  -16.7550 O   0  0  0  0  0  0  0  0  0  0  0  0
  -28.7180   12.7380  -17.9110 O   0  0  0  0  0  0  0  0  0  0  0  0
  -31.2020   10.8030  -21.5460 C   0  0  0  0  0  0  0  0  0  0  0  0
  -32.1870   11.3840  -20.5640 C   0  0  0  0  0  0  0  0  0  0  0  0
  -33.4460   11.7660  -20.9920 C   0  0  0  0  0  0  0  0  0  0  0  0
  -34.3560   12.2970  -20.0970 C   0  0  0  0  0  0  0  0  0  0  0  0
  -34.0110   12.4570  -18.7710 C   0  0  0  0  0  0  0  0  0  0  0  0
  -32.7410   12.0790  -18.3320 C   0  0  0  0  0  0  0  0  0  0  0  0
  -31.8280   11.5400  -19.2410 C   0  0  0  0  0  0  0  0  0  0  0  0
  -32.3640   12.2500  -16.9140 C   0  0  0  0  0  0  0  0  0  0  0  0
  -33.1130   13.0270  -16.1060 N   0  0  0  0  0  0  0  0  0  0  0  0
  -32.8610   13.1400  -15.1610 H   0  0  0  0  0  0  0  0  0  0  0  0
  -33.9110   13.4800  -16.4610 H   0  0  0  0  0  0  0  0  0  0  0  0
  -31.3790   11.6890  -16.4750 O   0  0  0  0  0  0  0  0  0  0  0  0
  1  2  1  0  0  0  0
  3  4  1  0  0  0  0
  3  1  1  0  0  0  0
  4  5  1  0  0  0  0
  6  3  2  0  0  0  0
  7  1  1  0  0  0  0
  7  8  1  0  0  0  0
  8  9  1  0  0  0  0
  9 10  1  0  0  0  0
 10 13  1  0  0  0  0
 10 11  1  0  0  0  0
 12 13  1  0  0  0  0
 13 15  2  0  0  0  0
 13 14  2  0  0  0  0
 16  4  1  0  0  0  0
 16 17  1  0  0  0  0
 17 22  1  0  0  0  0
 18 17  2  0  0  0  0
 18 19  1  0  0  0  0
 19 20  2  0  0  0  0
 20 21  1  0  0  0  0
 21 23  1  0  0  0  0
 22 21  2  0  0  0  0
 23 27  2  0  0  0  0
 23 24  1  0  0  0  0
 24 25  1  0  0  0  0
 26 24  1  0  0  0  0
M  END
>  <MODEL>
1

>  <REMARK>
 VINA RESULT:      -5.4      0.000      0.000
  Name = ZINC29731274
                            x       y       z     vdW  Elec       q    Type
                         _______ _______ _______ _____ _____    ______ ____

>  <TORSDO>
F 8

>  <vina_score>
-5.4

$$$$
ZINC01535960
 OpenBabel01091702013D

 19 19  0  0  1  0  0  0  0  0999 V2000
  -32.6300   13.1690  -21.0530 C   0  0  1  0  0  0  0  0  0  0  0  0
  -33.9500   12.6680  -21.2700 O   0  0  0  0  0  0  0  0  0  0  0  0
  -33.9450   12.0520  -22.0180 H   0  0  0  0  0  0  0  0  0  0  0  0
  -32.4990   13.6530  -19.6080 C   0  0  0  0  0  0  0  0  0  0  0  0
  -29.7620   15.9990  -19.6500 C   0  0  0  0  0  0  0  0  0  0  0  0
  -30.9950   15.6380  -20.0530 C   0  0  0  0  0  0  0  0  0  0  0  0
  -31.2680   14.4320  -19.4640 N   0  0  0  0  0  0  0  0  0  0  0  0
  -30.1900   14.0990  -18.7210 C   0  0  0  0  0  0  0  0  0  0  0  0
  -29.2940   15.0400  -18.8380 N   0  0  0  0  0  0  0  0  0  0  0  0
  -30.0490   12.8690  -17.9090 N   0  0  0  0  0  0  0  0  0  0  0  0
  -29.1800   12.0590  -18.1770 O   0  0  0  0  0  0  0  0  0  0  0  0
  -30.8030   12.6670  -16.9740 O   0  0  0  0  0  0  0  0  0  0  0  0
  -31.6130   12.0550  -21.3120 C   0  0  0  0  0  0  0  0  0  0  0  0
  -30.5090   12.5890  -22.1320 N   0  0  0  0  0  0  0  0  0  0  0  0
  -30.6120   12.2520  -23.0880 H   0  0  0  0  0  0  0  0  0  0  0  0
  -30.5400   13.6090  -22.1150 H   0  0  0  0  0  0  0  0  0  0  0  0
  -29.2110   12.1340  -21.5990 C   0  0  0  0  0  0  0  0  0  0  0  0
  -28.1510   13.2020  -21.8820 C   0  0  0  0  0  0  0  0  0  0  0  0
  -26.7070   13.0580  -20.5560 Br  0  0  0  0  0  0  0  0  0  0  0  0
  1 13  1  1  0  0  0
  1  4  1  0  0  0  0
  2  1  1  0  0  0  0
  3  2  1  0  0  0  0
  4  7  1  0  0  0  0
  5  9  1  0  0  0  0
  6  5  2  0  0  0  0
  6  7  1  0  0  0  0
  7  8  1  0  0  0  0
  8 10  1  0  0  0  0
  9  8  2  0  0  0  0
 10 12  2  0  0  0  0
 11 10  2  0  0  0  0
 14 16  1  0  0  0  0
 14 17  1  0  0  0  0
 14 13  1  0  0  0  0
 15 14  1  0  0  0  0
 18 17  1  0  0  0  0
 18 19  1  0  0  0  0
M  END
>  <MODEL>
1

>  <REMARK>
 VINA RESULT:      -5.4      0.000      0.000
  Name = ZINC01535960
                            x       y       z     vdW  Elec       q    Type
                         _______ _______ _______ _____ _____    ______ ____

>  <TORSDO>
F 8

>  <vina_score>
-5.4

$$$$
ZINC30581710
 OpenBabel01091702073D

 31 33  0  0  1  0  0  0  0  0999 V2000
  -32.7790   13.4300  -21.4680 C   0  0  1  0  0  0  0  0  0  0  0  0
  -32.1100   14.4150  -20.5300 C   0  0  0  0  0  0  0  0  0  0  0  0
  -30.7930   14.1330  -20.5840 N   0  0  0  0  0  0  0  0  0  0  0  0
  -30.5400   13.1160  -21.4150 C   0  0  0  0  0  0  0  0  0  0  0  0
  -29.4260   12.6800  -21.6300 O   0  0  0  0  0  0  0  0  0  0  0  0
  -32.6470   15.2780  -19.8700 O   0  0  0  0  0  0  0  0  0  0  0  0
  -31.6560   12.6310  -21.9890 N   0  0  0  0  0  0  0  0  0  0  0  0
  -29.8120   14.8200  -19.8580 N   0  0  0  0  0  0  0  0  0  0  0  0
  -29.2870   15.5330  -20.2910 H   0  0  0  0  0  0  0  0  0  0  0  0
  -29.5830   14.5040  -18.5680 C   0  0  0  0  0  0  0  0  0  0  0  0
  -30.2280   13.6270  -18.0340 O   0  0  0  0  0  0  0  0  0  0  0  0
  -28.5260   15.2430  -17.7870 C   0  0  0  0  0  0  0  0  0  0  0  0
  -27.1420   14.8650  -18.3180 C   0  0  0  0  0  0  0  0  0  0  0  0
  -27.1210   13.1040  -18.7510 S   0  0  0  0  0  0  0  0  0  0  0  0
  -26.2170   13.0490  -20.3220 C   0  0  0  0  0  0  0  0  0  0  0  0
  -26.3640   14.3690  -21.0340 C   0  0  0  0  0  0  0  0  0  0  0  0
  -25.3780   15.2850  -20.9670 N   0  0  0  0  0  0  0  0  0  0  0  0
  -25.4740   16.1470  -21.4320 H   0  0  0  0  0  0  0  0  0  0  0  0
  -24.5610   15.0920  -20.4520 H   0  0  0  0  0  0  0  0  0  0  0  0
  -27.3700   14.6070  -21.6680 O   0  0  0  0  0  0  0  0  0  0  0  0
  -33.7610   12.5410  -20.7020 C   0  0  0  0  0  0  0  0  0  0  0  0
  -34.4610   12.9960  -16.0890 C   0  0  0  0  0  0  0  0  0  0  0  0
  -33.5650   12.2550  -15.3310 C   0  0  0  0  0  0  0  0  0  0  0  0
  -32.5960   11.4880  -15.9390 C   0  0  0  0  0  0  0  0  0  0  0  0
  -32.5130   11.4530  -17.3270 C   0  0  0  0  0  0  0  0  0  0  0  0
  -33.4190   12.2100  -18.0920 C   0  0  0  0  0  0  0  0  0  0  0  0
  -33.0760   11.9580  -19.4930 C   0  0  0  0  0  0  0  0  0  0  0  0
  -32.0310   11.1160  -19.4960 C   0  0  0  0  0  0  0  0  0  0  0  0
  -31.6810   10.8030  -18.2100 N   0  0  0  0  0  0  0  0  0  0  0  0
  -30.9440   10.2020  -17.9560 H   0  0  0  0  0  0  0  0  0  0  0  0
  -34.3970   12.9770  -17.4540 C   0  0  0  0  0  0  0  0  0  0  0  0
  1 21  1  1  0  0  0
  1  2  1  0  0  0  0
  2  6  2  0  0  0  0
  3  2  1  0  0  0  0
  3  8  1  0  0  0  0
  4  3  1  0  0  0  0
  5  4  2  0  0  0  0
  7  1  1  0  0  0  0
  7  4  1  0  0  0  0
  8 10  1  0  0  0  0
  9  8  1  0  0  0  0
 10 11  2  0  0  0  0
 10 12  1  0  0  0  0
 13 12  1  0  0  0  0
 14 13  1  0  0  0  0
 15 14  1  0  0  0  0
 16 17  1  0  0  0  0
 16 15  1  0  0  0  0
 17 19  1  0  0  0  0
 18 17  1  0  0  0  0
 20 16  2  0  0  0  0
 21 27  1  0  0  0  0
 22 23  2  0  0  0  0
 24 23  1  0  0  0  0
 25 24  2  0  0  0  0
 26 31  2  0  0  0  0
 26 25  1  0  0  0  0
 27 26  1  0  0  0  0
 28 27  2  0  0  0  0
 28 29  1  0  0  0  0
 29 30  1  0  0  0  0
 29 25  1  0  0  0  0
 31 22  1  0  0  0  0
M  END
>  <MODEL>
1

>  <REMARK>
 VINA RESULT:      -5.3      0.000      0.000
  Name = ZINC30581710
                            x       y       z     vdW  Elec       q    Type
                         _______ _______ _______ _____ _____    ______ ____

>  <TORSDO>
F 8

>  <vina_score>
-5.3

$$$$
ZINC21038636
 OpenBabel01091702093D

 27 29  0  0  0  0  0  0  0  0999 V2000
  -32.1970   11.9550  -21.1820 C   0  0  0  0  0  0  0  0  0  0  0  0
  -32.2090   11.1640  -20.0670 N   0  0  0  0  0  0  0  0  0  0  0  0
  -33.2860   11.5220  -19.3060 C   0  0  0  0  0  0  0  0  0  0  0  0
  -33.9160   12.4900  -19.9270 N   0  0  0  0  0  0  0  0  0  0  0  0
  -33.2230   12.7690  -21.1120 N   0  0  0  0  0  0  0  0  0  0  0  0
  -33.4640   13.4540  -21.7770 H   0  0  0  0  0  0  0  0  0  0  0  0
  -31.2630   11.9070  -22.2060 N   0  0  0  0  0  0  0  0  0  0  0  0
  -31.4490   11.3830  -23.0180 H   0  0  0  0  0  0  0  0  0  0  0  0
  -29.2020   12.2730  -21.1620 C   0  0  0  0  0  0  0  0  0  0  0  0
  -30.0530   12.6040  -22.0860 N   0  0  0  0  0  0  0  0  0  0  0  0
  -25.7350   13.2540  -20.1210 C   0  0  0  0  0  0  0  0  0  0  0  0
  -26.9120   12.5310  -20.2000 C   0  0  0  0  0  0  0  0  0  0  0  0
  -27.9290   13.0070  -21.0360 C   0  0  0  0  0  0  0  0  0  0  0  0
  -27.7200   14.1920  -21.7450 C   0  0  0  0  0  0  0  0  0  0  0  0
  -26.5830   14.8480  -21.6310 N   0  0  0  0  0  0  0  0  0  0  0  0
  -25.6060   14.4190  -20.8550 C   0  0  0  0  0  0  0  0  0  0  0  0
  -33.7500   10.8040  -17.7650 S   0  0  0  0  0  0  0  0  0  0  0  0
  -32.2910   11.0410  -16.7140 C   0  0  0  0  0  0  0  0  0  0  0  0
  -31.6410   12.3600  -17.0470 C   0  0  0  0  0  0  0  0  0  0  0  0
  -30.4540   12.3840  -17.6830 N   0  0  0  0  0  0  0  0  0  0  0  0
  -30.0100   11.5400  -17.9290 H   0  0  0  0  0  0  0  0  0  0  0  0
  -32.1880   13.3990  -16.7430 O   0  0  0  0  0  0  0  0  0  0  0  0
  -29.8540   13.5990  -17.9900 C   0  0  0  0  0  0  0  0  0  0  0  0
  -30.3010   14.4970  -18.8350 N   0  0  0  0  0  0  0  0  0  0  0  0
  -29.4970   15.5000  -18.8730 N   0  0  0  0  0  0  0  0  0  0  0  0
  -28.4980   15.3000  -18.0590 C   0  0  0  0  0  0  0  0  0  0  0  0
  -28.6900   14.0840  -17.4680 N   0  0  0  0  0  0  0  0  0  0  0  0
  1  5  1  0  0  0  0
  1  2  2  0  0  0  0
  2  3  1  0  0  0  0
  3 17  1  0  0  0  0
  4  3  2  0  0  0  0
  5  4  1  0  0  0  0
  6  5  1  0  0  0  0
  7 10  1  0  0  0  0
  7  1  1  0  0  0  0
  8  7  1  0  0  0  0
  9 13  1  0  0  0  0
 10  9  2  0  0  0  0
 12 11  1  0  0  0  0
 13 12  2  0  0  0  0
 14 15  2  0  0  0  0
 14 13  1  0  0  0  0
 15 16  1  0  0  0  0
 16 11  2  0  0  0  0
 17 18  1  0  0  0  0
 19 22  2  0  0  0  0
 19 18  1  0  0  0  0
 20 19  1  0  0  0  0
 21 20  1  0  0  0  0
 23 20  1  0  0  0  0
 23 27  2  0  0  0  0
 24 23  1  0  0  0  0
 25 24  1  0  0  0  0
 25 26  2  0  0  0  0
 26 27  1  0  0  0  0
M  END
>  <MODEL>
1

>  <REMARK>
 VINA RESULT:      -5.3      0.000      0.000
  Name = ZINC21038636
                            x       y       z     vdW  Elec       q    Type
                         _______ _______ _______ _____ _____    ______ ____

>  <TORSDO>
F 7

>  <vina_score>
-5.3

$$$$
ZINC05382434
 OpenBabel01091701553D

 23 23  0  0  1  0  0  0  0  0999 V2000
  -32.1970   12.3580  -20.4370 C   0  0  1  0  0  0  0  0  0  0  0  0
  -31.4040   12.3810  -19.1930 N   0  0  0  0  0  0  0  0  0  0  0  0
  -31.9530   11.9640  -18.4420 H   0  0  0  0  0  0  0  0  0  0  0  0
  -31.1700   13.3460  -18.9610 H   0  0  0  0  0  0  0  0  0  0  0  0
  -30.1600   11.6070  -19.3650 C   0  0  0  0  0  0  0  0  0  0  0  0
  -27.4630   14.0220  -18.3050 C   0  0  0  0  0  0  0  0  0  0  0  0
  -28.6640   13.0900  -18.2270 C   0  0  0  0  0  0  0  0  0  0  0  0
  -29.0140   12.5200  -19.3680 N   0  0  0  0  0  0  0  0  0  0  0  0
  -28.3740   12.7390  -20.5320 C   0  0  0  0  0  0  0  0  0  0  0  0
  -28.7250   12.0760  -22.0700 S   0  0  0  0  0  0  0  0  0  0  0  0
  -29.2560   12.8830  -17.1890 O   0  0  0  0  0  0  0  0  0  0  0  0
  -27.0750   13.8850  -20.0960 S   0  0  0  0  0  0  0  0  0  0  0  0
  -33.5610   11.7860  -20.1520 C   0  0  0  0  0  0  0  0  0  0  0  0
  -34.5420   11.9060  -21.0610 O   0  0  0  0  0  0  0  0  0  0  0  0
  -33.7730   11.2190  -19.1060 O   0  0  0  0  0  0  0  0  0  0  0  0
  -32.3430   13.7860  -20.9660 C   0  0  0  0  0  0  0  0  0  0  0  0
  -31.9250   14.7780  -19.8780 C   0  0  0  0  0  0  0  0  0  0  0  0
  -32.1360   16.2070  -20.3840 C   0  0  0  0  0  0  0  0  0  0  0  0
  -30.8830   17.0380  -20.1030 C   0  0  0  0  0  0  0  0  0  0  0  0
  -29.6920   16.2400  -20.4430 N   0  0  0  0  0  0  0  0  0  0  0  0
  -29.2080   15.9680  -19.5870 H   0  0  0  0  0  0  0  0  0  0  0  0
  -29.9780   15.4040  -20.9530 H   0  0  0  0  0  0  0  0  0  0  0  0
  -29.0650   16.7950  -21.0260 H   0  0  0  0  0  0  0  0  0  0  0  0
  1 16  1  1  0  0  0
  1 13  1  0  0  0  0
  1  2  1  0  0  0  0
  2  4  1  0  0  0  0
  2  3  1  0  0  0  0
  5  2  1  0  0  0  0
  6  7  1  0  0  0  0
  7 11  2  0  0  0  0
  8  5  1  0  0  0  0
  8  7  1  0  0  0  0
  9 12  1  0  0  0  0
  9  8  1  0  0  0  0
 10  9  2  0  0  0  0
 12  6  2  0  0  0  0
 13 15  1  0  0  0  0
 14 13  2  0  0  0  0
 16 17  1  0  0  0  0
 18 19  1  0  0  0  0
 18 17  1  0  0  0  0
 20 19  1  0  0  0  0
 20 21  1  0  0  0  0
 22 20  1  0  0  0  0
 23 20  1  0  0  0  0
M  END
>  <MODEL>
1

>  <REMARK>
 VINA RESULT:      -5.3      0.000      0.000
  Name = ZINC05382434
                            x       y       z     vdW  Elec       q    Type
                         _______ _______ _______ _____ _____    ______ ____

>  <TORSDO>
F 9

>  <vina_score>
-5.3

$$$$
ZINC05113155
 OpenBabel01091702073D

 19 18  0  0  0  0  0  0  0  0999 V2000
  -28.2160   14.9710  -18.9350 C   0  0  0  0  0  0  0  0  0  0  0  0
  -28.4630   14.3860  -20.2970 N   0  0  0  0  0  0  0  0  0  0  0  0
  -29.3610   14.0600  -20.5380 H   0  0  0  0  0  0  0  0  0  0  0  0
  -27.4630   14.3080  -21.1830 C   0  0  0  0  0  0  0  0  0  0  0  0
  -27.7670   13.8370  -22.4380 N   0  0  0  0  0  0  0  0  0  0  0  0
  -27.1490   13.2250  -22.8980 H   0  0  0  0  0  0  0  0  0  0  0  0
  -28.6050   14.1140  -22.8780 H   0  0  0  0  0  0  0  0  0  0  0  0
  -26.1720   14.6720  -20.8800 N   0  0  0  0  0  0  0  0  0  0  0  0
  -25.7410   15.4080  -21.3700 H   0  0  0  0  0  0  0  0  0  0  0  0
  -25.6800   14.1970  -20.1720 H   0  0  0  0  0  0  0  0  0  0  0  0
  -28.3470   13.8560  -17.8950 C   0  0  0  0  0  0  0  0  0  0  0  0
  -29.4140   12.8580  -18.3470 C   0  0  0  0  0  0  0  0  0  0  0  0
  -30.7690   13.2560  -17.7560 C   0  0  0  0  0  0  0  0  0  0  0  0
  -31.8430   13.1700  -18.8420 C   0  0  0  0  0  0  0  0  0  0  0  0
  -31.5860   11.9430  -19.7190 C   0  0  0  0  0  0  0  0  0  0  0  0
  -31.6020   12.4340  -21.4650 S   0  0  0  0  0  0  0  0  0  0  0  0
  -32.2700   11.2740  -22.1910 O   0  0  0  0  0  0  0  0  0  0  0  0
  -30.2770   12.4680  -21.9770 O   0  0  0  0  0  0  0  0  0  0  0  0
  -32.4810   13.5340  -21.6560 O   0  0  0  0  0  0  0  0  0  0  0  0
  1 11  1  0  0  0  0
  2  1  1  0  0  0  0
  3  2  1  0  0  0  0
  4  8  1  0  0  0  0
  4  2  1  0  0  0  0
  5  4  2  0  0  0  0
  6  5  1  0  0  0  0
  7  5  1  0  0  0  0
  8 10  1  0  0  0  0
  9  8  1  0  0  0  0
 12 11  1  0  0  0  0
 12 13  1  0  0  0  0
 14 13  1  0  0  0  0
 15 14  1  0  0  0  0
 16 15  1  0  0  0  0
 17 16  2  0  0  0  0
 18 16  2  0  0  0  0
 19 16  1  0  0  0  0
M  END
>  <MODEL>
1

>  <REMARK>
 VINA RESULT:      -5.2      0.000      0.000
  Name = ZINC05113155
                            x       y       z     vdW  Elec       q    Type
                         _______ _______ _______ _____ _____    ______ ____

>  <TORSDO>
F 9

>  <vina_score>
-5.2

$$$$
ZINC17379574
 OpenBabel01091702103D

 31 31  0  0  0  0  0  0  0  0999 V2000
  -29.4350   13.3630  -18.6670 N   0  0  0  0  0  0  0  0  0  0  0  0
  -29.6980   14.6600  -19.0120 C   0  0  0  0  0  0  0  0  0  0  0  0
  -30.8590   14.9650  -19.6300 C   0  0  0  0  0  0  0  0  0  0  0  0
  -31.7860   13.9300  -19.9040 C   0  0  0  0  0  0  0  0  0  0  0  0
  -31.4860   12.6630  -19.5520 N   0  0  0  0  0  0  0  0  0  0  0  0
  -32.8420   14.1820  -20.4550 O   0  0  0  0  0  0  0  0  0  0  0  0
  -30.3220   12.3870  -18.9370 C   0  0  0  0  0  0  0  0  0  0  0  0
  -30.0670   11.2420  -18.6220 O   0  0  0  0  0  0  0  0  0  0  0  0
  -31.1610   16.3630  -20.0120 N   0  0  0  0  0  0  0  0  0  0  0  0
  -30.2530   17.1300  -20.2800 O   0  0  0  0  0  0  0  0  0  0  0  0
  -32.3160   16.7470  -20.0530 O   0  0  0  0  0  0  0  0  0  0  0  0
  -28.1740   13.0320  -17.9960 C   0  0  0  0  0  0  0  0  0  0  0  0
  -26.5520   13.6530  -19.6770 N   0  0  0  0  0  0  0  0  0  0  0  0
  -27.0740   13.9100  -18.5360 C   0  0  0  0  0  0  0  0  0  0  0  0
  -27.0900   12.6390  -20.4790 N   0  0  0  0  0  0  0  0  0  0  0  0
  -27.0870   11.7070  -20.1640 H   0  0  0  0  0  0  0  0  0  0  0  0
  -27.6130   12.9410  -21.6850 C   0  0  0  0  0  0  0  0  0  0  0  0
  -27.7900   14.5770  -22.1560 S   0  0  0  0  0  0  0  0  0  0  0  0
  -29.3020   11.3140  -22.3440 C   0  0  0  0  0  0  0  0  0  0  0  0
  -27.9970   11.9540  -22.5190 N   0  0  0  0  0  0  0  0  0  0  0  0
  -27.4000   11.6640  -23.2470 H   0  0  0  0  0  0  0  0  0  0  0  0
  -32.4350   11.5840  -19.8340 C   0  0  0  0  0  0  0  0  0  0  0  0
  -32.8070   10.8920  -18.5490 C   0  0  0  0  0  0  0  0  0  0  0  0
  -33.6230   11.4470  -17.7350 N   0  0  0  0  0  0  0  0  0  0  0  0
  -33.9690   10.8030  -16.5400 N   0  0  0  0  0  0  0  0  0  0  0  0
  -34.0180    9.8200  -16.5060 H   0  0  0  0  0  0  0  0  0  0  0  0
  -34.2350   11.5290  -15.4360 C   0  0  0  0  0  0  0  0  0  0  0  0
  -33.9120   13.2100  -15.4180 S   0  0  0  0  0  0  0  0  0  0  0  0
  -34.7550   10.9320  -14.3460 N   0  0  0  0  0  0  0  0  0  0  0  0
  -34.4170   10.0540  -14.0570 H   0  0  0  0  0  0  0  0  0  0  0  0
  -35.8250   11.5890  -13.5900 C   0  0  0  0  0  0  0  0  0  0  0  0
  1 12  1  0  0  0  0
  2  1  1  0  0  0  0
  3  2  2  0  0  0  0
  4  3  1  0  0  0  0
  4  5  1  0  0  0  0
  5  7  1  0  0  0  0
  6  4  2  0  0  0  0
  7  1  1  0  0  0  0
  7  8  2  0  0  0  0
  9  3  1  0  0  0  0
 10  9  2  0  0  0  0
 11  9  2  0  0  0  0
 13 14  2  0  0  0  0
 14 12  1  0  0  0  0
 15 16  1  0  0  0  0
 15 13  1  0  0  0  0
 17 15  1  0  0  0  0
 18 17  2  0  0  0  0
 20 19  1  0  0  0  0
 20 17  1  0  0  0  0
 21 20  1  0  0  0  0
 22  5  1  0  0  0  0
 22 23  1  0  0  0  0
 23 24  2  0  0  0  0
 24 25  1  0  0  0  0
 25 26  1  0  0  0  0
 25 27  1  0  0  0  0
 27 28  2  0  0  0  0
 27 29  1  0  0  0  0
 29 30  1  0  0  0  0
 29 31  1  0  0  0  0
M  END
>  <MODEL>
1

>  <REMARK>
 VINA RESULT:      -5.2      0.000      0.000
  Name = ZINC17379574
                            x       y       z     vdW  Elec       q    Type
                         _______ _______ _______ _____ _____    ______ ____

>  <TORSDO>
F 11

>  <vina_score>
-5.2

$$$$
ZINC06425106
 OpenBabel01091701533D

 22 21  0  0  1  0  0  0  0  0999 V2000
  -28.2580   13.2600  -19.1560 C   0  0  1  0  0  0  0  0  0  0  0  0
  -27.7730   12.4570  -18.0790 O   0  0  0  0  0  0  0  0  0  0  0  0
  -26.8770   12.1470  -18.2830 H   0  0  0  0  0  0  0  0  0  0  0  0
  -29.2080   14.3270  -18.6100 C   0  0  2  0  0  0  0  0  0  0  0  0
  -30.6030   12.5260  -17.7690 N   0  0  0  0  0  0  0  0  0  0  0  0
  -30.1170   13.7100  -17.5780 C   0  0  0  0  0  0  0  0  0  0  0  0
  -32.7470   11.8950  -17.0260 C   0  0  0  0  0  0  0  0  0  0  0  0
  -33.4200   12.5400  -18.5210 S   0  0  0  0  0  0  0  0  0  0  0  0
  -31.4470   11.9530  -16.8100 N   0  0  0  0  0  0  0  0  0  0  0  0
  -34.4770   12.6740  -15.0540 C   0  0  0  0  0  0  0  0  0  0  0  0
  -33.8090   11.1750  -15.8190 S   0  0  0  0  0  0  0  0  0  0  0  0
  -29.9930   14.8590  -19.6800 O   0  0  0  0  0  0  0  0  0  0  0  0
  -29.4060   15.2240  -20.3610 H   0  0  0  0  0  0  0  0  0  0  0  0
  -27.0790   13.9370  -19.8580 C   0  0  2  0  0  0  0  0  0  0  0  0
  -27.0060   15.3060  -19.4530 O   0  0  0  0  0  0  0  0  0  0  0  0
  -26.7440   15.3530  -18.5200 H   0  0  0  0  0  0  0  0  0  0  0  0
  -27.2770   13.8640  -21.3740 C   0  0  2  0  0  0  0  0  0  0  0  0
  -27.9520   15.0390  -21.8240 O   0  0  0  0  0  0  0  0  0  0  0  0
  -28.8110   15.1080  -21.3790 H   0  0  0  0  0  0  0  0  0  0  0  0
  -28.1120   12.6290  -21.7200 C   0  0  0  0  0  0  0  0  0  0  0  0
  -29.4200   13.0370  -22.1220 O   0  0  0  0  0  0  0  0  0  0  0  0
  -29.4630   14.0060  -22.1490 H   0  0  0  0  0  0  0  0  0  0  0  0
  1  4  1  0  0  0  0
  1  2  1  1  0  0  0
  3  2  1  0  0  0  0
  4 12  1  6  0  0  0
  4  6  1  0  0  0  0
  5  6  2  0  0  0  0
  5  9  1  0  0  0  0
  7  9  1  0  0  0  0
  7 11  1  0  0  0  0
  8  7  2  0  0  0  0
 11 10  1  0  0  0  0
 13 12  1  0  0  0  0
 14 15  1  1  0  0  0
 14  1  1  0  0  0  0
 15 16  1  0  0  0  0
 17 18  1  1  0  0  0
 17 14  1  0  0  0  0
 18 19  1  0  0  0  0
 20 17  1  0  0  0  0
 21 20  1  0  0  0  0
 22 21  1  0  0  0  0
M  END
>  <MODEL>
1

>  <REMARK>
 VINA RESULT:      -5.2      0.000      0.000
  Name = ZINC06425106
                            x       y       z     vdW  Elec       q    Type
                         _______ _______ _______ _____ _____    ______ ____

>  <TORSDO>
F 12

>  <vina_score>
-5.2

$$$$
ZINC23697636
 OpenBabel01091701573D

 22 22  0  0  1  0  0  0  0  0999 V2000
  -30.6790   13.1710  -19.6080 N   0  0  0  0  0  0  0  0  0  0  0  0
  -30.2480   14.0560  -19.5720 H   0  0  0  0  0  0  0  0  0  0  0  0
  -30.2100   12.2260  -20.4480 C   0  0  0  0  0  0  0  0  0  0  0  0
  -30.7400   11.1360  -20.4920 O   0  0  0  0  0  0  0  0  0  0  0  0
  -33.1140   12.3030  -17.0300 C   0  0  2  0  0  0  0  0  0  0  0  0
  -33.3870   13.2300  -15.8440 C   0  0  0  0  0  0  0  0  0  0  0  0
  -31.6870   12.4640  -17.5140 C   0  0  0  0  0  0  0  0  0  0  0  0
  -31.7800   12.8950  -18.7880 N   0  0  0  0  0  0  0  0  0  0  0  0
  -33.0550   13.0290  -19.1710 C   0  0  0  0  0  0  0  0  0  0  0  0
  -33.3930   13.4040  -20.2760 O   0  0  0  0  0  0  0  0  0  0  0  0
  -30.6720   12.2500  -16.8860 O   0  0  0  0  0  0  0  0  0  0  0  0
  -33.9220   12.7000  -18.1960 N   0  0  0  0  0  0  0  0  0  0  0  0
  -34.0900   10.8030  -15.2870 C   0  0  0  0  0  0  0  0  0  0  0  0
  -33.3960   10.8480  -16.6490 C   0  0  0  0  0  0  0  0  0  0  0  0
  -29.0250   12.5230  -21.3290 C   0  0  0  0  0  0  0  0  0  0  0  0
  -27.7860   12.3480  -20.5600 N   0  0  0  0  0  0  0  0  0  0  0  0
  -28.0270   12.0150  -19.6280 H   0  0  0  0  0  0  0  0  0  0  0  0
  -27.1900   11.6720  -21.0390 H   0  0  0  0  0  0  0  0  0  0  0  0
  -27.0610   13.6200  -20.4310 C   0  0  0  0  0  0  0  0  0  0  0  0
  -27.4320   14.2860  -19.1060 C   0  0  0  0  0  0  0  0  0  0  0  0
  -27.4410   14.5420  -21.5910 C   0  0  0  0  0  0  0  0  0  0  0  0
  -25.5550   13.3530  -20.4650 C   0  0  0  0  0  0  0  0  0  0  0  0
  1  2  1  0  0  0  0
  1  8  1  0  0  0  0
  3  1  1  0  0  0  0
  4  3  2  0  0  0  0
  5 14  1  1  0  0  0
  5  6  1  0  0  0  0
  7  5  1  0  0  0  0
  7 11  2  0  0  0  0
  8  7  1  0  0  0  0
  9  8  1  0  0  0  0
  9 12  1  0  0  0  0
 10  9  2  0  0  0  0
 12  5  1  0  0  0  0
 14 13  1  0  0  0  0
 15 16  1  0  0  0  0
 15  3  1  0  0  0  0
 16 19  1  0  0  0  0
 16 17  1  0  0  0  0
 18 16  1  0  0  0  0
 19 20  1  0  0  0  0
 21 19  1  0  0  0  0
 22 19  1  0  0  0  0
M  END
>  <MODEL>
1

>  <REMARK>
 VINA RESULT:      -5.2      0.000      0.000
  Name = ZINC23697636
                            x       y       z     vdW  Elec       q    Type
                         _______ _______ _______ _____ _____    ______ ____

>  <TORSDO>
F 5

>  <vina_score>
-5.2

$$$$
ZINC13282339
 OpenBabel01091702003D

 19 19  0  0  1  0  0  0  0  0999 V2000
  -29.3700   14.4000  -18.1320 C   0  0  2  0  0  0  0  0  0  0  0  0
  -28.2270   14.0430  -17.3520 O   0  0  0  0  0  0  0  0  0  0  0  0
  -28.2920   14.4570  -16.4770 H   0  0  0  0  0  0  0  0  0  0  0  0
  -30.0410   13.1320  -18.6650 C   0  0  0  0  0  0  0  0  0  0  0  0
  -33.1720   12.7050  -16.9310 C   0  0  0  0  0  0  0  0  0  0  0  0
  -31.8330   12.5740  -16.9690 C   0  0  0  0  0  0  0  0  0  0  0  0
  -31.4200   13.0670  -18.1780 N   0  0  0  0  0  0  0  0  0  0  0  0
  -32.5230   13.4880  -18.8340 C   0  0  0  0  0  0  0  0  0  0  0  0
  -33.5670   13.2640  -18.0850 N   0  0  0  0  0  0  0  0  0  0  0  0
  -32.5430   14.0990  -20.1820 N   0  0  0  0  0  0  0  0  0  0  0  0
  -32.7650   13.4100  -21.1610 O   0  0  0  0  0  0  0  0  0  0  0  0
  -32.3390   15.2940  -20.3120 O   0  0  0  0  0  0  0  0  0  0  0  0
  -28.9330   15.2790  -19.3050 C   0  0  0  0  0  0  0  0  0  0  0  0
  -29.2230   14.5770  -20.5700 N   0  0  0  0  0  0  0  0  0  0  0  0
  -29.5310   13.6290  -20.3590 H   0  0  0  0  0  0  0  0  0  0  0  0
  -29.9560   15.0790  -21.0720 H   0  0  0  0  0  0  0  0  0  0  0  0
  -28.0130   14.5150  -21.4100 C   0  0  0  0  0  0  0  0  0  0  0  0
  -27.4820   13.0800  -21.4180 C   0  0  0  0  0  0  0  0  0  0  0  0
  -25.9460   12.9420  -20.1970 Br  0  0  0  0  0  0  0  0  0  0  0  0
  1 13  1  6  0  0  0
  1  2  1  0  0  0  0
  2  3  1  0  0  0  0
  4  7  1  0  0  0  0
  4  1  1  0  0  0  0
  6  5  2  0  0  0  0
  7  6  1  0  0  0  0
  8  7  1  0  0  0  0
  8  9  2  0  0  0  0
  9  5  1  0  0  0  0
 10  8  1  0  0  0  0
 11 10  2  0  0  0  0
 12 10  2  0  0  0  0
 14 15  1  0  0  0  0
 14 13  1  0  0  0  0
 16 14  1  0  0  0  0
 17 14  1  0  0  0  0
 18 17  1  0  0  0  0
 18 19  1  0  0  0  0
M  END
>  <MODEL>
1

>  <REMARK>
 VINA RESULT:      -5.2      0.000      0.000
  Name = ZINC13282339
                            x       y       z     vdW  Elec       q    Type
                         _______ _______ _______ _____ _____    ______ ____

>  <TORSDO>
F 8

>  <vina_score>
-5.2

$$$$
ZINC29577773
 OpenBabel01091702053D

 31 32  0  0  1  0  0  0  0  0999 V2000
  -30.3340   14.8590  -19.4570 C   0  0  0  0  0  0  0  0  0  0  0  0
  -30.3770   13.7770  -18.6550 N   0  0  0  0  0  0  0  0  0  0  0  0
  -29.5540   13.4500  -18.2250 H   0  0  0  0  0  0  0  0  0  0  0  0
  -31.3610   15.3290  -19.8970 O   0  0  0  0  0  0  0  0  0  0  0  0
  -31.5920   13.1180  -18.4330 C   0  0  0  0  0  0  0  0  0  0  0  0
  -32.1490   13.1010  -17.1630 C   0  0  0  0  0  0  0  0  0  0  0  0
  -33.3600   12.4450  -16.9380 C   0  0  0  0  0  0  0  0  0  0  0  0
  -34.0090   11.8050  -17.9920 C   0  0  0  0  0  0  0  0  0  0  0  0
  -33.4480   11.8220  -19.2670 C   0  0  0  0  0  0  0  0  0  0  0  0
  -32.2330   12.4760  -19.4830 C   0  0  0  0  0  0  0  0  0  0  0  0
  -33.9530   12.4280  -15.5850 C   0  0  0  0  0  0  0  0  0  0  0  0
  -33.9360   13.4330  -14.9030 O   0  0  0  0  0  0  0  0  0  0  0  0
  -34.5120   11.2990  -15.1080 O   0  0  0  0  0  0  0  0  0  0  0  0
  -35.3660   11.4290  -13.9400 C   0  0  0  0  0  0  0  0  0  0  0  0
  -34.1310   11.1430  -20.3870 C   0  0  0  0  0  0  0  0  0  0  0  0
  -35.2920   10.8030  -20.2740 O   0  0  0  0  0  0  0  0  0  0  0  0
  -33.4660   10.9010  -21.5330 O   0  0  0  0  0  0  0  0  0  0  0  0
  -32.0160   10.9590  -21.4780 C   0  0  0  0  0  0  0  0  0  0  0  0
  -28.8280   16.7760  -19.0050 C   0  0  0  0  0  0  0  0  0  0  0  0
  -29.0090   15.4850  -19.8080 C   0  0  1  0  0  0  0  0  0  0  0  0
  -27.9270   14.5530  -19.4850 N   0  0  0  0  0  0  0  0  0  0  0  0
  -27.5320   14.4360  -18.2350 C   0  0  0  0  0  0  0  0  0  0  0  0
  -26.5150   13.5620  -17.8890 C   0  0  0  0  0  0  0  0  0  0  0  0
  -25.9010   12.8080  -18.8770 C   0  0  0  0  0  0  0  0  0  0  0  0
  -26.3340   12.9550  -20.1850 C   0  0  0  0  0  0  0  0  0  0  0  0
  -27.3650   13.8500  -20.4600 C   0  0  0  0  0  0  0  0  0  0  0  0
  -27.8390   14.0190  -21.8540 C   0  0  0  0  0  0  0  0  0  0  0  0
  -27.9250   15.2530  -22.3900 N   0  0  0  0  0  0  0  0  0  0  0  0
  -28.2400   15.3660  -23.3160 H   0  0  0  0  0  0  0  0  0  0  0  0
  -27.6740   16.0410  -21.8560 H   0  0  0  0  0  0  0  0  0  0  0  0
  -28.1500   13.0470  -22.5130 O   0  0  0  0  0  0  0  0  0  0  0  0
  1  2  1  0  0  0  0
  2  5  1  0  0  0  0
  2  3  1  0  0  0  0
  4  1  2  0  0  0  0
  5  6  2  0  0  0  0
  6  7  1  0  0  0  0
  7 11  1  0  0  0  0
  8  7  2  0  0  0  0
  9  8  1  0  0  0  0
 10  9  2  0  0  0  0
 10  5  1  0  0  0  0
 11 13  1  0  0  0  0
 11 12  2  0  0  0  0
 13 14  1  0  0  0  0
 15 16  2  0  0  0  0
 15  9  1  0  0  0  0
 17 18  1  0  0  0  0
 17 15  1  0  0  0  0
 20 21  1  1  0  0  0
 20  1  1  0  0  0  0
 20 19  1  0  0  0  0
 21 22  1  0  0  0  0
 22 23  2  0  0  0  0
 24 23  1  0  0  0  0
 25 24  1  0  0  0  0
 26 25  2  0  0  0  0
 26 21  1  0  0  0  0
 27 26  1  0  0  0  0
 28 30  1  0  0  0  0
 28 27  1  0  0  0  0
 29 28  1  0  0  0  0
 31 27  2  0  0  0  0
M  END
>  <MODEL>
1

>  <REMARK>
 VINA RESULT:      -5.1      0.000      0.000
  Name = ZINC29577773
                            x       y       z     vdW  Elec       q    Type
                         _______ _______ _______ _____ _____    ______ ____

>  <TORSDO>
F 8

>  <vina_score>
-5.1

$$$$
ZINC06086015
 OpenBabel01091702063D

 29 30  0  0  0  0  0  0  0  0999 V2000
  -28.4820   15.2820  -18.5860 C   0  0  0  0  0  0  0  0  0  0  0  0
  -28.2700   16.3540  -18.0560 O   0  0  0  0  0  0  0  0  0  0  0  0
  -31.8570   14.0260  -18.9300 C   0  0  0  0  0  0  0  0  0  0  0  0
  -30.6510   14.1240  -18.2030 C   0  0  0  0  0  0  0  0  0  0  0  0
  -30.3490   13.4830  -16.8730 C   0  0  0  0  0  0  0  0  0  0  0  0
  -29.8020   14.9180  -18.9420 C   0  0  0  0  0  0  0  0  0  0  0  0
  -30.4630   15.2940  -20.0950 N   0  0  0  0  0  0  0  0  0  0  0  0
  -30.0900   15.8620  -20.8070 H   0  0  0  0  0  0  0  0  0  0  0  0
  -31.6940   14.7610  -20.0910 C   0  0  0  0  0  0  0  0  0  0  0  0
  -32.7300   14.9340  -21.1730 C   0  0  0  0  0  0  0  0  0  0  0  0
  -33.0600   13.2780  -18.5300 C   0  0  0  0  0  0  0  0  0  0  0  0
  -33.5900   12.5150  -19.3140 O   0  0  0  0  0  0  0  0  0  0  0  0
  -33.5750   13.4390  -17.2950 O   0  0  0  0  0  0  0  0  0  0  0  0
  -34.3990   12.5560  -15.1810 C   0  0  0  0  0  0  0  0  0  0  0  0
  -33.5130   12.2980  -16.4000 C   0  0  0  0  0  0  0  0  0  0  0  0
  -27.3390   14.3410  -18.8660 C   0  0  0  0  0  0  0  0  0  0  0  0
  -26.5090   14.8960  -19.9520 N   0  0  0  0  0  0  0  0  0  0  0  0
  -26.6050   15.9110  -19.9560 H   0  0  0  0  0  0  0  0  0  0  0  0
  -25.5350   14.6380  -19.7960 H   0  0  0  0  0  0  0  0  0  0  0  0
  -26.9520   14.3670  -21.2560 C   0  0  0  0  0  0  0  0  0  0  0  0
  -27.3560   12.9010  -21.0900 C   0  0  0  0  0  0  0  0  0  0  0  0
  -28.2010   12.4670  -22.2890 C   0  0  0  0  0  0  0  0  0  0  0  0
  -29.2710   11.5600  -21.8160 N   0  0  0  0  0  0  0  0  0  0  0  0
  -28.9650   10.5960  -21.9410 H   0  0  0  0  0  0  0  0  0  0  0  0
  -29.5380   11.8000  -20.3820 C   0  0  0  0  0  0  0  0  0  0  0  0
  -30.6220   10.8250  -19.9160 C   0  0  0  0  0  0  0  0  0  0  0  0
  -31.7950   11.0060  -20.7130 O   0  0  0  0  0  0  0  0  0  0  0  0
  -31.5780   10.8050  -22.1120 C   0  0  0  0  0  0  0  0  0  0  0  0
  -30.5040   11.7800  -22.6010 C   0  0  0  0  0  0  0  0  0  0  0  0
  1  2  2  0  0  0  0
  3 11  1  0  0  0  0
  3  4  1  0  0  0  0
  4  5  1  0  0  0  0
  6  1  1  0  0  0  0
  6  4  2  0  0  0  0
  7  9  1  0  0  0  0
  7  6  1  0  0  0  0
  8  7  1  0  0  0  0
  9  3  2  0  0  0  0
 10  9  1  0  0  0  0
 11 13  1  0  0  0  0
 12 11  2  0  0  0  0
 13 15  1  0  0  0  0
 15 14  1  0  0  0  0
 16  1  1  0  0  0  0
 17 19  1  0  0  0  0
 17 16  1  0  0  0  0
 18 17  1  0  0  0  0
 20 21  1  0  0  0  0
 20 17  1  0  0  0  0
 22 23  1  0  0  0  0
 22 21  1  0  0  0  0
 23 25  1  0  0  0  0
 24 23  1  0  0  0  0
 25 26  1  0  0  0  0
 27 26  1  0  0  0  0
 28 27  1  0  0  0  0
 29 28  1  0  0  0  0
 29 23  1  0  0  0  0
M  END
>  <MODEL>
1

>  <REMARK>
 VINA RESULT:      -5.1      0.000      0.000
  Name = ZINC06086015
                            x       y       z     vdW  Elec       q    Type
                         _______ _______ _______ _____ _____    ______ ____

>  <TORSDO>
F 10

>  <vina_score>
-5.1

$$$$
ZINC20836503
 OpenBabel01091702133D

 28 29  0  0  0  0  0  0  0  0999 V2000
  -29.3430   13.1850  -17.8280 C   0  0  0  0  0  0  0  0  0  0  0  0
  -28.6210   12.8440  -18.9380 N   0  0  0  0  0  0  0  0  0  0  0  0
  -27.6580   13.7950  -19.1240 C   0  0  0  0  0  0  0  0  0  0  0  0
  -27.7800   14.6870  -18.1700 N   0  0  0  0  0  0  0  0  0  0  0  0
  -28.8500   14.3030  -17.3520 N   0  0  0  0  0  0  0  0  0  0  0  0
  -29.1750   14.7870  -16.5590 H   0  0  0  0  0  0  0  0  0  0  0  0
  -30.4130   12.4760  -17.3010 N   0  0  0  0  0  0  0  0  0  0  0  0
  -30.3040   11.5280  -17.0600 H   0  0  0  0  0  0  0  0  0  0  0  0
  -34.5970   11.3040  -14.9610 C   0  0  0  0  0  0  0  0  0  0  0  0
  -34.6190   12.8050  -15.2540 C   0  0  0  0  0  0  0  0  0  0  0  0
  -34.0360   13.0620  -16.6470 C   0  0  0  0  0  0  0  0  0  0  0  0
  -32.6610   12.4320  -16.7160 C   0  0  0  0  0  0  0  0  0  0  0  0
  -32.5140   10.9840  -16.3090 C   0  0  0  0  0  0  0  0  0  0  0  0
  -31.6490   13.1090  -17.1130 N   0  0  0  0  0  0  0  0  0  0  0  0
  -33.1520   10.8040  -14.9230 C   0  0  0  0  0  0  0  0  0  0  0  0
  -26.4640   13.8200  -20.4190 S   0  0  0  0  0  0  0  0  0  0  0  0
  -27.4480   14.0980  -21.9190 C   0  0  0  0  0  0  0  0  0  0  0  0
  -28.4320   12.9700  -22.0890 C   0  0  0  0  0  0  0  0  0  0  0  0
  -29.7430   13.1790  -21.8550 N   0  0  0  0  0  0  0  0  0  0  0  0
  -30.0580   14.0680  -21.5730 H   0  0  0  0  0  0  0  0  0  0  0  0
  -28.0450   11.8740  -22.4360 O   0  0  0  0  0  0  0  0  0  0  0  0
  -30.6580   12.1300  -22.0130 N   0  0  0  0  0  0  0  0  0  0  0  0
  -31.8820   12.2140  -21.4550 C   0  0  0  0  0  0  0  0  0  0  0  0
  -32.6160   11.2480  -21.4540 O   0  0  0  0  0  0  0  0  0  0  0  0
  -32.3400   13.5080  -20.8310 C   0  0  0  0  0  0  0  0  0  0  0  0
  -33.3880   13.2510  -19.9400 F   0  0  0  0  0  0  0  0  0  0  0  0
  -32.7820   14.3770  -21.8330 F   0  0  0  0  0  0  0  0  0  0  0  0
  -31.2740   14.0950  -20.1410 F   0  0  0  0  0  0  0  0  0  0  0  0
  1  5  1  0  0  0  0
  1  7  1  0  0  0  0
  2  1  2  0  0  0  0
  3  2  1  0  0  0  0
  3  4  2  0  0  0  0
  4  5  1  0  0  0  0
  5  6  1  0  0  0  0
  7 14  1  0  0  0  0
  7  8  1  0  0  0  0
  9 15  1  0  0  0  0
 10  9  1  0  0  0  0
 11 10  1  0  0  0  0
 12 11  1  0  0  0  0
 12 13  1  0  0  0  0
 13 15  1  0  0  0  0
 14 12  2  0  0  0  0
 16  3  1  0  0  0  0
 17 16  1  0  0  0  0
 18 17  1  0  0  0  0
 18 19  1  0  0  0  0
 19 20  1  0  0  0  0
 21 18  2  0  0  0  0
 22 19  1  0  0  0  0
 22 23  1  0  0  0  0
 23 24  2  0  0  0  0
 23 25  1  0  0  0  0
 25 28  1  0  0  0  0
 25 26  1  0  0  0  0
 27 25  1  0  0  0  0
M  END
>  <MODEL>
1

>  <REMARK>
 VINA RESULT:      -5.1      0.000      0.000
  Name = ZINC20836503
                            x       y       z     vdW  Elec       q    Type
                         _______ _______ _______ _____ _____    ______ ____

>  <TORSDO>
F 8

>  <vina_score>
-5.1

$$$$
ZINC05791983
 OpenBabel01091701583D

 29 30  0  0  1  0  0  0  0  0999 V2000
  -28.2870   12.2740  -20.3140 C   0  0  2  0  0  0  0  0  0  0  0  0
  -28.8380   12.6940  -21.6640 C   0  0  0  0  0  0  0  0  0  0  0  0
  -30.1750   12.8520  -21.7700 N   0  0  0  0  0  0  0  0  0  0  0  0
  -30.5560   13.1280  -22.6350 H   0  0  0  0  0  0  0  0  0  0  0  0
  -30.9970   12.6460  -20.7350 C   0  0  0  0  0  0  0  0  0  0  0  0
  -30.6040   12.2820  -19.5090 N   0  0  0  0  0  0  0  0  0  0  0  0
  -32.1880   12.8070  -20.9200 O   0  0  0  0  0  0  0  0  0  0  0  0
  -28.1060   12.8800  -22.6130 O   0  0  0  0  0  0  0  0  0  0  0  0
  -29.3050   12.0730  -19.2070 C   0  0  0  0  0  0  0  0  0  0  0  0
  -28.9640   11.7400  -18.0930 O   0  0  0  0  0  0  0  0  0  0  0  0
  -31.5730   12.1050  -18.5080 C   0  0  0  0  0  0  0  0  0  0  0  0
  -31.7170   13.0550  -17.5070 C   0  0  0  0  0  0  0  0  0  0  0  0
  -32.6700   12.8810  -16.5230 C   0  0  0  0  0  0  0  0  0  0  0  0
  -33.4820   11.7560  -16.5350 C   0  0  0  0  0  0  0  0  0  0  0  0
  -33.3340   10.8040  -17.5320 C   0  0  0  0  0  0  0  0  0  0  0  0
  -32.3850   10.9800  -18.5200 C   0  0  0  0  0  0  0  0  0  0  0  0
  -34.4200   11.5850  -15.5650 O   0  0  0  0  0  0  0  0  0  0  0  0
  -34.5740   12.6450  -14.6180 C   0  0  0  0  0  0  0  0  0  0  0  0
  -27.3050   13.3240  -19.8630 C   0  0  0  0  0  0  0  0  0  0  0  0
  -26.0500   12.9930  -19.6220 C   0  0  0  0  0  0  0  0  0  0  0  0
  -27.7890   14.6570  -19.7140 N   0  0  0  0  0  0  0  0  0  0  0  0
  -28.1440   15.1780  -20.4700 H   0  0  0  0  0  0  0  0  0  0  0  0
  -27.7180   15.2070  -18.3170 C   0  0  0  0  0  0  0  0  0  0  0  0
  -28.9610   16.0760  -18.1120 C   0  0  0  0  0  0  0  0  0  0  0  0
  -30.1180   15.5140  -18.9410 C   0  0  0  0  0  0  0  0  0  0  0  0
  -29.8750   17.1730  -20.6890 C   0  0  0  0  0  0  0  0  0  0  0  0
  -30.7790   16.6290  -19.6530 N   0  0  0  0  0  0  0  0  0  0  0  0
  -30.9970   17.3660  -18.9830 H   0  0  0  0  0  0  0  0  0  0  0  0
  -32.0340   16.1570  -20.2750 C   0  0  0  0  0  0  0  0  0  0  0  0
  1 19  1  1  0  0  0
  1  9  1  0  0  0  0
  2  1  1  0  0  0  0
  3  2  1  0  0  0  0
  3  5  1  0  0  0  0
  4  3  1  0  0  0  0
  5  6  1  0  0  0  0
  6  9  1  0  0  0  0
  6 11  1  0  0  0  0
  7  5  2  0  0  0  0
  8  2  2  0  0  0  0
  9 10  2  0  0  0  0
 11 12  1  0  0  0  0
 12 13  2  0  0  0  0
 14 13  1  0  0  0  0
 14 17  1  0  0  0  0
 15 14  2  0  0  0  0
 16 11  2  0  0  0  0
 16 15  1  0  0  0  0
 17 18  1  0  0  0  0
 19 21  2  0  0  0  0
 19 20  1  0  0  0  0
 21 23  1  0  0  0  0
 22 21  1  0  0  0  0
 23 24  1  0  0  0  0
 25 24  1  0  0  0  0
 26 27  1  0  0  0  0
 27 28  1  0  0  0  0
 27 25  1  0  0  0  0
 29 27  1  0  0  0  0
M  END
>  <MODEL>
1

>  <REMARK>
 VINA RESULT:      -5.1      0.000      0.000
  Name = ZINC05791983
                            x       y       z     vdW  Elec       q    Type
                         _______ _______ _______ _____ _____    ______ ____

>  <TORSDO>
F 8

>  <vina_score>
-5.1

$$$$
ZINC09546414
 OpenBabel01091701523D

 29 31  0  0  0  0  0  0  0  0999 V2000
  -29.5440   12.3110  -20.2800 C   0  0  0  0  0  0  0  0  0  0  0  0
  -28.3870   12.9110  -20.6930 C   0  0  0  0  0  0  0  0  0  0  0  0
  -28.5980   13.4520  -21.9060 N   0  0  0  0  0  0  0  0  0  0  0  0
  -29.8080   13.2180  -22.2780 N   0  0  0  0  0  0  0  0  0  0  0  0
  -30.4510   12.4930  -21.2650 N   0  0  0  0  0  0  0  0  0  0  0  0
  -31.7760   12.0440  -21.2720 C   0  0  0  0  0  0  0  0  0  0  0  0
  -32.9570   12.8520  -20.9510 C   0  0  0  0  0  0  0  0  0  0  0  0
  -34.0140   12.0950  -21.0650 N   0  0  0  0  0  0  0  0  0  0  0  0
  -33.5830   10.8030  -21.4530 O   0  0  0  0  0  0  0  0  0  0  0  0
  -32.1710   10.8390  -21.5700 N   0  0  0  0  0  0  0  0  0  0  0  0
  -32.9510   14.1940  -20.5880 N   0  0  0  0  0  0  0  0  0  0  0  0
  -33.2080   14.4580  -19.6750 H   0  0  0  0  0  0  0  0  0  0  0  0
  -32.6910   14.8800  -21.2440 H   0  0  0  0  0  0  0  0  0  0  0  0
  -27.1250   12.9640  -19.9340 C   0  0  0  0  0  0  0  0  0  0  0  0
  -26.0770   12.6770  -20.4770 O   0  0  0  0  0  0  0  0  0  0  0  0
  -27.1340   13.3300  -18.6370 O   0  0  0  0  0  0  0  0  0  0  0  0
  -27.1920   14.7520  -18.3530 C   0  0  0  0  0  0  0  0  0  0  0  0
  -28.3480   15.0340  -17.3920 C   0  0  0  0  0  0  0  0  0  0  0  0
  -29.7640   11.5850  -18.9780 C   0  0  0  0  0  0  0  0  0  0  0  0
  -32.9510   12.3130  -16.3060 N   0  0  0  0  0  0  0  0  0  0  0  0
  -32.3580   11.9960  -15.5400 H   0  0  0  0  0  0  0  0  0  0  0  0
  -32.3160   13.4780  -16.9560 C   0  0  0  0  0  0  0  0  0  0  0  0
  -30.9290   13.0670  -17.4580 C   0  0  0  0  0  0  0  0  0  0  0  0
  -31.0840   11.9680  -18.4350 N   0  0  0  0  0  0  0  0  0  0  0  0
  -31.6780   12.2850  -19.2020 H   0  0  0  0  0  0  0  0  0  0  0  0
  -31.7210   10.8030  -17.7850 C   0  0  0  0  0  0  0  0  0  0  0  0
  -33.1060   11.2140  -17.2820 C   0  0  0  0  0  0  0  0  0  0  0  0
  -34.6870   11.6720  -14.7050 C   0  0  0  0  0  0  0  0  0  0  0  0
  -34.2730   12.6960  -15.7630 C   0  0  0  0  0  0  0  0  0  0  0  0
  1 19  1  0  0  0  0
  2  1  2  0  0  0  0
  2 14  1  0  0  0  0
  3  2  1  0  0  0  0
  4  3  2  0  0  0  0
  4  5  1  0  0  0  0
  5  1  1  0  0  0  0
  6  5  1  0  0  0  0
  6  7  1  0  0  0  0
  7 11  1  0  0  0  0
  8  7  2  0  0  0  0
  9  8  1  0  0  0  0
 10  9  1  0  0  0  0
 10  6  2  0  0  0  0
 11 12  1  0  0  0  0
 13 11  1  0  0  0  0
 14 16  1  0  0  0  0
 15 14  2  0  0  0  0
 16 17  1  0  0  0  0
 17 18  1  0  0  0  0
 19 24  1  0  0  0  0
 20 29  1  0  0  0  0
 20 21  1  0  0  0  0
 22 20  1  0  0  0  0
 23 22  1  0  0  0  0
 24 26  1  0  0  0  0
 24 23  1  0  0  0  0
 25 24  1  0  0  0  0
 26 27  1  0  0  0  0
 27 20  1  0  0  0  0
 29 28  1  0  0  0  0
M  END
>  <MODEL>
1

>  <REMARK>
 VINA RESULT:      -5.1      0.000      0.000
  Name = ZINC09546414
                            x       y       z     vdW  Elec       q    Type
                         _______ _______ _______ _____ _____    ______ ____

>  <TORSDO>
F 8

>  <vina_score>
-5.1

$$$$
ZINC18086138
 OpenBabel01091702003D

 25 26  0  0  0  0  0  0  0  0999 V2000
  -27.4990   14.1820  -21.2250 C   0  0  0  0  0  0  0  0  0  0  0  0
  -26.7410   13.8770  -20.2180 N   0  0  0  0  0  0  0  0  0  0  0  0
  -32.2420   14.9700  -20.1110 C   0  0  0  0  0  0  0  0  0  0  0  0
  -31.1950   14.1350  -20.7030 N   0  0  0  0  0  0  0  0  0  0  0  0
  -29.8980   14.5630  -20.6710 C   0  0  0  0  0  0  0  0  0  0  0  0
  -29.5830   15.7410  -20.0990 O   0  0  0  0  0  0  0  0  0  0  0  0
  -28.9050   13.7630  -21.2380 C   0  0  0  0  0  0  0  0  0  0  0  0
  -29.3090   12.4890  -21.8400 C   0  0  0  0  0  0  0  0  0  0  0  0
  -30.6150   12.1530  -21.8290 N   0  0  0  0  0  0  0  0  0  0  0  0
  -31.0430   10.8860  -22.4290 C   0  0  0  0  0  0  0  0  0  0  0  0
  -28.4830   11.7510  -22.3440 O   0  0  0  0  0  0  0  0  0  0  0  0
  -31.5290   12.9640  -21.2680 C   0  0  0  0  0  0  0  0  0  0  0  0
  -32.6960   12.6260  -21.2740 O   0  0  0  0  0  0  0  0  0  0  0  0
  -27.2680   13.0520  -19.1270 C   0  0  0  0  0  0  0  0  0  0  0  0
  -27.5250   13.9310  -17.9020 C   0  0  0  0  0  0  0  0  0  0  0  0
  -28.9150   13.6280  -17.3400 C   0  0  0  0  0  0  0  0  0  0  0  0
  -29.4470   12.4160  -17.9900 N   0  0  0  0  0  0  0  0  0  0  0  0
  -29.5670   12.6000  -18.9870 H   0  0  0  0  0  0  0  0  0  0  0  0
  -28.7920   11.6460  -17.8540 H   0  0  0  0  0  0  0  0  0  0  0  0
  -30.7530   12.0540  -17.4090 C   0  0  0  0  0  0  0  0  0  0  0  0
  -31.5310   11.1860  -18.4020 C   0  0  0  0  0  0  0  0  0  0  0  0
  -32.8890   10.8190  -17.8020 C   0  0  0  0  0  0  0  0  0  0  0  0
  -33.6810   12.0950  -17.5110 C   0  0  0  0  0  0  0  0  0  0  0  0
  -32.9040   12.9630  -16.5200 C   0  0  0  0  0  0  0  0  0  0  0  0
  -31.5460   13.3310  -17.1200 C   0  0  0  0  0  0  0  0  0  0  0  0
  1  2  2  0  0  0  0
  2 14  1  0  0  0  0
  4  5  1  0  0  0  0
  4  3  1  0  0  0  0
  5  6  2  0  0  0  0
  7  1  1  0  0  0  0
  7  5  1  0  0  0  0
  8  9  1  0  0  0  0
  8  7  1  0  0  0  0
  9 12  1  0  0  0  0
 10  9  1  0  0  0  0
 11  8  2  0  0  0  0
 12  4  1  0  0  0  0
 13 12  2  0  0  0  0
 14 15  1  0  0  0  0
 15 16  1  0  0  0  0
 17 19  1  0  0  0  0
 17 20  1  0  0  0  0
 17 16  1  0  0  0  0
 18 17  1  0  0  0  0
 20 25  1  0  0  0  0
 21 22  1  0  0  0  0
 21 20  1  0  0  0  0
 22 23  1  0  0  0  0
 23 24  1  0  0  0  0
 25 24  1  0  0  0  0
M  END
>  <MODEL>
1

>  <REMARK>
 VINA RESULT:      -5.1      0.000      0.000
  Name = ZINC18086138
                            x       y       z     vdW  Elec       q    Type
                         _______ _______ _______ _____ _____    ______ ____

>  <TORSDO>
F 6

>  <vina_score>
-5.1

$$$$
ZINC04474059
 OpenBabel01091701523D

 33 35  0  0  1  0  0  0  0  0999 V2000
  -31.6330   12.4290  -17.7180 C   0  0  0  0  0  0  0  0  0  0  0  0
  -31.1260   12.2570  -19.0290 C   0  0  0  0  0  0  0  0  0  0  0  0
  -31.7870   11.4780  -19.8970 C   0  0  0  0  0  0  0  0  0  0  0  0
  -31.3600   11.2830  -21.1530 O   0  0  0  0  0  0  0  0  0  0  0  0
  -30.0830   11.5500  -21.4700 C   0  0  0  0  0  0  0  0  0  0  0  0
  -29.5540   11.0100  -22.6120 N   0  0  0  0  0  0  0  0  0  0  0  0
  -28.6180   11.1970  -22.8570 H   0  0  0  0  0  0  0  0  0  0  0  0
  -30.1080   10.4370  -23.1890 H   0  0  0  0  0  0  0  0  0  0  0  0
  -29.3010   12.3390  -20.6870 C   0  0  0  0  0  0  0  0  0  0  0  0
  -27.9720   12.5950  -21.0610 C   0  0  0  0  0  0  0  0  0  0  0  0
  -27.5550   12.1990  -22.1350 O   0  0  0  0  0  0  0  0  0  0  0  0
  -29.8510   12.9420  -19.4270 C   0  0  1  0  0  0  0  0  0  0  0  0
  -30.0770   14.4220  -19.6020 C   0  0  0  0  0  0  0  0  0  0  0  0
  -30.8780   15.1570  -20.4450 C   0  0  0  0  0  0  0  0  0  0  0  0
  -30.8760   16.5390  -20.3710 C   0  0  0  0  0  0  0  0  0  0  0  0
  -30.0660   17.1770  -19.4500 C   0  0  0  0  0  0  0  0  0  0  0  0
  -29.2620   16.4440  -18.6030 C   0  0  0  0  0  0  0  0  0  0  0  0
  -29.2590   15.0520  -18.6710 C   0  0  0  0  0  0  0  0  0  0  0  0
  -28.5470   14.1040  -17.9340 N   0  0  0  0  0  0  0  0  0  0  0  0
  -27.9080   14.3300  -17.2210 H   0  0  0  0  0  0  0  0  0  0  0  0
  -28.8340   12.8450  -18.3130 C   0  0  0  0  0  0  0  0  0  0  0  0
  -28.3660   11.8270  -17.8490 O   0  0  0  0  0  0  0  0  0  0  0  0
  -32.1880   13.4680  -17.4130 O   0  0  0  0  0  0  0  0  0  0  0  0
  -27.1570   13.2790  -20.2300 O   0  0  0  0  0  0  0  0  0  0  0  0
  -26.0550   13.9680  -20.8240 C   0  0  0  0  0  0  0  0  0  0  0  0
  -31.5020   11.4420  -16.8080 O   0  0  0  0  0  0  0  0  0  0  0  0
  -32.7060   10.8700  -16.2920 C   0  0  0  0  0  0  0  0  0  0  0  0
  -33.6610   11.9860  -15.8680 C   0  0  0  0  0  0  0  0  0  0  0  0
  -35.2150   12.4100  -14.0930 C   0  0  0  0  0  0  0  0  0  0  0  0
  -34.6620   11.4530  -14.9980 O   0  0  0  0  0  0  0  0  0  0  0  0
  -33.0570   10.8040  -19.4470 C   0  0  0  0  0  0  0  0  0  0  0  0
  -34.1230   11.1550  -20.3330 O   0  0  0  0  0  0  0  0  0  0  0  0
  -34.3250   12.5630  -20.4690 C   0  0  0  0  0  0  0  0  0  0  0  0
  1 23  2  0  0  0  0
  1 26  1  0  0  0  0
  2  1  1  0  0  0  0
  3 31  1  0  0  0  0
  3  2  2  0  0  0  0
  4  3  1  0  0  0  0
  5  4  1  0  0  0  0
  5  9  2  0  0  0  0
  6  5  1  0  0  0  0
  7  6  1  0  0  0  0
  8  6  1  0  0  0  0
 10  9  1  0  0  0  0
 10 24  1  0  0  0  0
 11 10  2  0  0  0  0
 12  9  1  6  0  0  0
 12  2  1  0  0  0  0
 12 21  1  0  0  0  0
 13 12  1  0  0  0  0
 13 18  2  0  0  0  0
 14 15  2  0  0  0  0
 14 13  1  0  0  0  0
 15 16  1  0  0  0  0
 16 17  2  0  0  0  0
 18 17  1  0  0  0  0
 18 19  1  0  0  0  0
 19 20  1  0  0  0  0
 21 19  1  0  0  0  0
 21 22  2  0  0  0  0
 25 24  1  0  0  0  0
 26 27  1  0  0  0  0
 27 28  1  0  0  0  0
 28 30  1  0  0  0  0
 30 29  1  0  0  0  0
 32 31  1  0  0  0  0
 33 32  1  0  0  0  0
M  END
>  <MODEL>
1

>  <REMARK>
 VINA RESULT:      -5.0      0.000      0.000
  Name = ZINC04474059
                            x       y       z     vdW  Elec       q    Type
                         _______ _______ _______ _____ _____    ______ ____

>  <TORSDO>
F 7

>  <vina_score>
-5.0

$$$$
ZINC19848534
 OpenBabel01091701523D

 29 31  0  0  0  0  0  0  0  0999 V2000
  -28.0380   12.7520  -21.9210 C   0  0  0  0  0  0  0  0  0  0  0  0
  -27.0840   12.3240  -21.0710 N   0  0  0  0  0  0  0  0  0  0  0  0
  -27.2410   11.5290  -20.5140 H   0  0  0  0  0  0  0  0  0  0  0  0
  -27.8440   13.7320  -22.6090 O   0  0  0  0  0  0  0  0  0  0  0  0
  -30.4960   12.6690  -21.8040 N   0  0  0  0  0  0  0  0  0  0  0  0
  -30.4890   13.6300  -21.5870 H   0  0  0  0  0  0  0  0  0  0  0  0
  -29.3360   12.0170  -22.0170 C   0  0  0  0  0  0  0  0  0  0  0  0
  -29.3460   10.8340  -22.2850 O   0  0  0  0  0  0  0  0  0  0  0  0
  -31.7690   11.9500  -21.8980 C   0  0  0  0  0  0  0  0  0  0  0  0
  -33.3460   10.8900  -20.2710 C   0  0  0  0  0  0  0  0  0  0  0  0
  -33.9240   10.8030  -19.0180 C   0  0  0  0  0  0  0  0  0  0  0  0
  -33.5620   11.6970  -18.0230 C   0  0  0  0  0  0  0  0  0  0  0  0
  -32.6130   12.6820  -18.2900 C   0  0  0  0  0  0  0  0  0  0  0  0
  -32.4310   13.4270  -17.1610 O   0  0  0  0  0  0  0  0  0  0  0  0
  -32.9730   12.6380  -16.0860 C   0  0  0  0  0  0  0  0  0  0  0  0
  -32.0370   12.7630  -19.5460 C   0  0  0  0  0  0  0  0  0  0  0  0
  -33.9740   11.8270  -16.7280 O   0  0  0  0  0  0  0  0  0  0  0  0
  -32.4000   11.8640  -20.5330 C   0  0  0  0  0  0  0  0  0  0  0  0
  -25.8110   13.0440  -20.9780 C   0  0  0  0  0  0  0  0  0  0  0  0
  -25.9260   14.1480  -19.9250 C   0  0  0  0  0  0  0  0  0  0  0  0
  -27.2730   14.1280  -19.3400 N   0  0  0  0  0  0  0  0  0  0  0  0
  -27.8260   13.4380  -19.8490 H   0  0  0  0  0  0  0  0  0  0  0  0
  -27.2290   13.7200  -17.9290 C   0  0  0  0  0  0  0  0  0  0  0  0
  -28.6550   13.6350  -17.3790 C   0  0  0  0  0  0  0  0  0  0  0  0
  -29.3120   14.9410  -17.5270 N   0  0  0  0  0  0  0  0  0  0  0  0
  -30.2680   14.8660  -17.1790 H   0  0  0  0  0  0  0  0  0  0  0  0
  -28.7930   15.6390  -16.9940 H   0  0  0  0  0  0  0  0  0  0  0  0
  -29.3570   15.3490  -18.9380 C   0  0  0  0  0  0  0  0  0  0  0  0
  -27.9310   15.4340  -19.4880 C   0  0  0  0  0  0  0  0  0  0  0  0
  1  2  1  0  0  0  0
  2 19  1  0  0  0  0
  2  3  1  0  0  0  0
  4  1  2  0  0  0  0
  5  6  1  0  0  0  0
  7  1  1  0  0  0  0
  7  5  1  0  0  0  0
  8  7  2  0  0  0  0
  9  5  1  0  0  0  0
  9 18  1  0  0  0  0
 10 11  1  0  0  0  0
 11 12  2  0  0  0  0
 12 17  1  0  0  0  0
 13 12  1  0  0  0  0
 13 14  1  0  0  0  0
 14 15  1  0  0  0  0
 16 13  2  0  0  0  0
 17 15  1  0  0  0  0
 18 10  2  0  0  0  0
 18 16  1  0  0  0  0
 19 20  1  0  0  0  0
 20 21  1  0  0  0  0
 21 23  1  0  0  0  0
 22 21  1  0  0  0  0
 23 24  1  0  0  0  0
 25 24  1  0  0  0  0
 25 26  1  0  0  0  0
 25 27  1  0  0  0  0
 28 25  1  0  0  0  0
 29 21  1  0  0  0  0
 29 28  1  0  0  0  0
M  END
>  <MODEL>
1

>  <REMARK>
 VINA RESULT:      -5.0      0.000      0.000
  Name = ZINC19848534
                            x       y       z     vdW  Elec       q    Type
                         _______ _______ _______ _____ _____    ______ ____

>  <TORSDO>
F 6

>  <vina_score>
-5.0

$$$$
ZINC06414339
 OpenBabel01091702073D

 34 36  0  0  1  0  0  0  0  0999 V2000
  -26.5960   13.9520  -20.3400 C   0  0  1  0  0  0  0  0  0  0  0  0
  -25.2480   14.1880  -20.7530 O   0  0  0  0  0  0  0  0  0  0  0  0
  -24.6440   13.6650  -20.2030 H   0  0  0  0  0  0  0  0  0  0  0  0
  -27.0240   15.0380  -19.3530 C   0  0  0  0  0  0  0  0  0  0  0  0
  -30.5860   13.1180  -18.1380 N   0  0  0  0  0  0  0  0  0  0  0  0
  -29.3070   12.5360  -17.7050 C   0  0  0  0  0  0  0  0  0  0  0  0
  -28.1860   13.0460  -18.6120 C   0  0  0  0  0  0  0  0  0  0  0  0
  -28.1360   14.5210  -18.5260 N   0  0  0  0  0  0  0  0  0  0  0  0
  -27.9810   14.7920  -17.5550 H   0  0  0  0  0  0  0  0  0  0  0  0
  -29.4180   15.0950  -18.9860 C   0  0  0  0  0  0  0  0  0  0  0  0
  -30.5400   14.5850  -18.0800 C   0  0  0  0  0  0  0  0  0  0  0  0
  -33.7480   11.6280  -15.8680 C   0  0  0  0  0  0  0  0  0  0  0  0
  -33.0960   10.8040  -16.7730 C   0  0  0  0  0  0  0  0  0  0  0  0
  -32.0490   11.2960  -17.5260 C   0  0  0  0  0  0  0  0  0  0  0  0
  -31.6480   12.6180  -17.3760 C   0  0  0  0  0  0  0  0  0  0  0  0
  -32.3030   13.4430  -16.4710 C   0  0  0  0  0  0  0  0  0  0  0  0
  -33.3490   12.9480  -15.7190 C   0  0  0  0  0  0  0  0  0  0  0  0
  -35.0910   11.8330  -13.9160 C   0  0  0  0  0  0  0  0  0  0  0  0
  -34.7800   11.1420  -15.1270 O   0  0  0  0  0  0  0  0  0  0  0  0
  -27.5150   13.9810  -21.5630 C   0  0  0  0  0  0  0  0  0  0  0  0
  -28.0370   12.6720  -21.7990 O   0  0  0  0  0  0  0  0  0  0  0  0
  -29.3600   12.4840  -21.5630 C   0  0  0  0  0  0  0  0  0  0  0  0
  -30.2410   13.5560  -21.6660 C   0  0  0  0  0  0  0  0  0  0  0  0
  -31.5850   13.3680  -21.4310 C   0  0  0  0  0  0  0  0  0  0  0  0
  -32.0610   12.1020  -21.0790 C   0  0  0  0  0  0  0  0  0  0  0  0
  -31.1710   11.0310  -20.9720 C   0  0  0  0  0  0  0  0  0  0  0  0
  -29.8300   11.2240  -21.2130 C   0  0  0  0  0  0  0  0  0  0  0  0
  -33.5000   11.8990  -20.8220 C   0  0  0  0  0  0  0  0  0  0  0  0
  -34.1420   12.6750  -19.9260 N   0  0  0  0  0  0  0  0  0  0  0  0
  -33.6500   13.3780  -19.4420 H   0  0  0  0  0  0  0  0  0  0  0  0
  -34.1080   11.0310  -21.4200 O   0  0  0  0  0  0  0  0  0  0  0  0
  -35.4740   12.4860  -19.6880 N   0  0  0  0  0  0  0  0  0  0  0  0
  -35.8210   13.2340  -19.0870 H   0  0  0  0  0  0  0  0  0  0  0  0
  -35.9820   12.4970  -20.5720 H   0  0  0  0  0  0  0  0  0  0  0  0
  1 20  1  6  0  0  0
  1  4  1  0  0  0  0
  2  1  1  0  0  0  0
  2  3  1  0  0  0  0
  4  8  1  0  0  0  0
  5 11  1  0  0  0  0
  5  6  1  0  0  0  0
  5 15  1  0  0  0  0
  7  8  1  0  0  0  0
  7  6  1  0  0  0  0
  8  9  1  0  0  0  0
 10  8  1  0  0  0  0
 10 11  1  0  0  0  0
 12 17  1  0  0  0  0
 12 19  1  0  0  0  0
 13 12  2  0  0  0  0
 14 15  2  0  0  0  0
 14 13  1  0  0  0  0
 15 16  1  0  0  0  0
 16 17  2  0  0  0  0
 19 18  1  0  0  0  0
 21 22  1  0  0  0  0
 21 20  1  0  0  0  0
 22 27  1  0  0  0  0
 23 22  2  0  0  0  0
 23 24  1  0  0  0  0
 24 25  2  0  0  0  0
 25 26  1  0  0  0  0
 25 28  1  0  0  0  0
 27 26  2  0  0  0  0
 28 29  1  0  0  0  0
 29 32  1  0  0  0  0
 29 30  1  0  0  0  0
 31 28  2  0  0  0  0
 32 33  1  0  0  0  0
 34 32  1  0  0  0  0
M  END
>  <MODEL>
1

>  <REMARK>
 VINA RESULT:      -5.0      0.000      0.000
  Name = ZINC06414339
                            x       y       z     vdW  Elec       q    Type
                         _______ _______ _______ _____ _____    ______ ____

>  <TORSDO>
F 10

>  <vina_score>
-5.0

$$$$
ZINC05543801
 OpenBabel01091702073D

 30 32  0  0  1  0  0  0  0  0999 V2000
  -31.5610   12.8170  -17.4010 C   0  0  0  0  0  0  0  0  0  0  0  0
  -32.3730   12.1910  -18.3230 C   0  0  0  0  0  0  0  0  0  0  0  0
  -33.5810   11.9020  -17.6900 C   0  0  0  0  0  0  0  0  0  0  0  0
  -33.4870   12.3620  -16.3910 C   0  0  0  0  0  0  0  0  0  0  0  0
  -32.2500   12.9240  -16.2250 N   0  0  0  0  0  0  0  0  0  0  0  0
  -31.9120   13.3350  -15.3980 H   0  0  0  0  0  0  0  0  0  0  0  0
  -32.0190   11.8720  -19.7530 C   0  0  2  0  0  0  0  0  0  0  0  0
  -30.9030   10.8040  -19.8090 C   0  0  0  0  0  0  0  0  0  0  0  0
  -30.0810   11.2740  -21.0320 C   0  0  0  0  0  0  0  0  0  0  0  0
  -30.3230   12.7180  -21.1320 N   0  0  0  0  0  0  0  0  0  0  0  0
  -31.4110   13.0800  -20.4300 C   0  0  0  0  0  0  0  0  0  0  0  0
  -31.8420   14.2110  -20.3520 O   0  0  0  0  0  0  0  0  0  0  0  0
  -29.4890   13.6450  -21.9020 C   0  0  0  0  0  0  0  0  0  0  0  0
  -28.0870   13.6360  -21.3500 C   0  0  0  0  0  0  0  0  0  0  0  0
  -27.2090   14.6520  -21.6750 C   0  0  0  0  0  0  0  0  0  0  0  0
  -25.9210   14.6390  -21.1750 C   0  0  0  0  0  0  0  0  0  0  0  0
  -25.5110   13.6110  -20.3470 C   0  0  0  0  0  0  0  0  0  0  0  0
  -26.3880   12.5940  -20.0210 C   0  0  0  0  0  0  0  0  0  0  0  0
  -27.6770   12.6070  -20.5230 C   0  0  0  0  0  0  0  0  0  0  0  0
  -34.5360   12.2670  -15.3650 C   0  0  0  0  0  0  0  0  0  0  0  0
  -34.7920   11.0840  -14.7720 O   0  0  0  0  0  0  0  0  0  0  0  0
  -35.1720   13.2540  -15.0520 O   0  0  0  0  0  0  0  0  0  0  0  0
  -30.1860   13.2940  -17.6430 C   0  0  0  0  0  0  0  0  0  0  0  0
  -29.3020   12.4970  -17.9070 O   0  0  0  0  0  0  0  0  0  0  0  0
  -29.8930   14.6750  -17.5680 C   0  0  0  0  0  0  0  0  0  0  0  0
  -28.8610   16.1710  -19.2510 C   0  0  0  0  0  0  0  0  0  0  0  0
  -28.7670   15.1590  -18.1390 C   0  0  1  0  0  0  0  0  0  0  0  0
  -27.5440   14.7310  -17.7060 N   0  0  0  0  0  0  0  0  0  0  0  0
  -27.4830   14.0690  -16.9790 H   0  0  0  0  0  0  0  0  0  0  0  0
  -26.7250   15.0840  -18.1220 H   0  0  0  0  0  0  0  0  0  0  0  0
  1  5  1  0  0  0  0
  2  3  1  0  0  0  0
  2  1  2  0  0  0  0
  3  4  2  0  0  0  0
  4  5  1  0  0  0  0
  4 20  1  0  0  0  0
  5  6  1  0  0  0  0
  7  2  1  1  0  0  0
  8  7  1  0  0  0  0
  9  8  1  0  0  0  0
 10  9  1  0  0  0  0
 10 11  1  0  0  0  0
 11 12  2  0  0  0  0
 11  7  1  0  0  0  0
 13 14  1  0  0  0  0
 13 10  1  0  0  0  0
 14 19  1  0  0  0  0
 15 14  2  0  0  0  0
 15 16  1  0  0  0  0
 16 17  2  0  0  0  0
 17 18  1  0  0  0  0
 19 18  2  0  0  0  0
 20 22  2  0  0  0  0
 20 21  1  0  0  0  0
 23 25  1  0  0  0  0
 23  1  1  0  0  0  0
 24 23  2  0  0  0  0
 27 26  1  1  0  0  0
 27 28  1  0  0  0  0
 27 25  1  0  0  0  0
 28 29  1  0  0  0  0
 30 28  1  0  0  0  0
M  END
>  <MODEL>
1

>  <REMARK>
 VINA RESULT:      -5.0      0.000      0.000
  Name = ZINC05543801
                            x       y       z     vdW  Elec       q    Type
                         _______ _______ _______ _____ _____    ______ ____

>  <TORSDO>
F 7

>  <vina_score>
-5.0

$$$$
ZINC05734955
 OpenBabel01091702153D

 17 16  0  0  1  0  0  0  0  0999 V2000
  -29.3250   13.4670  -17.4540 C   0  0  0  0  0  0  0  0  0  0  0  0
  -30.6280   13.0610  -18.1450 C   0  0  0  0  0  0  0  0  0  0  0  0
  -31.6830   12.7230  -17.0900 C   0  0  0  0  0  0  0  0  0  0  0  0
  -30.3790   11.8350  -19.0260 C   0  0  0  0  0  0  0  0  0  0  0  0
  -31.0940   14.1420  -18.9550 O   0  0  0  0  0  0  0  0  0  0  0  0
  -32.0760   13.9350  -20.2140 P   0  0  0  0  0  0  0  0  0  0  0  0
  -33.3560   13.0700  -19.7610 O   0  0  0  0  0  0  0  0  0  0  0  0
  -31.2910   13.1560  -21.3850 O   0  0  0  0  0  0  0  0  0  0  0  0
  -32.5240   15.2540  -20.7130 O   0  0  0  0  0  0  0  0  0  0  0  0
  -28.8880   14.8430  -17.9570 C   0  0  0  0  0  0  0  0  0  0  0  0
  -27.5470   14.7180  -18.6840 C   0  0  0  0  0  0  0  0  0  0  0  0
  -26.4610   14.2370  -20.8830 C   0  0  0  0  0  0  0  0  0  0  0  0
  -27.7860   14.2360  -20.1160 C   0  0  2  0  0  0  0  0  0  0  0  0
  -28.7250   15.1560  -20.7820 N   0  0  0  0  0  0  0  0  0  0  0  0
  -29.1720   15.7500  -20.0830 H   0  0  0  0  0  0  0  0  0  0  0  0
  -28.2170   15.7380  -21.4470 H   0  0  0  0  0  0  0  0  0  0  0  0
  -29.4370   14.6170  -21.2750 H   0  0  0  0  0  0  0  0  0  0  0  0
  2  1  1  0  0  0  0
  2  3  1  0  0  0  0
  4  2  1  0  0  0  0
  5  2  1  0  0  0  0
  6  7  1  0  0  0  0
  6  5  1  0  0  0  0
  8  6  2  0  0  0  0
  9  6  1  0  0  0  0
 10  1  1  0  0  0  0
 11 10  1  0  0  0  0
 13 12  1  6  0  0  0
 13 11  1  0  0  0  0
 14 13  1  0  0  0  0
 14 15  1  0  0  0  0
 16 14  1  0  0  0  0
 17 14  1  0  0  0  0
M  END
>  <MODEL>
1

>  <REMARK>
 VINA RESULT:      -5.0      0.000      0.000
  Name = ZINC05734955
                            x       y       z     vdW  Elec       q    Type
                         _______ _______ _______ _____ _____    ______ ____

>  <TORSDO>
F 7

>  <vina_score>
-5.0

$$$$
ZINC27239387
 OpenBabel01091701553D

 25 26  0  0  0  0  0  0  0  0999 V2000
  -30.4270   11.6120  -18.7070 C   0  0  0  0  0  0  0  0  0  0  0  0
  -30.1940   11.2760  -17.5660 O   0  0  0  0  0  0  0  0  0  0  0  0
  -29.2490   16.3370  -19.8250 C   0  0  0  0  0  0  0  0  0  0  0  0
  -29.2300   14.8730  -19.7730 N   0  0  0  0  0  0  0  0  0  0  0  0
  -30.0880   14.1100  -19.0790 C   0  0  0  0  0  0  0  0  0  0  0  0
  -29.7500   12.7800  -19.2790 C   0  0  0  0  0  0  0  0  0  0  0  0
  -28.6230   12.7660  -20.1370 C   0  0  0  0  0  0  0  0  0  0  0  0
  -28.3290   14.0630  -20.4290 C   0  0  0  0  0  0  0  0  0  0  0  0
  -27.2320   14.5210  -21.2910 C   0  0  0  0  0  0  0  0  0  0  0  0
  -26.0350   14.8300  -20.7520 N   0  0  0  0  0  0  0  0  0  0  0  0
  -25.3000   15.1370  -21.3300 H   0  0  0  0  0  0  0  0  0  0  0  0
  -25.8970   14.7480  -19.7810 H   0  0  0  0  0  0  0  0  0  0  0  0
  -27.4020   14.6220  -22.4920 O   0  0  0  0  0  0  0  0  0  0  0  0
  -31.4100   10.8290  -19.5390 C   0  0  0  0  0  0  0  0  0  0  0  0
  -32.7310   11.4660  -19.4640 N   0  0  0  0  0  0  0  0  0  0  0  0
  -32.5900   12.4750  -19.4270 H   0  0  0  0  0  0  0  0  0  0  0  0
  -33.5300   11.1650  -20.6590 C   0  0  0  0  0  0  0  0  0  0  0  0
  -33.4400   11.0650  -18.2410 C   0  0  0  0  0  0  0  0  0  0  0  0
  -33.6030   12.2610  -17.3400 C   0  0  0  0  0  0  0  0  0  0  0  0
  -33.9810   12.0920  -16.0570 N   0  0  0  0  0  0  0  0  0  0  0  0
  -34.2730   10.8030  -15.4120 C   0  0  0  0  0  0  0  0  0  0  0  0
  -34.6880   11.1030  -13.9560 C   0  0  0  0  0  0  0  0  0  0  0  0
  -35.1610   12.5790  -14.0280 C   0  0  0  0  0  0  0  0  0  0  0  0
  -34.1770   13.1700  -15.0700 C   0  0  0  0  0  0  0  0  0  0  0  0
  -33.3920   13.3760  -17.7680 O   0  0  0  0  0  0  0  0  0  0  0  0
  1  2  2  0  0  0  0
  3  4  1  0  0  0  0
  4  5  1  0  0  0  0
  6  5  2  0  0  0  0
  6  1  1  0  0  0  0
  7  6  1  0  0  0  0
  8  7  2  0  0  0  0
  8  4  1  0  0  0  0
  9 10  1  0  0  0  0
  9  8  1  0  0  0  0
 10 12  1  0  0  0  0
 11 10  1  0  0  0  0
 13  9  2  0  0  0  0
 14 15  1  0  0  0  0
 14  1  1  0  0  0  0
 15 16  1  0  0  0  0
 15 18  1  0  0  0  0
 17 15  1  0  0  0  0
 18 19  1  0  0  0  0
 19 20  1  0  0  0  0
 20 21  1  0  0  0  0
 20 24  1  0  0  0  0
 21 22  1  0  0  0  0
 23 22  1  0  0  0  0
 24 23  1  0  0  0  0
 25 19  2  0  0  0  0
M  END
>  <MODEL>
1

>  <REMARK>
 VINA RESULT:      -5.0      0.000      0.000
  Name = ZINC27239387
                            x       y       z     vdW  Elec       q    Type
                         _______ _______ _______ _____ _____    ______ ____

>  <TORSDO>
F 6

>  <vina_score>
-5.0

$$$$
ZINC00389139
 OpenBabel01091701573D

 26 27  0  0  0  0  0  0  0  0999 V2000
  -33.1500   11.3150  -19.0600 C   0  0  0  0  0  0  0  0  0  0  0  0
  -32.3150   11.5650  -20.1120 C   0  0  0  0  0  0  0  0  0  0  0  0
  -31.0150   12.0240  -19.8700 C   0  0  0  0  0  0  0  0  0  0  0  0
  -30.5740   12.2270  -18.5400 C   0  0  0  0  0  0  0  0  0  0  0  0
  -29.3200   12.6640  -18.3340 N   0  0  0  0  0  0  0  0  0  0  0  0
  -28.5220   12.9070  -19.3540 C   0  0  0  0  0  0  0  0  0  0  0  0
  -28.8960   12.7300  -20.6180 N   0  0  0  0  0  0  0  0  0  0  0  0
  -31.4470   11.9650  -17.4770 C   0  0  0  0  0  0  0  0  0  0  0  0
  -30.1110   12.2970  -20.9250 C   0  0  0  0  0  0  0  0  0  0  0  0
  -32.7210   11.5130  -17.7410 C   0  0  0  0  0  0  0  0  0  0  0  0
  -30.4860   12.1180  -22.2410 N   0  0  0  0  0  0  0  0  0  0  0  0
  -29.8140   12.1870  -22.9580 H   0  0  0  0  0  0  0  0  0  0  0  0
  -31.4240   11.9200  -22.4620 H   0  0  0  0  0  0  0  0  0  0  0  0
  -34.8340   10.8030  -20.6600 C   0  0  0  0  0  0  0  0  0  0  0  0
  -34.4140   10.8680  -19.2960 O   0  0  0  0  0  0  0  0  0  0  0  0
  -33.5710   11.2580  -16.7120 O   0  0  0  0  0  0  0  0  0  0  0  0
  -33.8840   12.3500  -15.8440 C   0  0  0  0  0  0  0  0  0  0  0  0
  -27.2390   13.3610  -19.1010 N   0  0  0  0  0  0  0  0  0  0  0  0
  -26.1490   13.0230  -20.0200 C   0  0  0  0  0  0  0  0  0  0  0  0
  -25.7190   14.2780  -20.7820 C   0  0  0  0  0  0  0  0  0  0  0  0
  -26.8580   14.8690  -21.4100 O   0  0  0  0  0  0  0  0  0  0  0  0
  -26.5690   15.5840  -21.9970 H   0  0  0  0  0  0  0  0  0  0  0  0
  -26.9720   14.1800  -17.9160 C   0  0  0  0  0  0  0  0  0  0  0  0
  -28.0790   15.2240  -17.7560 C   0  0  0  0  0  0  0  0  0  0  0  0
  -28.1440   16.0310  -18.9340 O   0  0  0  0  0  0  0  0  0  0  0  0
  -27.3390   16.5660  -19.0050 H   0  0  0  0  0  0  0  0  0  0  0  0
  1 10  2  0  0  0  0
  2  3  2  0  0  0  0
  2  1  1  0  0  0  0
  3  4  1  0  0  0  0
  4  5  1  0  0  0  0
  4  8  2  0  0  0  0
  6 18  1  0  0  0  0
  6  5  2  0  0  0  0
  7  6  1  0  0  0  0
  9  7  2  0  0  0  0
  9  3  1  0  0  0  0
 10  8  1  0  0  0  0
 10 16  1  0  0  0  0
 11  9  1  0  0  0  0
 12 11  1  0  0  0  0
 13 11  1  0  0  0  0
 14 15  1  0  0  0  0
 15  1  1  0  0  0  0
 16 17  1  0  0  0  0
 18 23  1  0  0  0  0
 19 18  1  0  0  0  0
 20 19  1  0  0  0  0
 21 20  1  0  0  0  0
 22 21  1  0  0  0  0
 23 24  1  0  0  0  0
 25 24  1  0  0  0  0
 26 25  1  0  0  0  0
M  END
>  <MODEL>
1

>  <REMARK>
 VINA RESULT:      -5.0      0.000      0.000
  Name = ZINC00389139
                            x       y       z     vdW  Elec       q    Type
                         _______ _______ _______ _____ _____    ______ ____

>  <TORSDO>
F 10

>  <vina_score>
-5.0

$$$$
ZINC31540682
 OpenBabel01091702093D

 40 41  0  0  1  0  0  0  0  0999 V2000
  -30.6400   12.1030  -17.3130 C   0  0  2  0  0  0  0  0  0  0  0  0
  -29.6000   13.0920  -17.7720 C   0  0  0  0  0  0  0  0  0  0  0  0
  -29.9840   14.3490  -18.2010 C   0  0  0  0  0  0  0  0  0  0  0  0
  -29.0300   15.2630  -18.6190 C   0  0  0  0  0  0  0  0  0  0  0  0
  -27.6850   14.9110  -18.6190 C   0  0  0  0  0  0  0  0  0  0  0  0
  -27.3030   13.6440  -18.1930 C   0  0  0  0  0  0  0  0  0  0  0  0
  -28.2640   12.7370  -17.7700 C   0  0  0  0  0  0  0  0  0  0  0  0
  -29.4080   16.5010  -19.0350 O   0  0  0  0  0  0  0  0  0  0  0  0
  -30.1020   16.5940  -19.6580 H   0  0  0  0  0  0  0  0  0  0  0  0
  -26.7460   15.8030  -19.0350 O   0  0  0  0  0  0  0  0  0  0  0  0
  -26.0010   15.5080  -19.5210 H   0  0  0  0  0  0  0  0  0  0  0  0
  -25.9890   13.2940  -18.1910 O   0  0  0  0  0  0  0  0  0  0  0  0
  -25.3540   13.8560  -18.5890 H   0  0  0  0  0  0  0  0  0  0  0  0
  -31.0350   11.2520  -18.4380 N   0  0  0  0  0  0  0  0  0  0  0  0
  -30.8350   10.2890  -18.4200 H   0  0  0  0  0  0  0  0  0  0  0  0
  -33.0000   12.9090  -21.7130 C   0  0  0  0  0  0  0  0  0  0  0  0
  -33.6820   12.7160  -20.5260 C   0  0  0  0  0  0  0  0  0  0  0  0
  -33.0330   12.1660  -19.4380 C   0  0  0  0  0  0  0  0  0  0  0  0
  -31.6940   11.8080  -19.5370 C   0  0  0  0  0  0  0  0  0  0  0  0
  -31.0140   12.0030  -20.7310 C   0  0  0  0  0  0  0  0  0  0  0  0
  -31.6670   12.5580  -21.8140 C   0  0  0  0  0  0  0  0  0  0  0  0
  -29.5610   11.6160  -20.8430 C   0  0  0  0  0  0  0  0  0  0  0  0
  -28.9400   12.3140  -22.0550 C   0  0  0  0  0  0  0  0  0  0  0  0
  -27.6200   12.9250  -21.6610 C   0  0  0  0  0  0  0  0  0  0  0  0
  -26.6660   12.1770  -21.2500 N   0  0  0  0  0  0  0  0  0  0  0  0
  -26.7930   11.2030  -21.1920 H   0  0  0  0  0  0  0  0  0  0  0  0
  -27.4280   14.3930  -21.7490 C   0  0  0  0  0  0  0  0  0  0  0  0
  -28.4950   15.2060  -21.8560 O   0  0  0  0  0  0  0  0  0  0  0  0
  -26.3080   14.8610  -21.7260 O   0  0  0  0  0  0  0  0  0  0  0  0
  -31.8640   12.8580  -16.7900 C   0  0  0  0  0  0  0  0  0  0  0  0
  -32.6650   11.9670  -15.9470 N   0  0  0  0  0  0  0  0  0  0  0  0
  -32.2490   11.1730  -15.5380 H   0  0  0  0  0  0  0  0  0  0  0  0
  -33.9680   12.2330  -15.7310 C   0  0  0  0  0  0  0  0  0  0  0  0
  -34.4780   13.2110  -16.2350 O   0  0  0  0  0  0  0  0  0  0  0  0
  -34.7900   11.3160  -14.8630 C   0  0  0  0  0  0  0  0  0  0  0  0
  -35.5580   12.1440  -13.8310 C   0  0  0  0  0  0  0  0  0  0  0  0
  -34.7410   13.2910  -13.4160 N   0  0  0  0  0  0  0  0  0  0  0  0
  -33.7640   13.1150  -13.6530 H   0  0  0  0  0  0  0  0  0  0  0  0
  -35.0610   14.1300  -13.9000 H   0  0  0  0  0  0  0  0  0  0  0  0
  -34.8270   13.4240  -12.4090 H   0  0  0  0  0  0  0  0  0  0  0  0
  1 14  1  6  0  0  0
  1 30  1  0  0  0  0
  2  7  1  0  0  0  0
  2  1  1  0  0  0  0
  3  2  2  0  0  0  0
  4  5  2  0  0  0  0
  4  3  1  0  0  0  0
  5  6  1  0  0  0  0
  6 12  1  0  0  0  0
  6  7  2  0  0  0  0
  8  4  1  0  0  0  0
  9  8  1  0  0  0  0
 10  5  1  0  0  0  0
 11 10  1  0  0  0  0
 13 12  1  0  0  0  0
 14 15  1  0  0  0  0
 16 17  1  0  0  0  0
 17 18  2  0  0  0  0
 19 18  1  0  0  0  0
 19 14  1  0  0  0  0
 20 19  2  0  0  0  0
 21 16  2  0  0  0  0
 21 20  1  0  0  0  0
 22 20  1  0  0  0  0
 23 24  1  0  0  0  0
 23 22  1  0  0  0  0
 24 25  2  0  0  0  0
 25 26  1  0  0  0  0
 27 29  1  0  0  0  0
 27 24  1  0  0  0  0
 28 27  2  0  0  0  0
 30 31  1  0  0  0  0
 31 33  1  0  0  0  0
 31 32  1  0  0  0  0
 33 35  1  0  0  0  0
 34 33  2  0  0  0  0
 35 36  1  0  0  0  0
 36 37  1  0  0  0  0
 37 40  1  0  0  0  0
 38 37  1  0  0  0  0
 39 37  1  0  0  0  0
M  END
>  <MODEL>
1

>  <REMARK>
 VINA RESULT:      -4.9      0.000      0.000
  Name = ZINC31540682
                            x       y       z     vdW  Elec       q    Type
                         _______ _______ _______ _____ _____    ______ ____

>  <TORSDO>
F 15

>  <vina_score>
-4.9

$$$$
ZINC31971727
 OpenBabel01091702153D

 28 29  0  0  0  0  0  0  0  0999 V2000
  -33.1420   12.1840  -17.5170 C   0  0  0  0  0  0  0  0  0  0  0  0
  -31.9940   12.8670  -17.1480 C   0  0  0  0  0  0  0  0  0  0  0  0
  -30.8810   12.8500  -17.9750 C   0  0  0  0  0  0  0  0  0  0  0  0
  -30.9200   12.1490  -19.1800 C   0  0  0  0  0  0  0  0  0  0  0  0
  -32.0690   11.4620  -19.5450 C   0  0  0  0  0  0  0  0  0  0  0  0
  -33.1800   11.4810  -18.7160 C   0  0  0  0  0  0  0  0  0  0  0  0
  -29.7190   13.5410  -17.6030 N   0  0  0  0  0  0  0  0  0  0  0  0
  -29.1380   13.1820  -16.8940 H   0  0  0  0  0  0  0  0  0  0  0  0
  -29.3980   14.6980  -18.2160 C   0  0  0  0  0  0  0  0  0  0  0  0
  -30.0570   15.0890  -19.1560 O   0  0  0  0  0  0  0  0  0  0  0  0
  -28.2200   15.5040  -17.7330 C   0  0  0  0  0  0  0  0  0  0  0  0
  -26.9490   15.0140  -18.4320 C   0  0  0  0  0  0  0  0  0  0  0  0
  -26.7610   13.5200  -18.1590 C   0  0  0  0  0  0  0  0  0  0  0  0
  -25.6500   13.0100  -18.9730 N   0  0  0  0  0  0  0  0  0  0  0  0
  -24.8080   13.5490  -18.7740 H   0  0  0  0  0  0  0  0  0  0  0  0
  -25.4870   12.0280  -18.7490 H   0  0  0  0  0  0  0  0  0  0  0  0
  -25.8840   13.0980  -19.9620 H   0  0  0  0  0  0  0  0  0  0  0  0
  -29.7980   12.1360  -20.0200 N   0  0  0  0  0  0  0  0  0  0  0  0
  -28.9260   11.8380  -19.6720 H   0  0  0  0  0  0  0  0  0  0  0  0
  -29.9130   12.5290  -21.3040 C   0  0  0  0  0  0  0  0  0  0  0  0
  -31.0030   12.7990  -21.7610 O   0  0  0  0  0  0  0  0  0  0  0  0
  -28.6860   12.6320  -22.1730 C   0  0  0  0  0  0  0  0  0  0  0  0
  -27.3230   12.5130  -21.4880 C   0  0  0  0  0  0  0  0  0  0  0  0
  -27.8030   13.8700  -22.0050 C   0  0  0  0  0  0  0  0  0  0  0  0
  -34.1240   12.9370  -15.4850 C   0  0  0  0  0  0  0  0  0  0  0  0
  -34.2350   12.2020  -16.7050 O   0  0  0  0  0  0  0  0  0  0  0  0
  -34.3070   10.8100  -19.0770 O   0  0  0  0  0  0  0  0  0  0  0  0
  -34.6410   10.8030  -20.4670 C   0  0  0  0  0  0  0  0  0  0  0  0
  1  2  1  0  0  0  0
  1 26  1  0  0  0  0
  3  7  1  0  0  0  0
  3  2  2  0  0  0  0
  4  3  1  0  0  0  0
  5  4  2  0  0  0  0
  5  6  1  0  0  0  0
  6  1  2  0  0  0  0
  7  8  1  0  0  0  0
  9 11  1  0  0  0  0
  9  7  1  0  0  0  0
 10  9  2  0  0  0  0
 12 13  1  0  0  0  0
 12 11  1  0  0  0  0
 14 15  1  0  0  0  0
 14 16  1  0  0  0  0
 14 13  1  0  0  0  0
 17 14  1  0  0  0  0
 18 19  1  0  0  0  0
 18  4  1  0  0  0  0
 20 18  1  0  0  0  0
 21 20  2  0  0  0  0
 22 24  1  0  0  0  0
 22 23  1  0  0  0  0
 22 20  1  0  0  0  0
 24 23  1  0  0  0  0
 26 25  1  0  0  0  0
 27  6  1  0  0  0  0
 28 27  1  0  0  0  0
M  END
>  <MODEL>
1

>  <REMARK>
 VINA RESULT:      -4.9      0.000      0.000
  Name = ZINC31971727
                            x       y       z     vdW  Elec       q    Type
                         _______ _______ _______ _____ _____    ______ ____

>  <TORSDO>
F 9

>  <vina_score>
-4.9

$$$$
ZINC29005505
 OpenBabel01091701553D

 31 32  0  0  0  0  0  0  0  0999 V2000
  -32.1610   13.0960  -19.5670 C   0  0  0  0  0  0  0  0  0  0  0  0
  -32.7270   12.5430  -18.3970 C   0  0  0  0  0  0  0  0  0  0  0  0
  -33.5100   11.3610  -18.4580 C   0  0  0  0  0  0  0  0  0  0  0  0
  -34.0300   10.8620  -17.3180 N   0  0  0  0  0  0  0  0  0  0  0  0
  -34.5670   10.0380  -17.3490 H   0  0  0  0  0  0  0  0  0  0  0  0
  -33.8220   11.4750  -16.1400 C   0  0  0  0  0  0  0  0  0  0  0  0
  -33.0910   12.5980  -16.0420 N   0  0  0  0  0  0  0  0  0  0  0  0
  -32.9620   13.0170  -15.1610 H   0  0  0  0  0  0  0  0  0  0  0  0
  -34.5090   10.8030  -14.7220 S   0  0  0  0  0  0  0  0  0  0  0  0
  -33.7070   10.8030  -19.5220 O   0  0  0  0  0  0  0  0  0  0  0  0
  -32.5330   13.1570  -17.1340 C   0  0  0  0  0  0  0  0  0  0  0  0
  -31.8720   14.1760  -17.0370 O   0  0  0  0  0  0  0  0  0  0  0  0
  -31.5920   15.3760  -20.0240 C   0  0  0  0  0  0  0  0  0  0  0  0
  -31.2690   14.1710  -19.4700 C   0  0  0  0  0  0  0  0  0  0  0  0
  -30.0910   14.0180  -18.8280 F   0  0  0  0  0  0  0  0  0  0  0  0
  -29.4530   16.3260  -20.3890 C   0  0  0  0  0  0  0  0  0  0  0  0
  -30.7740   16.4350  -19.8560 O   0  0  0  0  0  0  0  0  0  0  0  0
  -32.7270   15.5070  -20.7390 O   0  0  0  0  0  0  0  0  0  0  0  0
  -33.3070   16.2240  -20.5710 H   0  0  0  0  0  0  0  0  0  0  0  0
  -32.4840   12.5800  -20.7970 N   0  0  0  0  0  0  0  0  0  0  0  0
  -33.4250   12.3880  -21.0190 H   0  0  0  0  0  0  0  0  0  0  0  0
  -31.4310   12.3150  -21.7810 C   0  0  0  0  0  0  0  0  0  0  0  0
  -30.3000   11.5260  -21.1180 C   0  0  0  0  0  0  0  0  0  0  0  0
  -29.0470   11.5970  -21.9920 C   0  0  0  0  0  0  0  0  0  0  0  0
  -27.9840   12.3070  -21.2680 N   0  0  0  0  0  0  0  0  0  0  0  0
  -27.1220   11.7740  -21.3790 H   0  0  0  0  0  0  0  0  0  0  0  0
  -28.2880   12.3860  -19.8310 C   0  0  0  0  0  0  0  0  0  0  0  0
  -27.1310   13.0780  -19.1080 C   0  0  0  0  0  0  0  0  0  0  0  0
  -26.9140   14.3670  -19.6880 O   0  0  0  0  0  0  0  0  0  0  0  0
  -26.6160   14.3280  -21.0860 C   0  0  0  0  0  0  0  0  0  0  0  0
  -27.7690   13.6480  -21.8290 C   0  0  0  0  0  0  0  0  0  0  0  0
  1 14  1  0  0  0  0
  1  2  1  0  0  0  0
  2 11  1  0  0  0  0
  3  2  1  0  0  0  0
  3  4  1  0  0  0  0
  4  6  1  0  0  0  0
  5  4  1  0  0  0  0
  6  7  1  0  0  0  0
  6  9  2  0  0  0  0
  7  8  1  0  0  0  0
 10  3  2  0  0  0  0
 11 12  2  0  0  0  0
 11  7  1  0  0  0  0
 13 17  1  0  0  0  0
 13 14  2  0  0  0  0
 14 15  1  0  0  0  0
 16 17  1  0  0  0  0
 18 19  1  0  0  0  0
 18 13  1  0  0  0  0
 20  1  2  0  0  0  0
 21 20  1  0  0  0  0
 22 23  1  0  0  0  0
 22 20  1  0  0  0  0
 24 25  1  0  0  0  0
 24 23  1  0  0  0  0
 25 27  1  0  0  0  0
 26 25  1  0  0  0  0
 27 28  1  0  0  0  0
 29 28  1  0  0  0  0
 30 29  1  0  0  0  0
 31 25  1  0  0  0  0
 31 30  1  0  0  0  0
M  END
>  <MODEL>
1

>  <REMARK>
 VINA RESULT:      -4.9      0.000      0.000
  Name = ZINC29005505
                            x       y       z     vdW  Elec       q    Type
                         _______ _______ _______ _____ _____    ______ ____

>  <TORSDO>
F 8

>  <vina_score>
-4.9

$$$$
ZINC29829504
 OpenBabel01091701543D

 27 29  0  0  0  0  0  0  0  0999 V2000
  -32.1640   12.7420  -21.3200 C   0  0  0  0  0  0  0  0  0  0  0  0
  -32.6290   11.6040  -20.7700 N   0  0  0  0  0  0  0  0  0  0  0  0
  -32.0090   10.9860  -20.3190 H   0  0  0  0  0  0  0  0  0  0  0  0
  -32.9300   13.5050  -21.8770 O   0  0  0  0  0  0  0  0  0  0  0  0
  -28.9570   14.6040  -20.7210 C   0  0  0  0  0  0  0  0  0  0  0  0
  -30.3040   14.3120  -20.7860 C   0  0  0  0  0  0  0  0  0  0  0  0
  -30.7230   13.0630  -21.2500 C   0  0  0  0  0  0  0  0  0  0  0  0
  -29.7740   12.1190  -21.6460 C   0  0  0  0  0  0  0  0  0  0  0  0
  -28.4300   12.4240  -21.5760 C   0  0  0  0  0  0  0  0  0  0  0  0
  -28.0230   13.6630  -21.1160 C   0  0  0  0  0  0  0  0  0  0  0  0
  -26.5530   13.9890  -21.0430 C   0  0  0  0  0  0  0  0  0  0  0  0
  -25.8480   13.2660  -19.5420 S   0  0  0  0  0  0  0  0  0  0  0  0
  -27.2050   13.4700  -18.4360 C   0  0  0  0  0  0  0  0  0  0  0  0
  -28.1490   12.5460  -18.1560 N   0  0  0  0  0  0  0  0  0  0  0  0
  -29.0260   13.1440  -17.2370 N   0  0  0  0  0  0  0  0  0  0  0  0
  -28.5800   14.3500  -17.0120 C   0  0  0  0  0  0  0  0  0  0  0  0
  -27.4780   14.5500  -17.7360 N   0  0  0  0  0  0  0  0  0  0  0  0
  -34.0580   11.2850  -20.8410 C   0  0  0  0  0  0  0  0  0  0  0  0
  -34.5420   10.8030  -19.4720 C   0  0  0  0  0  0  0  0  0  0  0  0
  -33.4370   10.8740  -18.5120 N   0  0  0  0  0  0  0  0  0  0  0  0
  -32.5610   10.4900  -18.7400 H   0  0  0  0  0  0  0  0  0  0  0  0
  -33.6280   11.4860  -17.2780 C   0  0  0  0  0  0  0  0  0  0  0  0
  -33.2710   12.8210  -17.0980 C   0  0  0  0  0  0  0  0  0  0  0  0
  -33.4550   13.3980  -15.9260 N   0  0  0  0  0  0  0  0  0  0  0  0
  -33.9780   12.7120  -14.9230 C   0  0  0  0  0  0  0  0  0  0  0  0
  -34.3330   11.3880  -15.0980 C   0  0  0  0  0  0  0  0  0  0  0  0
  -34.1570   10.8030  -16.2710 N   0  0  0  0  0  0  0  0  0  0  0  0
  1  7  1  0  0  0  0
  1  2  1  0  0  0  0
  2  3  1  0  0  0  0
  4  1  2  0  0  0  0
  6  5  1  0  0  0  0
  7  6  2  0  0  0  0
  8  9  2  0  0  0  0
  8  7  1  0  0  0  0
  9 10  1  0  0  0  0
 10 11  1  0  0  0  0
 10  5  2  0  0  0  0
 11 12  1  0  0  0  0
 12 13  1  0  0  0  0
 13 14  1  0  0  0  0
 13 17  2  0  0  0  0
 14 15  1  0  0  0  0
 15 16  2  0  0  0  0
 17 16  1  0  0  0  0
 18  2  1  0  0  0  0
 18 19  1  0  0  0  0
 19 20  1  0  0  0  0
 20 22  1  0  0  0  0
 21 20  1  0  0  0  0
 22 23  2  0  0  0  0
 22 27  1  0  0  0  0
 23 24  1  0  0  0  0
 24 25  2  0  0  0  0
 26 25  1  0  0  0  0
 27 26  2  0  0  0  0
M  END
>  <MODEL>
1

>  <REMARK>
 VINA RESULT:      -4.9      0.000      0.000
  Name = ZINC29829504
                            x       y       z     vdW  Elec       q    Type
                         _______ _______ _______ _____ _____    ______ ____

>  <TORSDO>
F 8

>  <vina_score>
-4.9

$$$$
ZINC19685094
 OpenBabel01091701583D

 26 27  0  0  1  0  0  0  0  0999 V2000
  -32.5450   12.8050  -17.6200 C   0  0  0  0  0  0  0  0  0  0  0  0
  -32.7060   12.9160  -19.0220 C   0  0  0  0  0  0  0  0  0  0  0  0
  -31.6560   13.4010  -19.7910 C   0  0  0  0  0  0  0  0  0  0  0  0
  -30.4680   13.7660  -19.1340 C   0  0  0  0  0  0  0  0  0  0  0  0
  -29.3660   14.2640  -19.8510 C   0  0  0  0  0  0  0  0  0  0  0  0
  -28.2290   14.6090  -19.1860 C   0  0  0  0  0  0  0  0  0  0  0  0
  -28.1430   14.4720  -17.8020 C   0  0  0  0  0  0  0  0  0  0  0  0
  -29.1900   13.9930  -17.0760 C   0  0  0  0  0  0  0  0  0  0  0  0
  -30.3820   13.6270  -17.7260 C   0  0  0  0  0  0  0  0  0  0  0  0
  -31.4220   13.1530  -17.0310 N   0  0  0  0  0  0  0  0  0  0  0  0
  -33.9380   12.5310  -19.6410 C   0  0  0  0  0  0  0  0  0  0  0  0
  -34.9150   12.2260  -20.1330 N   0  0  0  0  0  0  0  0  0  0  0  0
  -33.5910   12.3210  -16.8550 N   0  0  0  0  0  0  0  0  0  0  0  0
  -32.0350   10.8030  -15.7280 C   0  0  0  0  0  0  0  0  0  0  0  0
  -33.3630   10.9190  -16.4790 C   0  0  0  0  0  0  0  0  0  0  0  0
  -33.8040   13.1580  -15.6660 C   0  0  0  0  0  0  0  0  0  0  0  0
  -34.8990   12.5380  -14.7960 C   0  0  0  0  0  0  0  0  0  0  0  0
  -27.0490   15.1430  -19.9570 C   0  0  0  0  0  0  0  0  0  0  0  0
  -26.3640   13.9960  -20.7000 C   0  0  1  0  0  0  0  0  0  0  0  0
  -26.0080   12.9370  -19.7460 N   0  0  0  0  0  0  0  0  0  0  0  0
  -26.4940   13.0980  -18.8630 H   0  0  0  0  0  0  0  0  0  0  0  0
  -26.2820   12.0310  -20.1240 H   0  0  0  0  0  0  0  0  0  0  0  0
  -25.0000   12.9490  -19.5850 H   0  0  0  0  0  0  0  0  0  0  0  0
  -27.3010   13.4400  -21.7400 C   0  0  0  0  0  0  0  0  0  0  0  0
  -27.6130   12.1340  -21.7340 O   0  0  0  0  0  0  0  0  0  0  0  0
  -27.7710   14.1690  -22.5810 O   0  0  0  0  0  0  0  0  0  0  0  0
  1 10  1  0  0  0  0
  1 13  1  0  0  0  0
  2  1  2  0  0  0  0
  3  4  2  0  0  0  0
  3  2  1  0  0  0  0
  4  9  1  0  0  0  0
  5  6  2  0  0  0  0
  5  4  1  0  0  0  0
  6  7  1  0  0  0  0
  7  8  2  0  0  0  0
  9  8  1  0  0  0  0
  9 10  2  0  0  0  0
 11  2  1  0  0  0  0
 12 11  3  0  0  0  0
 13 15  1  0  0  0  0
 13 16  1  0  0  0  0
 15 14  1  0  0  0  0
 16 17  1  0  0  0  0
 18  6  1  0  0  0  0
 19 24  1  6  0  0  0
 19 18  1  0  0  0  0
 19 20  1  0  0  0  0
 20 23  1  0  0  0  0
 20 21  1  0  0  0  0
 22 20  1  0  0  0  0
 24 25  1  0  0  0  0
 26 24  2  0  0  0  0
M  END
>  <MODEL>
1

>  <REMARK>
 VINA RESULT:      -4.9      0.000      0.000
  Name = ZINC19685094
                            x       y       z     vdW  Elec       q    Type
                         _______ _______ _______ _____ _____    ______ ____

>  <TORSDO>
F 8

>  <vina_score>
-4.9

$$$$
ZINC10254186
 OpenBabel01091702023D

 28 29  0  0  0  0  0  0  0  0999 V2000
  -31.3100   12.2200  -18.2310 C   0  0  0  0  0  0  0  0  0  0  0  0
  -30.5880   13.3390  -18.0280 N   0  0  0  0  0  0  0  0  0  0  0  0
  -30.5440   13.7420  -17.1310 H   0  0  0  0  0  0  0  0  0  0  0  0
  -31.3100   11.6850  -19.3200 O   0  0  0  0  0  0  0  0  0  0  0  0
  -29.9050   13.9260  -19.0860 C   0  0  0  0  0  0  0  0  0  0  0  0
  -28.4920   13.7390  -19.4390 C   0  0  0  0  0  0  0  0  0  0  0  0
  -27.4470   12.9890  -18.8980 C   0  0  0  0  0  0  0  0  0  0  0  0
  -26.2100   13.0340  -19.4780 C   0  0  0  0  0  0  0  0  0  0  0  0
  -25.9890   13.8190  -20.6010 C   0  0  0  0  0  0  0  0  0  0  0  0
  -27.0080   14.5670  -21.1490 C   0  0  0  0  0  0  0  0  0  0  0  0
  -28.2750   14.5370  -20.5760 C   0  0  0  0  0  0  0  0  0  0  0  0
  -29.4360   15.1500  -20.8790 O   0  0  0  0  0  0  0  0  0  0  0  0
  -30.4110   14.7950  -20.0120 C   0  0  0  0  0  0  0  0  0  0  0  0
  -31.7920   15.2740  -20.0550 C   0  0  0  0  0  0  0  0  0  0  0  0
  -32.8060   14.3950  -20.1820 N   0  0  0  0  0  0  0  0  0  0  0  0
  -33.7370   14.7180  -20.2100 H   0  0  0  0  0  0  0  0  0  0  0  0
  -32.6170   13.4310  -20.2450 H   0  0  0  0  0  0  0  0  0  0  0  0
  -32.0270   16.4660  -19.9770 O   0  0  0  0  0  0  0  0  0  0  0  0
  -33.3820   12.0380  -16.9130 N   0  0  0  0  0  0  0  0  0  0  0  0
  -33.7830   12.7150  -17.5050 H   0  0  0  0  0  0  0  0  0  0  0  0
  -32.1100   11.6360  -17.1120 C   0  0  0  0  0  0  0  0  0  0  0  0
  -31.6170   10.8030  -16.3830 O   0  0  0  0  0  0  0  0  0  0  0  0
  -34.1670   11.4670  -15.8160 C   0  0  0  0  0  0  0  0  0  0  0  0
  -34.6010   12.5830  -14.8640 C   0  0  0  0  0  0  0  0  0  0  0  0
  -36.3970   11.5830  -13.5840 C   0  0  0  0  0  0  0  0  0  0  0  0
  -34.9730   11.9830  -13.5650 N   0  0  0  0  0  0  0  0  0  0  0  0
  -34.8340   12.6750  -12.8290 H   0  0  0  0  0  0  0  0  0  0  0  0
  -34.1210   10.8070  -13.2890 C   0  0  0  0  0  0  0  0  0  0  0  0
  1  2  1  0  0  0  0
  1 21  1  0  0  0  0
  2  3  1  0  0  0  0
  4  1  2  0  0  0  0
  5  2  1  0  0  0  0
  6  5  1  0  0  0  0
  6  7  1  0  0  0  0
  8  7  2  0  0  0  0
  9  8  1  0  0  0  0
 10  9  2  0  0  0  0
 10 11  1  0  0  0  0
 11  6  2  0  0  0  0
 12 11  1  0  0  0  0
 12 13  1  0  0  0  0
 13  5  2  0  0  0  0
 14 13  1  0  0  0  0
 14 18  2  0  0  0  0
 15 14  1  0  0  0  0
 16 15  1  0  0  0  0
 17 15  1  0  0  0  0
 19 23  1  0  0  0  0
 20 19  1  0  0  0  0
 21 19  1  0  0  0  0
 21 22  2  0  0  0  0
 23 24  1  0  0  0  0
 24 26  1  0  0  0  0
 25 26  1  0  0  0  0
 26 28  1  0  0  0  0
 26 27  1  0  0  0  0
M  END
>  <MODEL>
1

>  <REMARK>
 VINA RESULT:      -4.8      0.000      0.000
  Name = ZINC10254186
                            x       y       z     vdW  Elec       q    Type
                         _______ _______ _______ _____ _____    ______ ____

>  <TORSDO>
F 6

>  <vina_score>
-4.8

$$$$
ZINC02375827
 OpenBabel01091702073D

 26 26  0  0  1  0  0  0  0  0999 V2000
  -29.8440   12.8280  -19.3440 C   0  0  0  0  0  0  0  0  0  0  0  0
  -29.8120   11.7880  -18.5670 N   0  0  0  0  0  0  0  0  0  0  0  0
  -28.4640   14.7950  -17.7500 C   0  0  0  0  0  0  0  0  0  0  0  0
  -27.9200   14.3570  -19.0860 C   0  0  0  0  0  0  0  0  0  0  0  0
  -28.5870   13.4230  -19.8290 C   0  0  0  0  0  0  0  0  0  0  0  0
  -28.0140   13.0240  -21.1250 C   0  0  0  0  0  0  0  0  0  0  0  0
  -26.8620   13.6030  -21.5270 N   0  0  0  0  0  0  0  0  0  0  0  0
  -26.4660   13.3540  -22.3930 H   0  0  0  0  0  0  0  0  0  0  0  0
  -26.2530   14.5160  -20.7500 C   0  0  0  0  0  0  0  0  0  0  0  0
  -25.2140   15.0180  -21.1340 O   0  0  0  0  0  0  0  0  0  0  0  0
  -28.5680   12.1940  -21.8200 O   0  0  0  0  0  0  0  0  0  0  0  0
  -26.7590   14.8890  -19.5640 N   0  0  0  0  0  0  0  0  0  0  0  0
  -26.2790   15.5620  -19.0260 H   0  0  0  0  0  0  0  0  0  0  0  0
  -31.0070   11.2210  -18.1050 N   0  0  0  0  0  0  0  0  0  0  0  0
  -31.2820   10.3290  -18.4200 H   0  0  0  0  0  0  0  0  0  0  0  0
  -31.7800   11.8950  -17.2310 C   0  0  0  0  0  0  0  0  0  0  0  0
  -31.4410   12.9940  -16.8440 O   0  0  0  0  0  0  0  0  0  0  0  0
  -33.0650   11.2850  -16.7360 C   0  0  1  0  0  0  0  0  0  0  0  0
  -33.8070   12.2970  -15.9630 N   0  0  0  0  0  0  0  0  0  0  0  0
  -33.2020   13.0980  -15.7810 H   0  0  0  0  0  0  0  0  0  0  0  0
  -34.6220   12.6020  -16.4950 H   0  0  0  0  0  0  0  0  0  0  0  0
  -34.1110   11.8940  -15.0770 H   0  0  0  0  0  0  0  0  0  0  0  0
  -33.8970   10.8090  -17.9280 C   0  0  0  0  0  0  0  0  0  0  0  0
  -34.2030   11.9950  -18.8450 C   0  0  0  0  0  0  0  0  0  0  0  0
  -33.7380   11.5800  -20.5470 S   0  0  0  0  0  0  0  0  0  0  0  0
  -32.8740   13.0590  -21.1400 C   0  0  0  0  0  0  0  0  0  0  0  0
  1  2  2  0  0  0  0
  2 14  1  0  0  0  0
  4  3  1  0  0  0  0
  5  1  1  0  0  0  0
  5  4  2  0  0  0  0
  6  5  1  0  0  0  0
  7  6  1  0  0  0  0
  7  9  1  0  0  0  0
  8  7  1  0  0  0  0
  9 12  1  0  0  0  0
 10  9  2  0  0  0  0
 11  6  2  0  0  0  0
 12  4  1  0  0  0  0
 12 13  1  0  0  0  0
 14 16  1  0  0  0  0
 15 14  1  0  0  0  0
 16 17  2  0  0  0  0
 16 18  1  0  0  0  0
 18 23  1  6  0  0  0
 18 19  1  0  0  0  0
 19 20  1  0  0  0  0
 19 22  1  0  0  0  0
 21 19  1  0  0  0  0
 24 23  1  0  0  0  0
 25 24  1  0  0  0  0
 26 25  1  0  0  0  0
M  END
>  <MODEL>
1

>  <REMARK>
 VINA RESULT:      -4.8      0.000      0.000
  Name = ZINC02375827
                            x       y       z     vdW  Elec       q    Type
                         _______ _______ _______ _____ _____    ______ ____

>  <TORSDO>
F 7

>  <vina_score>
-4.8

$$$$
ZINC27270879
 OpenBabel01091702153D

 28 29  0  0  1  0  0  0  0  0999 V2000
  -31.2920   12.9810  -18.4990 N   0  0  0  0  0  0  0  0  0  0  0  0
  -32.6330   12.9690  -18.3730 C   0  0  0  0  0  0  0  0  0  0  0  0
  -32.9730   11.6440  -17.7200 C   0  0  1  0  0  0  0  0  0  0  0  0
  -31.6590   11.0020  -17.5370 N   0  0  0  0  0  0  0  0  0  0  0  0
  -33.4080   13.8390  -18.7120 O   0  0  0  0  0  0  0  0  0  0  0  0
  -30.7420   11.8560  -18.0260 C   0  0  0  0  0  0  0  0  0  0  0  0
  -29.5480   11.6330  -18.0340 O   0  0  0  0  0  0  0  0  0  0  0  0
  -33.6450   11.8650  -16.3900 C   0  0  0  0  0  0  0  0  0  0  0  0
  -33.6590   13.1260  -15.8240 C   0  0  0  0  0  0  0  0  0  0  0  0
  -34.2790   13.3300  -14.6060 C   0  0  0  0  0  0  0  0  0  0  0  0
  -34.8800   12.2730  -13.9500 C   0  0  0  0  0  0  0  0  0  0  0  0
  -34.8640   11.0100  -14.5150 C   0  0  0  0  0  0  0  0  0  0  0  0
  -34.2450   10.8060  -15.7340 C   0  0  0  0  0  0  0  0  0  0  0  0
  -30.1780   13.9800  -20.3500 C   0  0  0  0  0  0  0  0  0  0  0  0
  -30.5620   14.0370  -19.0600 N   0  0  0  0  0  0  0  0  0  0  0  0
  -30.3300   14.8210  -18.5110 H   0  0  0  0  0  0  0  0  0  0  0  0
  -30.4640   13.0140  -21.0260 O   0  0  0  0  0  0  0  0  0  0  0  0
  -29.3930   15.1160  -20.9550 C   0  0  0  0  0  0  0  0  0  0  0  0
  -28.0190   15.0910  -20.4370 N   0  0  0  0  0  0  0  0  0  0  0  0
  -27.7170   16.0560  -20.3020 H   0  0  0  0  0  0  0  0  0  0  0  0
  -27.1050   14.4630  -21.4010 C   0  0  0  0  0  0  0  0  0  0  0  0
  -25.4420   12.8940  -20.3920 C   0  0  0  0  0  0  0  0  0  0  0  0
  -26.8460   13.0130  -20.9880 C   0  0  0  0  0  0  0  0  0  0  0  0
  -27.9590   14.4120  -19.1350 C   0  0  0  0  0  0  0  0  0  0  0  0
  -27.5430   15.4140  -18.0570 C   0  0  0  0  0  0  0  0  0  0  0  0
  -28.4220   15.2240  -16.8180 C   0  0  0  0  0  0  0  0  0  0  0  0
  -33.8620   10.8040  -18.6390 C   0  0  0  0  0  0  0  0  0  0  0  0
  -33.5150   11.1040  -20.0990 C   0  0  0  0  0  0  0  0  0  0  0  0
  1  2  1  0  0  0  0
  1  6  1  0  0  0  0
  2  3  1  0  0  0  0
  3 27  1  6  0  0  0
  3  4  1  0  0  0  0
  3  8  1  0  0  0  0
  5  2  2  0  0  0  0
  6  4  1  0  0  0  0
  7  6  2  0  0  0  0
  8  9  2  0  0  0  0
  8 13  1  0  0  0  0
  9 10  1  0  0  0  0
 10 11  2  0  0  0  0
 12 11  1  0  0  0  0
 13 12  2  0  0  0  0
 14 15  1  0  0  0  0
 15 16  1  0  0  0  0
 15  1  1  0  0  0  0
 17 14  2  0  0  0  0
 18 19  1  0  0  0  0
 18 14  1  0  0  0  0
 19 20  1  0  0  0  0
 19 24  1  0  0  0  0
 21 23  1  0  0  0  0
 21 19  1  0  0  0  0
 23 22  1  0  0  0  0
 24 25  1  0  0  0  0
 25 26  1  0  0  0  0
 28 27  1  0  0  0  0
M  END
>  <MODEL>
1

>  <REMARK>
 VINA RESULT:      -4.8      0.000      0.000
  Name = ZINC27270879
                            x       y       z     vdW  Elec       q    Type
                         _______ _______ _______ _____ _____    ______ ____

>  <TORSDO>
F 9

>  <vina_score>
-4.8

$$$$
ZINC04806136
 OpenBabel01091701563D

 15 14  0  0  1  0  0  0  0  0999 V2000
  -26.4070   13.4290  -20.2680 C   0  0  1  0  0  0  0  0  0  0  0  0
  -25.5210   12.2940  -20.5840 N   0  0  0  0  0  0  0  0  0  0  0  0
  -24.6570   12.3780  -20.0470 H   0  0  0  0  0  0  0  0  0  0  0  0
  -25.9870   11.4200  -20.3420 H   0  0  0  0  0  0  0  0  0  0  0  0
  -25.3020   12.3000  -21.5800 H   0  0  0  0  0  0  0  0  0  0  0  0
  -27.4440   13.5570  -21.3530 C   0  0  0  0  0  0  0  0  0  0  0  0
  -28.2760   12.5350  -21.6110 O   0  0  0  0  0  0  0  0  0  0  0  0
  -27.5230   14.5770  -21.9960 O   0  0  0  0  0  0  0  0  0  0  0  0
  -27.1010   13.2040  -18.9220 C   0  0  0  0  0  0  0  0  0  0  0  0
  -27.8630   14.4690  -18.5240 C   0  0  0  0  0  0  0  0  0  0  0  0
  -29.5990   14.0540  -18.2040 S   0  0  2  0  0  0  0  0  0  0  0  0
  -29.7260   12.6470  -18.0370 O   0  0  0  0  0  0  0  0  0  0  0  0
  -31.9540   14.2590  -19.5810 C   0  0  0  0  0  0  0  0  0  0  0  0
  -30.4600   14.5630  -19.7170 C   0  0  0  0  0  0  0  0  0  0  0  0
  -30.2640   16.0650  -19.9340 C   0  0  0  0  0  0  0  0  0  0  0  0
  1  6  1  6  0  0  0
  1  9  1  0  0  0  0
  2  4  1  0  0  0  0
  2  1  1  0  0  0  0
  2  3  1  0  0  0  0
  5  2  1  0  0  0  0
  7  6  1  0  0  0  0
  8  6  2  0  0  0  0
  9 10  1  0  0  0  0
 10 11  1  0  0  0  0
 11 14  1  6  0  0  0
 11 12  1  0  0  0  0
 14 13  1  0  0  0  0
 15 14  1  0  0  0  0
M  END
>  <MODEL>
1

>  <REMARK>
 VINA RESULT:      -4.8      0.000      0.000
  Name = ZINC04806136
                            x       y       z     vdW  Elec       q    Type
                         _______ _______ _______ _____ _____    ______ ____

>  <TORSDO>
F 6

>  <vina_score>
-4.8

$$$$
ZINC08652693
 OpenBabel01091702053D

 23 24  0  0  1  0  0  0  0  0999 V2000
  -28.5820   13.1680  -21.7940 C   0  0  2  0  0  0  0  0  0  0  0  0
  -27.4900   14.1270  -22.3190 C   0  0  0  0  0  0  0  0  0  0  0  0
  -26.7950   14.5540  -21.1070 O   0  0  0  0  0  0  0  0  0  0  0  0
  -27.5680   14.2820  -20.0420 C   0  0  0  0  0  0  0  0  0  0  0  0
  -27.4450   14.8160  -18.8350 N   0  0  0  0  0  0  0  0  0  0  0  0
  -28.2920   14.4760  -17.8460 C   0  0  0  0  0  0  0  0  0  0  0  0
  -29.4330   13.5810  -18.1370 C   0  0  2  0  0  0  0  0  0  0  0  0
  -29.2840   12.7320  -19.3590 C   0  0  0  0  0  0  0  0  0  0  0  0
  -29.7880   11.5160  -19.5460 N   0  0  0  0  0  0  0  0  0  0  0  0
  -30.3210   11.0890  -18.8380 H   0  0  0  0  0  0  0  0  0  0  0  0
  -28.1180   14.9010  -16.7160 O   0  0  0  0  0  0  0  0  0  0  0  0
  -28.5270   13.3520  -20.3490 N   0  0  0  0  0  0  0  0  0  0  0  0
  -29.5320   11.0070  -22.6120 C   0  0  0  0  0  0  0  0  0  0  0  0
  -28.2540   11.7220  -22.1700 C   0  0  0  0  0  0  0  0  0  0  0  0
  -30.5560   13.5340  -17.3400 C   0  0  0  0  0  0  0  0  0  0  0  0
  -31.1930   12.3530  -17.1360 N   0  0  0  0  0  0  0  0  0  0  0  0
  -32.3870   12.3020  -16.2890 C   0  0  0  0  0  0  0  0  0  0  0  0
  -33.6270   12.5950  -17.1370 C   0  0  0  0  0  0  0  0  0  0  0  0
  -33.4740   11.9360  -18.5080 C   0  0  0  0  0  0  0  0  0  0  0  0
  -33.8810   12.9020  -19.5500 N   0  0  0  0  0  0  0  0  0  0  0  0
  -34.7030   13.4130  -19.2250 H   0  0  0  0  0  0  0  0  0  0  0  0
  -34.2220   12.1870  -20.7970 C   0  0  0  0  0  0  0  0  0  0  0  0
  -32.7880   13.8650  -19.8010 C   0  0  0  0  0  0  0  0  0  0  0  0
  1 14  1  1  0  0  0
  1 12  1  0  0  0  0
  2  1  1  0  0  0  0
  2  3  1  0  0  0  0
  3  4  1  0  0  0  0
  4  5  2  0  0  0  0
  5  6  1  0  0  0  0
  6 11  2  0  0  0  0
  7  6  1  0  0  0  0
  7 15  1  6  0  0  0
  8  7  1  0  0  0  0
  9  8  2  0  0  0  0
  9 10  1  0  0  0  0
 12  4  1  0  0  0  0
 12  8  1  0  0  0  0
 13 14  1  0  0  0  0
 15 16  2  0  0  0  0
 16 17  1  0  0  0  0
 18 17  1  0  0  0  0
 19 18  1  0  0  0  0
 20 21  1  0  0  0  0
 20 19  1  0  0  0  0
 22 20  1  0  0  0  0
 23 20  1  0  0  0  0
M  END
>  <MODEL>
1

>  <REMARK>
 VINA RESULT:      -4.7      0.000      0.000
  Name = ZINC08652693
                            x       y       z     vdW  Elec       q    Type
                         _______ _______ _______ _____ _____    ______ ____

>  <TORSDO>
F 6

>  <vina_score>
-4.7

$$$$
ZINC02014486
 OpenBabel01091702083D

 27 28  0  0  0  0  0  0  0  0999 V2000
  -29.0190   13.6240  -17.7110 N   0  0  0  0  0  0  0  0  0  0  0  0
  -28.6110   13.1400  -18.4660 H   0  0  0  0  0  0  0  0  0  0  0  0
  -28.5630   14.8450  -17.3670 C   0  0  0  0  0  0  0  0  0  0  0  0
  -29.0660   15.4400  -16.4380 O   0  0  0  0  0  0  0  0  0  0  0  0
  -31.2500   12.9220  -17.5460 C   0  0  0  0  0  0  0  0  0  0  0  0
  -30.0730   13.0420  -16.9930 N   0  0  0  0  0  0  0  0  0  0  0  0
  -32.7580   11.0280  -16.9340 C   0  0  0  0  0  0  0  0  0  0  0  0
  -33.8210   10.8850  -16.0330 C   0  0  0  0  0  0  0  0  0  0  0  0
  -33.9920   12.0810  -15.4210 C   0  0  0  0  0  0  0  0  0  0  0  0
  -33.0850   12.9480  -15.8980 O   0  0  0  0  0  0  0  0  0  0  0  0
  -32.3160   12.3340  -16.8190 C   0  0  0  0  0  0  0  0  0  0  0  0
  -35.0600   12.3980  -14.3470 N   0  0  0  0  0  0  0  0  0  0  0  0
  -35.8400   11.5330  -13.9890 O   0  0  0  0  0  0  0  0  0  0  0  0
  -35.1200   13.5130  -13.8590 O   0  0  0  0  0  0  0  0  0  0  0  0
  -27.4290   15.4700  -18.1380 C   0  0  0  0  0  0  0  0  0  0  0  0
  -27.2980   14.7760  -19.4380 N   0  0  0  0  0  0  0  0  0  0  0  0
  -26.5800   15.2420  -19.9910 H   0  0  0  0  0  0  0  0  0  0  0  0
  -26.9000   13.3690  -19.2200 C   0  0  0  0  0  0  0  0  0  0  0  0
  -26.7190   12.6920  -20.5810 C   0  0  0  0  0  0  0  0  0  0  0  0
  -28.0020   12.7440  -21.3130 N   0  0  0  0  0  0  0  0  0  0  0  0
  -28.7190   12.2780  -20.7600 H   0  0  0  0  0  0  0  0  0  0  0  0
  -28.4000   14.1510  -21.5310 C   0  0  0  0  0  0  0  0  0  0  0  0
  -28.5810   14.8280  -20.1700 C   0  0  0  0  0  0  0  0  0  0  0  0
  -27.8700   12.0500  -22.6120 C   0  0  0  0  0  0  0  0  0  0  0  0
  -28.7960   10.8310  -22.6120 C   0  0  0  0  0  0  0  0  0  0  0  0
  -29.7010   10.9200  -21.5100 O   0  0  0  0  0  0  0  0  0  0  0  0
  -30.5220   11.3490  -21.7990 H   0  0  0  0  0  0  0  0  0  0  0  0
  1  3  1  0  0  0  0
  1  6  1  0  0  0  0
  2  1  1  0  0  0  0
  3  4  2  0  0  0  0
  5  6  2  0  0  0  0
  5 11  1  0  0  0  0
  7 11  2  0  0  0  0
  7  8  1  0  0  0  0
  8  9  2  0  0  0  0
  9 12  1  0  0  0  0
 10  9  1  0  0  0  0
 11 10  1  0  0  0  0
 12 13  2  0  0  0  0
 12 14  2  0  0  0  0
 15  3  1  0  0  0  0
 16 18  1  0  0  0  0
 16 15  1  0  0  0  0
 17 16  1  0  0  0  0
 19 18  1  0  0  0  0
 20 21  1  0  0  0  0
 20 19  1  0  0  0  0
 22 20  1  0  0  0  0
 22 23  1  0  0  0  0
 23 16  1  0  0  0  0
 24 20  1  0  0  0  0
 25 24  1  0  0  0  0
 25 26  1  0  0  0  0
 27 26  1  0  0  0  0
M  END
>  <MODEL>
1

>  <REMARK>
 VINA RESULT:      -4.7      0.000      0.000
  Name = ZINC02014486
                            x       y       z     vdW  Elec       q    Type
                         _______ _______ _______ _____ _____    ______ ____

>  <TORSDO>
F 8

>  <vina_score>
-4.7

$$$$
ZINC09467478
 OpenBabel01091701593D

 33 35  0  0  0  0  0  0  0  0999 V2000
  -31.4310   11.2600  -20.3900 C   0  0  0  0  0  0  0  0  0  0  0  0
  -31.9240   11.2920  -21.6070 N   0  0  0  0  0  0  0  0  0  0  0  0
  -30.9690   11.3490  -22.4650 N   0  0  0  0  0  0  0  0  0  0  0  0
  -29.8080   11.3570  -21.8500 C   0  0  0  0  0  0  0  0  0  0  0  0
  -30.0610   11.3060  -20.5080 N   0  0  0  0  0  0  0  0  0  0  0  0
  -31.5570   10.9010  -17.9290 C   0  0  0  0  0  0  0  0  0  0  0  0
  -32.2790   10.8450  -16.7560 C   0  0  0  0  0  0  0  0  0  0  0  0
  -33.6500   11.0690  -16.7710 C   0  0  0  0  0  0  0  0  0  0  0  0
  -34.2960   11.3550  -17.9660 C   0  0  0  0  0  0  0  0  0  0  0  0
  -33.5800   11.4190  -19.1420 C   0  0  0  0  0  0  0  0  0  0  0  0
  -32.2030   11.1930  -19.1310 C   0  0  0  0  0  0  0  0  0  0  0  0
  -34.3590   11.0080  -15.6140 O   0  0  0  0  0  0  0  0  0  0  0  0
  -34.6780   12.2510  -14.9840 C   0  0  0  0  0  0  0  0  0  0  0  0
  -33.6610   13.1760  -15.2380 F   0  0  0  0  0  0  0  0  0  0  0  0
  -34.8000   12.0570  -13.6040 F   0  0  0  0  0  0  0  0  0  0  0  0
  -29.1450   11.2980  -19.4950 N   0  0  0  0  0  0  0  0  0  0  0  0
  -28.5420   10.5280  -19.3830 H   0  0  0  0  0  0  0  0  0  0  0  0
  -29.0860   12.0630  -18.8780 H   0  0  0  0  0  0  0  0  0  0  0  0
  -28.2210   11.4280  -22.6120 S   0  0  0  0  0  0  0  0  0  0  0  0
  -27.8860   13.2020  -22.4750 C   0  0  0  0  0  0  0  0  0  0  0  0
  -27.4200   13.5180  -21.0770 C   0  0  0  0  0  0  0  0  0  0  0  0
  -27.8510   14.6360  -20.4600 N   0  0  0  0  0  0  0  0  0  0  0  0
  -28.4700   15.2460  -20.9230 H   0  0  0  0  0  0  0  0  0  0  0  0
  -26.6570   12.7670  -20.5070 O   0  0  0  0  0  0  0  0  0  0  0  0
  -27.3980   14.9440  -19.1010 C   0  0  0  0  0  0  0  0  0  0  0  0
  -28.4390   15.8210  -18.4030 C   0  0  0  0  0  0  0  0  0  0  0  0
  -29.7760   15.4740  -18.8920 N   0  0  0  0  0  0  0  0  0  0  0  0
  -30.3960   14.4410  -18.3450 C   0  0  0  0  0  0  0  0  0  0  0  0
  -31.7810   14.1420  -18.9010 C   0  0  0  0  0  0  0  0  0  0  0  0
  -31.9060   15.4700  -20.1640 S   0  0  0  0  0  0  0  0  0  0  0  0
  -29.8960   13.7780  -17.4610 O   0  0  0  0  0  0  0  0  0  0  0  0
  -30.3100   16.2190  -19.8780 C   0  0  0  0  0  0  0  0  0  0  0  0
  -29.8180   17.1770  -20.4420 O   0  0  0  0  0  0  0  0  0  0  0  0
  1 11  1  0  0  0  0
  2  1  2  0  0  0  0
  3  4  2  0  0  0  0
  3  2  1  0  0  0  0
  4  5  1  0  0  0  0
  5  1  1  0  0  0  0
  5 16  1  0  0  0  0
  6  7  2  0  0  0  0
  8  7  1  0  0  0  0
  8 12  1  0  0  0  0
  9  8  2  0  0  0  0
 10 11  2  0  0  0  0
 10  9  1  0  0  0  0
 11  6  1  0  0  0  0
 12 13  1  0  0  0  0
 13 15  1  0  0  0  0
 14 13  1  0  0  0  0
 16 17  1  0  0  0  0
 16 18  1  0  0  0  0
 19 20  1  0  0  0  0
 19  4  1  0  0  0  0
 20 21  1  0  0  0  0
 21 24  2  0  0  0  0
 21 22  1  0  0  0  0
 22 25  1  0  0  0  0
 23 22  1  0  0  0  0
 25 26  1  0  0  0  0
 27 26  1  0  0  0  0
 27 28  1  0  0  0  0
 28 31  2  0  0  0  0
 29 28  1  0  0  0  0
 30 32  1  0  0  0  0
 30 29  2  0  0  0  0
 32 27  1  0  0  0  0
 33 32  2  0  0  0  0
M  END
>  <MODEL>
1

>  <REMARK>
 VINA RESULT:      -4.7      0.000      0.000
  Name = ZINC09467478
                            x       y       z     vdW  Elec       q    Type
                         _______ _______ _______ _____ _____    ______ ____

>  <TORSDO>
F 10

>  <vina_score>
-4.7

$$$$
ZINC27367243
 OpenBabel01091701533D

 31 33  0  0  1  0  0  0  0  0999 V2000
  -31.9450   10.9650  -20.5580 C   0  0  2  0  0  0  0  0  0  0  0  0
  -32.7360   12.0350  -21.3190 C   0  0  0  0  0  0  0  0  0  0  0  0
  -34.0110   12.3820  -20.5470 C   0  0  0  0  0  0  0  0  0  0  0  0
  -33.6450   13.1450  -19.2670 C   0  0  0  0  0  0  0  0  0  0  0  0
  -32.5670   12.3730  -18.5460 C   0  0  0  0  0  0  0  0  0  0  0  0
  -32.1720   12.4990  -17.2690 N   0  0  0  0  0  0  0  0  0  0  0  0
  -31.1490   11.5680  -17.0410 N   0  0  0  0  0  0  0  0  0  0  0  0
  -30.9360   10.9110  -18.1560 C   0  0  0  0  0  0  0  0  0  0  0  0
  -31.8130   11.4010  -19.1210 C   0  0  0  0  0  0  0  0  0  0  0  0
  -28.6080   11.7320  -21.8960 N   0  0  0  0  0  0  0  0  0  0  0  0
  -28.2880   10.8360  -22.1500 H   0  0  0  0  0  0  0  0  0  0  0  0
  -29.8310   11.8810  -21.3500 C   0  0  0  0  0  0  0  0  0  0  0  0
  -30.6160   10.8040  -21.1510 N   0  0  0  0  0  0  0  0  0  0  0  0
  -30.2960    9.9080  -21.4060 H   0  0  0  0  0  0  0  0  0  0  0  0
  -30.2260   12.9870  -21.0360 O   0  0  0  0  0  0  0  0  0  0  0  0
  -27.7540   12.9030  -22.1120 C   0  0  0  0  0  0  0  0  0  0  0  0
  -26.6190   12.9030  -21.0870 C   0  0  0  0  0  0  0  0  0  0  0  0
  -26.4340   14.3150  -20.5290 C   0  0  0  0  0  0  0  0  0  0  0  0
  -27.7120   14.8060  -20.0070 N   0  0  0  0  0  0  0  0  0  0  0  0
  -27.8610   15.7300  -20.4120 H   0  0  0  0  0  0  0  0  0  0  0  0
  -29.6090   14.3270  -18.0720 C   0  0  0  0  0  0  0  0  0  0  0  0
  -27.9360   14.9570  -18.3740 S   0  0  0  0  0  0  0  0  0  0  0  0
  -27.8890   16.3560  -18.1290 O   0  0  0  0  0  0  0  0  0  0  0  0
  -26.9730   14.0880  -17.7930 O   0  0  0  0  0  0  0  0  0  0  0  0
  -32.7180   13.4390  -16.2860 C   0  0  0  0  0  0  0  0  0  0  0  0
  -33.7380   12.7350  -15.4300 C   0  0  0  0  0  0  0  0  0  0  0  0
  -34.1400   11.4500  -15.7470 C   0  0  0  0  0  0  0  0  0  0  0  0
  -35.0750   10.8040  -14.9610 C   0  0  0  0  0  0  0  0  0  0  0  0
  -35.6100   11.4430  -13.8580 C   0  0  0  0  0  0  0  0  0  0  0  0
  -35.2080   12.7270  -13.5400 C   0  0  0  0  0  0  0  0  0  0  0  0
  -34.2720   13.3720  -14.3260 C   0  0  0  0  0  0  0  0  0  0  0  0
  1 13  1  6  0  0  0
  1  9  1  0  0  0  0
  2  1  1  0  0  0  0
  2  3  1  0  0  0  0
  3  4  1  0  0  0  0
  4  5  1  0  0  0  0
  5  6  1  0  0  0  0
  6  7  1  0  0  0  0
  6 25  1  0  0  0  0
  8  7  2  0  0  0  0
  9  5  2  0  0  0  0
  9  8  1  0  0  0  0
 10 12  1  0  0  0  0
 11 10  1  0  0  0  0
 12 13  1  0  0  0  0
 12 15  2  0  0  0  0
 14 13  1  0  0  0  0
 16 10  1  0  0  0  0
 16 17  1  0  0  0  0
 17 18  1  0  0  0  0
 18 19  1  0  0  0  0
 19 22  1  0  0  0  0
 20 19  1  0  0  0  0
 22 23  2  0  0  0  0
 22 21  1  0  0  0  0
 22 24  2  0  0  0  0
 25 26  1  0  0  0  0
 26 31  1  0  0  0  0
 27 26  2  0  0  0  0
 27 28  1  0  0  0  0
 28 29  2  0  0  0  0
 29 30  1  0  0  0  0
 31 30  2  0  0  0  0
M  END
>  <MODEL>
1

>  <REMARK>
 VINA RESULT:      -4.6      0.000      0.000
  Name = ZINC27367243
                            x       y       z     vdW  Elec       q    Type
                         _______ _______ _______ _____ _____    ______ ____

>  <TORSDO>
F 8

>  <vina_score>
-4.6

$$$$
ZINC24195016
 OpenBabel01091702073D

 30 31  0  0  1  0  0  0  0  0999 V2000
  -32.6060   12.5120  -19.4780 C   0  0  0  0  0  0  0  0  0  0  0  0
  -31.7580   11.4630  -19.4010 C   0  0  0  0  0  0  0  0  0  0  0  0
  -31.4260   10.9150  -18.1950 N   0  0  0  0  0  0  0  0  0  0  0  0
  -30.8040   10.1510  -18.1880 H   0  0  0  0  0  0  0  0  0  0  0  0
  -31.8960   11.3580  -17.0220 C   0  0  0  0  0  0  0  0  0  0  0  0
  -32.7510   12.3960  -16.9380 N   0  0  0  0  0  0  0  0  0  0  0  0
  -33.0850   12.7050  -16.0650 H   0  0  0  0  0  0  0  0  0  0  0  0
  -31.5410   10.8040  -15.9990 O   0  0  0  0  0  0  0  0  0  0  0  0
  -33.1730   13.0590  -18.1840 C   0  0  2  0  0  0  0  0  0  0  0  0
  -34.6990   12.9790  -18.2660 C   0  0  0  0  0  0  0  0  0  0  0  0
  -32.9520   13.0820  -20.7260 C   0  0  0  0  0  0  0  0  0  0  0  0
  -33.8320   12.5790  -21.4000 O   0  0  0  0  0  0  0  0  0  0  0  0
  -32.3070   14.1810  -21.1690 O   0  0  0  0  0  0  0  0  0  0  0  0
  -30.9360   15.8380  -20.0670 C   0  0  0  0  0  0  0  0  0  0  0  0
  -32.3580   15.3420  -20.3360 C   0  0  0  0  0  0  0  0  0  0  0  0
  -31.1720   10.8890  -20.6630 C   0  0  0  0  0  0  0  0  0  0  0  0
  -29.7750   11.2750  -20.7670 O   0  0  0  0  0  0  0  0  0  0  0  0
  -29.4060   11.9340  -21.8780 C   0  0  0  0  0  0  0  0  0  0  0  0
  -30.2470   12.3980  -22.6130 O   0  0  0  0  0  0  0  0  0  0  0  0
  -27.9450   12.0970  -22.2060 C   0  0  0  0  0  0  0  0  0  0  0  0
  -27.5030   13.4390  -21.8210 N   0  0  0  0  0  0  0  0  0  0  0  0
  -27.9810   14.6090  -22.5620 C   0  0  0  0  0  0  0  0  0  0  0  0
  -26.4660   13.6340  -20.5450 S   0  0  0  0  0  0  0  0  0  0  0  0
  -25.6830   14.7850  -20.8310 O   0  0  0  0  0  0  0  0  0  0  0  0
  -25.8860   12.3610  -20.2940 O   0  0  0  0  0  0  0  0  0  0  0  0
  -27.4450   14.0290  -19.1330 C   0  0  0  0  0  0  0  0  0  0  0  0
  -27.5910   15.2190  -18.5020 C   0  0  0  0  0  0  0  0  0  0  0  0
  -28.4240   15.2950  -17.4010 C   0  0  0  0  0  0  0  0  0  0  0  0
  -29.0610   14.1760  -16.9800 C   0  0  0  0  0  0  0  0  0  0  0  0
  -28.4930   12.9620  -18.1590 S   0  0  0  0  0  0  0  0  0  0  0  0
  1  2  2  0  0  0  0
  1  9  1  0  0  0  0
  2  3  1  0  0  0  0
  3  4  1  0  0  0  0
  3  5  1  0  0  0  0
  5  6  1  0  0  0  0
  5  8  2  0  0  0  0
  6  7  1  0  0  0  0
  9 10  1  6  0  0  0
  9  6  1  0  0  0  0
 11  1  1  0  0  0  0
 12 11  2  0  0  0  0
 13 11  1  0  0  0  0
 13 15  1  0  0  0  0
 15 14  1  0  0  0  0
 16  2  1  0  0  0  0
 17 16  1  0  0  0  0
 18 17  1  0  0  0  0
 19 18  2  0  0  0  0
 20 18  1  0  0  0  0
 20 21  1  0  0  0  0
 21 23  1  0  0  0  0
 22 21  1  0  0  0  0
 23 25  2  0  0  0  0
 23 26  1  0  0  0  0
 24 23  2  0  0  0  0
 26 27  2  0  0  0  0
 26 30  1  0  0  0  0
 27 28  1  0  0  0  0
 28 29  2  0  0  0  0
 30 29  1  0  0  0  0
M  END
>  <MODEL>
1

>  <REMARK>
 VINA RESULT:      -4.5      0.000      0.000
  Name = ZINC24195016
                            x       y       z     vdW  Elec       q    Type
                         _______ _______ _______ _____ _____    ______ ____

>  <TORSDO>
F 10

>  <vina_score>
-4.5

$$$$
ZINC31167898
 OpenBabel01091701573D

 35 36  0  0  1  0  0  0  0  0999 V2000
  -32.9660   13.0850  -20.5430 C   0  0  0  0  0  0  0  0  0  0  0  0
  -31.8310   12.8470  -21.2940 C   0  0  0  0  0  0  0  0  0  0  0  0
  -30.7640   13.7220  -21.2340 C   0  0  0  0  0  0  0  0  0  0  0  0
  -30.8330   14.8430  -20.4190 C   0  0  0  0  0  0  0  0  0  0  0  0
  -31.9740   15.0800  -19.6670 C   0  0  0  0  0  0  0  0  0  0  0  0
  -33.0380   14.2020  -19.7300 C   0  0  0  0  0  0  0  0  0  0  0  0
  -34.1280   12.1280  -20.6110 C   0  0  0  0  0  0  0  0  0  0  0  0
  -33.7150   10.8300  -20.1090 O   0  0  0  0  0  0  0  0  0  0  0  0
  -33.0340   10.8130  -18.9530 C   0  0  0  0  0  0  0  0  0  0  0  0
  -31.8250   10.8050  -18.9640 O   0  0  0  0  0  0  0  0  0  0  0  0
  -33.7760   10.8050  -17.6400 C   0  0  0  0  0  0  0  0  0  0  0  0
  -31.6910   12.1200  -17.2270 C   0  0  0  0  0  0  0  0  0  0  0  0
  -33.0190   11.6600  -16.6220 C   0  0  2  0  0  0  0  0  0  0  0  0
  -32.7640   10.8880  -15.4460 O   0  0  0  0  0  0  0  0  0  0  0  0
  -31.8160   10.6990  -15.3820 H   0  0  0  0  0  0  0  0  0  0  0  0
  -33.8630   12.8820  -16.2550 C   0  0  0  0  0  0  0  0  0  0  0  0
  -34.6010   12.6160  -14.9690 C   0  0  0  0  0  0  0  0  0  0  0  0
  -35.4550   11.5850  -14.8850 O   0  0  0  0  0  0  0  0  0  0  0  0
  -34.4240   13.3330  -14.0130 O   0  0  0  0  0  0  0  0  0  0  0  0
  -29.7850   15.7050  -20.3570 O   0  0  0  0  0  0  0  0  0  0  0  0
  -28.4740   15.1400  -20.4400 C   0  0  1  0  0  0  0  0  0  0  0  0
  -28.0340   14.6660  -19.0530 C   0  0  1  0  0  0  0  0  0  0  0  0
  -26.6540   14.0100  -19.1610 C   0  0  2  0  0  0  0  0  0  0  0  0
  -26.7250   12.8620  -20.1730 C   0  0  1  0  0  0  0  0  0  0  0  0
  -27.2160   13.4070  -21.5170 C   0  0  2  0  0  0  0  0  0  0  0  0
  -28.4880   14.0310  -21.3400 O   0  0  0  0  0  0  0  0  0  0  0  0
  -27.9620   15.7850  -18.1670 O   0  0  0  0  0  0  0  0  0  0  0  0
  -27.0360   15.9620  -17.9420 H   0  0  0  0  0  0  0  0  0  0  0  0
  -26.2670   13.4980  -17.8840 O   0  0  0  0  0  0  0  0  0  0  0  0
  -25.3990   13.8570  -17.6410 H   0  0  0  0  0  0  0  0  0  0  0  0
  -25.4260   12.2880  -20.3350 O   0  0  0  0  0  0  0  0  0  0  0  0
  -24.8700   12.8890  -20.8560 H   0  0  0  0  0  0  0  0  0  0  0  0
  -27.3460   12.2550  -22.5160 C   0  0  0  0  0  0  0  0  0  0  0  0
  -28.6840   11.7550  -22.4940 O   0  0  0  0  0  0  0  0  0  0  0  0
  -28.7650   11.0180  -23.1190 H   0  0  0  0  0  0  0  0  0  0  0  0
  1  6  2  0  0  0  0
  2  3  2  0  0  0  0
  2  1  1  0  0  0  0
  3  4  1  0  0  0  0
  4 20  1  0  0  0  0
  4  5  2  0  0  0  0
  6  5  1  0  0  0  0
  7  1  1  0  0  0  0
  7  8  1  0  0  0  0
  8  9  1  0  0  0  0
  9 11  1  0  0  0  0
 10  9  2  0  0  0  0
 12 13  1  0  0  0  0
 13 11  1  6  0  0  0
 13 16  1  0  0  0  0
 13 14  1  0  0  0  0
 14 15  1  0  0  0  0
 16 17  1  0  0  0  0
 17 18  2  0  0  0  0
 17 19  1  0  0  0  0
 21 20  1  1  0  0  0
 21 22  1  0  0  0  0
 22 27  1  1  0  0  0
 23 22  1  0  0  0  0
 23 29  1  1  0  0  0
 24 31  1  6  0  0  0
 24 23  1  0  0  0  0
 25 33  1  6  0  0  0
 25 26  1  0  0  0  0
 25 24  1  0  0  0  0
 26 21  1  0  0  0  0
 27 28  1  0  0  0  0
 29 30  1  0  0  0  0
 32 31  1  0  0  0  0
 33 34  1  0  0  0  0
 35 34  1  0  0  0  0
M  END
>  <MODEL>
1

>  <REMARK>
 VINA RESULT:      -4.5      0.000      0.000
  Name = ZINC31167898
                            x       y       z     vdW  Elec       q    Type
                         _______ _______ _______ _____ _____    ______ ____

>  <TORSDO>
F 15

>  <vina_score>
-4.5

$$$$
ZINC19526420
 OpenBabel01091702013D

 27 28  0  0  0  0  0  0  0  0999 V2000
  -30.2980   12.7480  -17.9180 C   0  0  0  0  0  0  0  0  0  0  0  0
  -29.9730   12.1840  -19.0640 N   0  0  0  0  0  0  0  0  0  0  0  0
  -31.0700   11.9550  -19.7870 C   0  0  0  0  0  0  0  0  0  0  0  0
  -32.1600   12.4050  -19.0500 C   0  0  0  0  0  0  0  0  0  0  0  0
  -33.4520   12.2800  -19.5890 C   0  0  0  0  0  0  0  0  0  0  0  0
  -33.6080   11.7290  -20.8100 N   0  0  0  0  0  0  0  0  0  0  0  0
  -32.5470   11.2980  -21.5150 C   0  0  0  0  0  0  0  0  0  0  0  0
  -32.7260   10.8040  -22.6120 O   0  0  0  0  0  0  0  0  0  0  0  0
  -31.2930   11.3970  -21.0350 N   0  0  0  0  0  0  0  0  0  0  0  0
  -30.1630   10.9150  -21.8350 C   0  0  0  0  0  0  0  0  0  0  0  0
  -31.6470   12.9030  -17.8580 N   0  0  0  0  0  0  0  0  0  0  0  0
  -29.4100   13.1180  -16.9340 N   0  0  0  0  0  0  0  0  0  0  0  0
  -29.6000   12.8970  -15.9930 H   0  0  0  0  0  0  0  0  0  0  0  0
  -28.1850   13.8380  -17.2850 C   0  0  0  0  0  0  0  0  0  0  0  0
  -28.5480   15.1650  -17.9570 C   0  0  0  0  0  0  0  0  0  0  0  0
  -27.9960   15.1920  -19.3180 N   0  0  0  0  0  0  0  0  0  0  0  0
  -27.3330   15.9650  -19.3720 H   0  0  0  0  0  0  0  0  0  0  0  0
  -26.1190   14.2510  -20.5780 C   0  0  0  0  0  0  0  0  0  0  0  0
  -27.2700   13.9510  -19.6160 C   0  0  0  0  0  0  0  0  0  0  0  0
  -29.0540   15.4340  -20.3090 C   0  0  0  0  0  0  0  0  0  0  0  0
  -30.3500   15.8090  -19.5900 C   0  0  0  0  0  0  0  0  0  0  0  0
  -34.4220   12.6690  -18.9600 O   0  0  0  0  0  0  0  0  0  0  0  0
  -34.3610   13.4420  -18.4350 H   0  0  0  0  0  0  0  0  0  0  0  0
  -32.4120   13.4830  -16.7530 C   0  0  0  0  0  0  0  0  0  0  0  0
  -33.1800   12.3960  -16.0470 C   0  0  0  0  0  0  0  0  0  0  0  0
  -32.8330   10.9490  -16.2900 C   0  0  0  0  0  0  0  0  0  0  0  0
  -34.1490   12.7060  -15.2230 C   0  0  0  0  0  0  0  0  0  0  0  0
  1 11  1  0  0  0  0
  1 12  1  0  0  0  0
  2  1  2  0  0  0  0
  3  2  1  0  0  0  0
  3  4  2  0  0  0  0
  4 11  1  0  0  0  0
  5  4  1  0  0  0  0
  5 22  1  0  0  0  0
  6  5  2  0  0  0  0
  7  9  1  0  0  0  0
  7  6  1  0  0  0  0
  8  7  2  0  0  0  0
  9  3  1  0  0  0  0
 10  9  1  0  0  0  0
 11 24  1  0  0  0  0
 12 13  1  0  0  0  0
 14 12  1  0  0  0  0
 15 14  1  0  0  0  0
 16 15  1  0  0  0  0
 17 16  1  0  0  0  0
 18 19  1  0  0  0  0
 19 16  1  0  0  0  0
 20 21  1  0  0  0  0
 20 16  1  0  0  0  0
 22 23  1  0  0  0  0
 24 25  1  0  0  0  0
 25 27  2  0  0  0  0
 26 25  1  0  0  0  0
M  END
>  <MODEL>
1

>  <REMARK>
 VINA RESULT:      -4.5      0.000      0.000
  Name = ZINC19526420
                            x       y       z     vdW  Elec       q    Type
                         _______ _______ _______ _____ _____    ______ ____

>  <TORSDO>
F 9

>  <vina_score>
-4.5

$$$$
ZINC00056328
 OpenBabel01091701593D

 27 29  0  0  0  0  0  0  0  0999 V2000
  -32.2940   12.1210  -17.1240 C   0  0  0  0  0  0  0  0  0  0  0  0
  -31.0630   12.6230  -17.1260 N   0  0  0  0  0  0  0  0  0  0  0  0
  -30.3720   12.6800  -18.2590 C   0  0  0  0  0  0  0  0  0  0  0  0
  -30.9110   12.2340  -19.3900 N   0  0  0  0  0  0  0  0  0  0  0  0
  -32.1410   11.7330  -19.3870 C   0  0  0  0  0  0  0  0  0  0  0  0
  -32.8340   11.6820  -18.2560 N   0  0  0  0  0  0  0  0  0  0  0  0
  -33.8580   10.8600  -15.9070 C   0  0  0  0  0  0  0  0  0  0  0  0
  -34.5910   10.8030  -14.5640 C   0  0  0  0  0  0  0  0  0  0  0  0
  -35.3470   12.0040  -14.3870 O   0  0  0  0  0  0  0  0  0  0  0  0
  -34.5540   13.1930  -14.4200 C   0  0  0  0  0  0  0  0  0  0  0  0
  -33.8220   13.2750  -15.7620 C   0  0  0  0  0  0  0  0  0  0  0  0
  -33.0130   12.0620  -15.9470 N   0  0  0  0  0  0  0  0  0  0  0  0
  -29.0930   13.2010  -18.2630 N   0  0  0  0  0  0  0  0  0  0  0  0
  -29.1240   14.6700  -18.2050 C   0  0  0  0  0  0  0  0  0  0  0  0
  -27.6900   15.2030  -18.1510 C   0  0  0  0  0  0  0  0  0  0  0  0
  -26.9630   14.7200  -19.2850 O   0  0  0  0  0  0  0  0  0  0  0  0
  -26.9140   13.2940  -19.3730 C   0  0  0  0  0  0  0  0  0  0  0  0
  -28.3410   12.7420  -19.4390 C   0  0  0  0  0  0  0  0  0  0  0  0
  -32.7020   11.2690  -20.5650 N   0  0  0  0  0  0  0  0  0  0  0  0
  -34.0420   11.2560  -20.7150 C   0  0  0  0  0  0  0  0  0  0  0  0
  -34.5880   10.8050  -21.8610 N   0  0  0  0  0  0  0  0  0  0  0  0
  -35.5670   10.7960  -21.9700 H   0  0  0  0  0  0  0  0  0  0  0  0
  -34.0090   10.4840  -22.5890 H   0  0  0  0  0  0  0  0  0  0  0  0
  -34.7580   11.6530  -19.8150 O   0  0  0  0  0  0  0  0  0  0  0  0
  -31.8990   10.8240  -21.5770 N   0  0  0  0  0  0  0  0  0  0  0  0
  -32.0510    9.8260  -21.7190 H   0  0  0  0  0  0  0  0  0  0  0  0
  -32.1230   11.3280  -22.4360 H   0  0  0  0  0  0  0  0  0  0  0  0
  1 12  1  0  0  0  0
  2  1  1  0  0  0  0
  3  2  2  0  0  0  0
  4  5  2  0  0  0  0
  4  3  1  0  0  0  0
  5  6  1  0  0  0  0
  6  1  2  0  0  0  0
  7  8  1  0  0  0  0
  8  9  1  0  0  0  0
 10  9  1  0  0  0  0
 11 10  1  0  0  0  0
 12  7  1  0  0  0  0
 12 11  1  0  0  0  0
 13  3  1  0  0  0  0
 13 14  1  0  0  0  0
 14 15  1  0  0  0  0
 16 15  1  0  0  0  0
 17 16  1  0  0  0  0
 18 17  1  0  0  0  0
 18 13  1  0  0  0  0
 19  5  1  0  0  0  0
 20 19  1  0  0  0  0
 20 24  2  0  0  0  0
 21 20  1  0  0  0  0
 22 21  1  0  0  0  0
 23 21  1  0  0  0  0
 25 19  1  0  0  0  0
 26 25  1  0  0  0  0
 27 25  1  0  0  0  0
M  END
>  <MODEL>
1

>  <REMARK>
 VINA RESULT:      -4.4      0.000      0.000
  Name = ZINC00056328
                            x       y       z     vdW  Elec       q    Type
                         _______ _______ _______ _____ _____    ______ ____

>  <TORSDO>
F 4

>  <vina_score>
-4.4

$$$$
ZINC09636029
 OpenBabel01091702153D

 24 25  0  0  0  0  0  0  0  0999 V2000
  -32.7100   13.1790  -19.3460 N   0  0  0  0  0  0  0  0  0  0  0  0
  -31.6150   13.5010  -18.7270 C   0  0  0  0  0  0  0  0  0  0  0  0
  -30.3210   13.4280  -19.4280 C   0  0  0  0  0  0  0  0  0  0  0  0
  -29.2180   14.1320  -18.9370 C   0  0  0  0  0  0  0  0  0  0  0  0
  -28.0050   14.0620  -19.5980 C   0  0  0  0  0  0  0  0  0  0  0  0
  -27.8810   13.2880  -20.7470 C   0  0  0  0  0  0  0  0  0  0  0  0
  -28.9780   12.5910  -21.2420 C   0  0  0  0  0  0  0  0  0  0  0  0
  -30.1940   12.6570  -20.5860 C   0  0  0  0  0  0  0  0  0  0  0  0
  -26.9310   14.7470  -19.1200 O   0  0  0  0  0  0  0  0  0  0  0  0
  -27.1140   15.4750  -17.9040 C   0  0  0  0  0  0  0  0  0  0  0  0
  -26.6850   13.2180  -21.3920 O   0  0  0  0  0  0  0  0  0  0  0  0
  -26.1140   13.9610  -21.4040 H   0  0  0  0  0  0  0  0  0  0  0  0
  -28.8540   11.8400  -22.3690 O   0  0  0  0  0  0  0  0  0  0  0  0
  -29.8680   10.8630  -22.6130 C   0  0  0  0  0  0  0  0  0  0  0  0
  -33.9390   13.2490  -18.6770 N   0  0  0  0  0  0  0  0  0  0  0  0
  -34.7040   13.7000  -19.1020 H   0  0  0  0  0  0  0  0  0  0  0  0
  -34.4810   10.8060  -13.7290 C   0  0  0  0  0  0  0  0  0  0  0  0
  -34.3360   11.5020  -15.0570 C   0  0  0  0  0  0  0  0  0  0  0  0
  -34.3590   12.9130  -15.1290 C   0  0  0  0  0  0  0  0  0  0  0  0
  -34.2250   13.4920  -16.3450 N   0  0  0  0  0  0  0  0  0  0  0  0
  -34.0760   12.6890  -17.4360 C   0  0  0  0  0  0  0  0  0  0  0  0
  -34.0680   11.3740  -17.3040 N   0  0  0  0  0  0  0  0  0  0  0  0
  -34.4960   13.5880  -14.1230 O   0  0  0  0  0  0  0  0  0  0  0  0
  -34.1880   10.8030  -16.1590 N   0  0  0  0  0  0  0  0  0  0  0  0
  1  2  2  0  0  0  0
  1 15  1  0  0  0  0
  3  4  1  0  0  0  0
  3  2  1  0  0  0  0
  5  9  1  0  0  0  0
  5  4  2  0  0  0  0
  6  5  1  0  0  0  0
  7  6  2  0  0  0  0
  7  8  1  0  0  0  0
  8  3  2  0  0  0  0
  9 10  1  0  0  0  0
 11  6  1  0  0  0  0
 12 11  1  0  0  0  0
 13  7  1  0  0  0  0
 14 13  1  0  0  0  0
 15 21  1  0  0  0  0
 16 15  1  0  0  0  0
 18 17  1  0  0  0  0
 19 18  1  0  0  0  0
 19 23  2  0  0  0  0
 20 19  1  0  0  0  0
 21 22  2  0  0  0  0
 21 20  1  0  0  0  0
 22 24  1  0  0  0  0
 24 18  2  0  0  0  0
M  END
>  <MODEL>
1

>  <REMARK>
 VINA RESULT:      -4.3      0.000      0.000
  Name = ZINC09636029
                            x       y       z     vdW  Elec       q    Type
                         _______ _______ _______ _____ _____    ______ ____

>  <TORSDO>
F 6

>  <vina_score>
-4.3

$$$$
ZINC29937211
 OpenBabel01091702123D

 32 33  0  0  0  0  0  0  0  0999 V2000
  -33.1120   10.9540  -18.0650 N   0  0  0  0  0  0  0  0  0  0  0  0
  -33.2330   10.0910  -18.5230 H   0  0  0  0  0  0  0  0  0  0  0  0
  -33.8270   12.0290  -18.4510 C   0  0  0  0  0  0  0  0  0  0  0  0
  -33.6770   13.0910  -17.8870 O   0  0  0  0  0  0  0  0  0  0  0  0
  -32.1530   11.0690  -16.9630 C   0  0  0  0  0  0  0  0  0  0  0  0
  -30.8800   13.1860  -17.1030 N   0  0  0  0  0  0  0  0  0  0  0  0
  -31.5540   13.5940  -16.5130 H   0  0  0  0  0  0  0  0  0  0  0  0
  -30.9640   11.8770  -17.4150 C   0  0  0  0  0  0  0  0  0  0  0  0
  -30.0820   11.3500  -18.0600 O   0  0  0  0  0  0  0  0  0  0  0  0
  -31.4740   15.0030  -19.2100 C   0  0  0  0  0  0  0  0  0  0  0  0
  -30.0830   14.8630  -18.6480 C   0  0  0  0  0  0  0  0  0  0  0  0
  -29.8370   13.9630  -17.6190 C   0  0  0  0  0  0  0  0  0  0  0  0
  -28.5540   13.8350  -17.1030 C   0  0  0  0  0  0  0  0  0  0  0  0
  -27.5260   14.6040  -17.6150 C   0  0  0  0  0  0  0  0  0  0  0  0
  -27.7730   15.4990  -18.6380 C   0  0  0  0  0  0  0  0  0  0  0  0
  -29.0510   15.6280  -19.1550 C   0  0  0  0  0  0  0  0  0  0  0  0
  -29.3570   16.7530  -20.4410 Cl  0  0  0  0  0  0  0  0  0  0  0  0
  -34.8130   11.9100  -19.5850 C   0  0  0  0  0  0  0  0  0  0  0  0
  -34.1530   11.3040  -20.7430 N   0  0  0  0  0  0  0  0  0  0  0  0
  -34.6150   10.6090  -21.2670 H   0  0  0  0  0  0  0  0  0  0  0  0
  -32.8670   11.7120  -21.1060 C   0  0  0  0  0  0  0  0  0  0  0  0
  -31.8180   10.8030  -21.0900 C   0  0  0  0  0  0  0  0  0  0  0  0
  -30.5490   11.2090  -21.4540 C   0  0  0  0  0  0  0  0  0  0  0  0
  -30.3200   12.5220  -21.8230 C   0  0  0  0  0  0  0  0  0  0  0  0
  -31.3620   13.4310  -21.8350 C   0  0  0  0  0  0  0  0  0  0  0  0
  -32.6340   13.0310  -21.4770 C   0  0  0  0  0  0  0  0  0  0  0  0
  -28.9340   12.9620  -22.2150 C   0  0  0  0  0  0  0  0  0  0  0  0
  -27.9810   12.6880  -21.0800 C   0  0  0  0  0  0  0  0  0  0  0  0
  -26.6640   12.9340  -21.2310 N   0  0  0  0  0  0  0  0  0  0  0  0
  -26.3250   13.2920  -22.0830 H   0  0  0  0  0  0  0  0  0  0  0  0
  -25.7370   12.6680  -20.1270 C   0  0  0  0  0  0  0  0  0  0  0  0
  -28.3990   12.2470  -20.0300 O   0  0  0  0  0  0  0  0  0  0  0  0
  1  5  1  0  0  0  0
  2  1  1  0  0  0  0
  3  1  1  0  0  0  0
  3  4  2  0  0  0  0
  6  7  1  0  0  0  0
  8  6  1  0  0  0  0
  8  5  1  0  0  0  0
  9  8  2  0  0  0  0
 10 11  1  0  0  0  0
 11 12  1  0  0  0  0
 12  6  1  0  0  0  0
 12 13  2  0  0  0  0
 14 13  1  0  0  0  0
 15 14  2  0  0  0  0
 16 11  2  0  0  0  0
 16 15  1  0  0  0  0
 17 16  1  0  0  0  0
 18  3  1  0  0  0  0
 19 18  1  0  0  0  0
 20 19  1  0  0  0  0
 21 22  1  0  0  0  0
 21 19  1  0  0  0  0
 23 22  2  0  0  0  0
 24 23  1  0  0  0  0
 25 24  2  0  0  0  0
 25 26  1  0  0  0  0
 26 21  2  0  0  0  0
 27 24  1  0  0  0  0
 27 28  1  0  0  0  0
 28 32  2  0  0  0  0
 29 28  1  0  0  0  0
 29 31  1  0  0  0  0
 30 29  1  0  0  0  0
M  END
>  <MODEL>
1

>  <REMARK>
 VINA RESULT:      -4.2      0.000      0.000
  Name = ZINC29937211
                            x       y       z     vdW  Elec       q    Type
                         _______ _______ _______ _____ _____    ______ ____

>  <TORSDO>
F 8

>  <vina_score>
-4.2

$$$$
ZINC06282102
 OpenBabel01091702183D

 30 31  0  0  0  0  0  0  0  0999 V2000
  -32.4190   13.8880  -21.5520 C   0  0  0  0  0  0  0  0  0  0  0  0
  -33.1620   12.8350  -20.7710 C   0  0  0  0  0  0  0  0  0  0  0  0
  -34.1500   12.3120  -21.2450 O   0  0  0  0  0  0  0  0  0  0  0  0
  -32.7090   12.4560  -19.4890 C   0  0  0  0  0  0  0  0  0  0  0  0
  -33.4880   12.6970  -18.3440 C   0  0  0  0  0  0  0  0  0  0  0  0
  -33.0090   12.3080  -17.1260 N   0  0  0  0  0  0  0  0  0  0  0  0
  -33.8150   12.5490  -15.9270 C   0  0  0  0  0  0  0  0  0  0  0  0
  -31.8120   11.7130  -17.0050 C   0  0  0  0  0  0  0  0  0  0  0  0
  -31.0220   11.4620  -18.0610 N   0  0  0  0  0  0  0  0  0  0  0  0
  -29.7260   10.8100  -17.8570 C   0  0  0  0  0  0  0  0  0  0  0  0
  -31.4280   11.3890  -15.8970 O   0  0  0  0  0  0  0  0  0  0  0  0
  -31.4060   11.8030  -19.3090 C   0  0  0  0  0  0  0  0  0  0  0  0
  -30.6890   11.5740  -20.2650 O   0  0  0  0  0  0  0  0  0  0  0  0
  -34.7000   13.3040  -18.4480 N   0  0  0  0  0  0  0  0  0  0  0  0
  -35.5250   12.7830  -18.3180 H   0  0  0  0  0  0  0  0  0  0  0  0
  -34.7530   14.2650  -18.6540 H   0  0  0  0  0  0  0  0  0  0  0  0
  -32.9170   15.2020  -21.1890 O   0  0  0  0  0  0  0  0  0  0  0  0
  -32.1740   15.9200  -20.3310 C   0  0  0  0  0  0  0  0  0  0  0  0
  -32.4190   17.0900  -20.1540 O   0  0  0  0  0  0  0  0  0  0  0  0
  -31.0360   15.2680  -19.5900 C   0  0  0  0  0  0  0  0  0  0  0  0
  -29.8040   15.8810  -19.9750 O   0  0  0  0  0  0  0  0  0  0  0  0
  -25.3180   12.5080  -20.4910 C   0  0  0  0  0  0  0  0  0  0  0  0
  -26.5170   13.4110  -20.3510 C   0  0  0  0  0  0  0  0  0  0  0  0
  -27.2830   13.7170  -21.4600 C   0  0  0  0  0  0  0  0  0  0  0  0
  -28.3800   14.5490  -21.3370 C   0  0  0  0  0  0  0  0  0  0  0  0
  -28.7210   15.0680  -20.0980 C   0  0  0  0  0  0  0  0  0  0  0  0
  -27.9530   14.7550  -18.9810 C   0  0  0  0  0  0  0  0  0  0  0  0
  -26.8510   13.9240  -19.1120 C   0  0  0  0  0  0  0  0  0  0  0  0
  -28.2830   15.2620  -17.7630 O   0  0  0  0  0  0  0  0  0  0  0  0
  -28.9250   14.3770  -16.8440 C   0  0  0  0  0  0  0  0  0  0  0  0
  1 17  1  0  0  0  0
  1  2  1  0  0  0  0
  2  4  1  0  0  0  0
  3  2  2  0  0  0  0
  4 12  1  0  0  0  0
  4  5  2  0  0  0  0
  5  6  1  0  0  0  0
  6  8  1  0  0  0  0
  6  7  1  0  0  0  0
  8 11  2  0  0  0  0
  9 10  1  0  0  0  0
  9  8  1  0  0  0  0
 12  9  1  0  0  0  0
 13 12  2  0  0  0  0
 14  5  1  0  0  0  0
 14 15  1  0  0  0  0
 16 14  1  0  0  0  0
 17 18  1  0  0  0  0
 18 19  2  0  0  0  0
 18 20  1  0  0  0  0
 21 20  1  0  0  0  0
 22 23  1  0  0  0  0
 23 28  2  0  0  0  0
 24 25  2  0  0  0  0
 24 23  1  0  0  0  0
 25 26  1  0  0  0  0
 26 21  1  0  0  0  0
 26 27  2  0  0  0  0
 27 29  1  0  0  0  0
 28 27  1  0  0  0  0
 29 30  1  0  0  0  0
M  END
>  <MODEL>
1

>  <REMARK>
 VINA RESULT:      -4.0      0.000      0.000
  Name = ZINC06282102
                            x       y       z     vdW  Elec       q    Type
                         _______ _______ _______ _____ _____    ______ ____

>  <TORSDO>
F 9

>  <vina_score>
-4.0

$$$$
ZINC30924904
 OpenBabel01091702043D

 35 36  0  0  0  0  0  0  0  0999 V2000
  -32.1030   10.9770  -21.9840 C   0  0  0  0  0  0  0  0  0  0  0  0
  -33.9950   11.2550  -20.4740 C   0  0  0  0  0  0  0  0  0  0  0  0
  -32.7410   10.8030  -20.6770 N   0  0  0  0  0  0  0  0  0  0  0  0
  -32.2550   10.3570  -19.9470 H   0  0  0  0  0  0  0  0  0  0  0  0
  -34.5940   11.8050  -21.3730 O   0  0  0  0  0  0  0  0  0  0  0  0
  -34.6520   11.0760  -19.1300 C   0  0  0  0  0  0  0  0  0  0  0  0
  -33.6270   10.8040  -18.1190 N   0  0  0  0  0  0  0  0  0  0  0  0
  -33.9870   10.0520  -17.5300 H   0  0  0  0  0  0  0  0  0  0  0  0
  -33.1260   12.0100  -17.1010 S   0  0  0  0  0  0  0  0  0  0  0  0
  -32.1790   11.4270  -16.2150 O   0  0  0  0  0  0  0  0  0  0  0  0
  -34.2980   12.6660  -16.6390 O   0  0  0  0  0  0  0  0  0  0  0  0
  -30.1070   16.0230  -20.4470 C   0  0  0  0  0  0  0  0  0  0  0  0
  -30.8610   15.0200  -19.6120 C   0  0  0  0  0  0  0  0  0  0  0  0
  -30.1900   14.2550  -18.6770 C   0  0  0  0  0  0  0  0  0  0  0  0
  -30.8800   13.3360  -17.9100 C   0  0  0  0  0  0  0  0  0  0  0  0
  -32.2440   13.1830  -18.0780 C   0  0  0  0  0  0  0  0  0  0  0  0
  -32.9150   13.9440  -19.0170 C   0  0  0  0  0  0  0  0  0  0  0  0
  -32.2240   14.8660  -19.7800 C   0  0  0  0  0  0  0  0  0  0  0  0
  -30.9670   11.9610  -21.8620 C   0  0  0  0  0  0  0  0  0  0  0  0
  -29.7950   11.5720  -21.3230 N   0  0  0  0  0  0  0  0  0  0  0  0
  -29.7010   10.6650  -20.9490 H   0  0  0  0  0  0  0  0  0  0  0  0
  -31.1100   13.1020  -22.2470 O   0  0  0  0  0  0  0  0  0  0  0  0
  -28.7100   12.4550  -21.2970 C   0  0  0  0  0  0  0  0  0  0  0  0
  -28.3900   13.1980  -22.4280 C   0  0  0  0  0  0  0  0  0  0  0  0
  -27.3220   14.0740  -22.4000 C   0  0  0  0  0  0  0  0  0  0  0  0
  -26.5630   14.2060  -21.2520 C   0  0  0  0  0  0  0  0  0  0  0  0
  -26.8750   13.4630  -20.1220 C   0  0  0  0  0  0  0  0  0  0  0  0
  -27.9490   12.5870  -20.1450 C   0  0  0  0  0  0  0  0  0  0  0  0
  -26.1280   13.5940  -18.9950 O   0  0  0  0  0  0  0  0  0  0  0  0
  -26.8250   13.5820  -17.7480 C   0  0  0  0  0  0  0  0  0  0  0  0
  -27.5080   14.9090  -17.5420 C   0  0  0  0  0  0  0  0  0  0  0  0
  -27.2650   15.9320  -18.3860 N   0  0  0  0  0  0  0  0  0  0  0  0
  -27.7110   16.7980  -18.2510 H   0  0  0  0  0  0  0  0  0  0  0  0
  -26.6400   15.8110  -19.1360 H   0  0  0  0  0  0  0  0  0  0  0  0
  -28.2780   15.0570  -16.6170 O   0  0  0  0  0  0  0  0  0  0  0  0
  1 19  1  0  0  0  0
  1  3  1  0  0  0  0
  2  6  1  0  0  0  0
  3  2  1  0  0  0  0
  3  4  1  0  0  0  0
  5  2  2  0  0  0  0
  6  7  1  0  0  0  0
  7  8  1  0  0  0  0
  7  9  1  0  0  0  0
  9 11  2  0  0  0  0
  9 10  2  0  0  0  0
 12 13  1  0  0  0  0
 13 14  1  0  0  0  0
 14 15  2  0  0  0  0
 16 15  1  0  0  0  0
 16  9  1  0  0  0  0
 17 16  2  0  0  0  0
 18 13  2  0  0  0  0
 18 17  1  0  0  0  0
 19 20  1  0  0  0  0
 20 23  1  0  0  0  0
 20 21  1  0  0  0  0
 22 19  2  0  0  0  0
 23 28  2  0  0  0  0
 24 25  2  0  0  0  0
 24 23  1  0  0  0  0
 25 26  1  0  0  0  0
 26 27  2  0  0  0  0
 27 29  1  0  0  0  0
 28 27  1  0  0  0  0
 29 30  1  0  0  0  0
 30 31  1  0  0  0  0
 31 35  2  0  0  0  0
 32 33  1  0  0  0  0
 32 31  1  0  0  0  0
 34 32  1  0  0  0  0
M  END
>  <MODEL>
1

>  <REMARK>
 VINA RESULT:      -4.0      0.000      0.000
  Name = ZINC30924904
                            x       y       z     vdW  Elec       q    Type
                         _______ _______ _______ _____ _____    ______ ____

>  <TORSDO>
F 10

>  <vina_score>
-4.0

$$$$
ZINC06193542
 OpenBabel01091702183D

 35 37  0  0  1  0  0  0  0  0999 V2000
  -30.8860   11.3590  -18.6120 C   0  0  0  0  0  0  0  0  0  0  0  0
  -29.6500   11.6790  -18.2870 N   0  0  0  0  0  0  0  0  0  0  0  0
  -29.0160   12.1830  -19.3470 C   0  0  0  0  0  0  0  0  0  0  0  0
  -29.9090   12.1750  -20.4130 C   0  0  0  0  0  0  0  0  0  0  0  0
  -29.4890   12.6590  -21.6650 C   0  0  0  0  0  0  0  0  0  0  0  0
  -28.2300   13.1210  -21.8050 N   0  0  0  0  0  0  0  0  0  0  0  0
  -27.9320   13.4620  -22.6800 H   0  0  0  0  0  0  0  0  0  0  0  0
  -27.3740   13.1250  -20.7680 C   0  0  0  0  0  0  0  0  0  0  0  0
  -26.2460   13.5490  -20.9320 O   0  0  0  0  0  0  0  0  0  0  0  0
  -30.2540   12.6610  -22.6130 O   0  0  0  0  0  0  0  0  0  0  0  0
  -27.7350   12.6700  -19.5540 N   0  0  0  0  0  0  0  0  0  0  0  0
  -26.7730   12.6900  -18.4480 C   0  0  0  0  0  0  0  0  0  0  0  0
  -31.0950   11.6430  -19.9250 N   0  0  0  0  0  0  0  0  0  0  0  0
  -31.8190   10.8190  -17.7570 N   0  0  0  0  0  0  0  0  0  0  0  0
  -32.0390    9.8610  -17.8100 H   0  0  0  0  0  0  0  0  0  0  0  0
  -32.4820   11.6700  -16.7650 C   0  0  0  0  0  0  0  0  0  0  0  0
  -33.3500   10.8030  -15.8500 C   0  0  0  0  0  0  0  0  0  0  0  0
  -34.4750   11.6220  -15.3500 N   0  0  0  0  0  0  0  0  0  0  0  0
  -35.3000   11.4320  -15.9190 H   0  0  0  0  0  0  0  0  0  0  0  0
  -36.2740   11.0490  -13.7960 C   0  0  0  0  0  0  0  0  0  0  0  0
  -34.7680   11.2720  -13.9450 C   0  0  0  0  0  0  0  0  0  0  0  0
  -34.1400   13.0570  -15.4540 C   0  0  0  0  0  0  0  0  0  0  0  0
  -34.3400   13.7090  -14.0840 C   0  0  0  0  0  0  0  0  0  0  0  0
  -32.3350   11.4330  -20.6780 C   0  0  0  0  0  0  0  0  0  0  0  0
  -33.1660   12.7180  -20.6590 C   0  0  2  0  0  0  0  0  0  0  0  0
  -32.8890   13.4830  -21.8340 O   0  0  0  0  0  0  0  0  0  0  0  0
  -31.9310   13.6150  -21.9150 H   0  0  0  0  0  0  0  0  0  0  0  0
  -32.8090   13.5390  -19.4190 C   0  0  0  0  0  0  0  0  0  0  0  0
  -32.2340   14.7840  -19.8210 O   0  0  0  0  0  0  0  0  0  0  0  0
  -31.0240   15.1040  -19.2910 C   0  0  0  0  0  0  0  0  0  0  0  0
  -30.6870   14.6700  -18.0180 C   0  0  0  0  0  0  0  0  0  0  0  0
  -29.4570   14.9970  -17.4810 C   0  0  0  0  0  0  0  0  0  0  0  0
  -28.5620   15.7560  -18.2120 C   0  0  0  0  0  0  0  0  0  0  0  0
  -28.8950   16.1900  -19.4820 C   0  0  0  0  0  0  0  0  0  0  0  0
  -30.1240   15.8650  -20.0230 C   0  0  0  0  0  0  0  0  0  0  0  0
  1  2  2  0  0  0  0
  1 14  1  0  0  0  0
  3  2  1  0  0  0  0
  4 13  1  0  0  0  0
  4  3  2  0  0  0  0
  5  4  1  0  0  0  0
  6  5  1  0  0  0  0
  6  8  1  0  0  0  0
  7  6  1  0  0  0  0
  8 11  1  0  0  0  0
  9  8  2  0  0  0  0
 10  5  2  0  0  0  0
 11  3  1  0  0  0  0
 11 12  1  0  0  0  0
 13  1  1  0  0  0  0
 14 16  1  0  0  0  0
 15 14  1  0  0  0  0
 16 17  1  0  0  0  0
 17 18  1  0  0  0  0
 18 21  1  0  0  0  0
 19 18  1  0  0  0  0
 21 20  1  0  0  0  0
 22 18  1  0  0  0  0
 22 23  1  0  0  0  0
 24 25  1  0  0  0  0
 24 13  1  0  0  0  0
 25 26  1  6  0  0  0
 25 28  1  0  0  0  0
 27 26  1  0  0  0  0
 29 28  1  0  0  0  0
 29 30  1  0  0  0  0
 30 31  2  0  0  0  0
 31 32  1  0  0  0  0
 33 32  2  0  0  0  0
 34 33  1  0  0  0  0
 35 34  2  0  0  0  0
 35 30  1  0  0  0  0
M  END
>  <MODEL>
1

>  <REMARK>
 VINA RESULT:      -3.9      0.000      0.000
  Name = ZINC06193542
                            x       y       z     vdW  Elec       q    Type
                         _______ _______ _______ _____ _____    ______ ____

>  <TORSDO>
F 12

>  <vina_score>
-3.9

$$$$
ZINC22962643
 OpenBabel01091701593D

 30 31  0  0  0  0  0  0  0  0999 V2000
  -30.4380   12.6170  -18.8600 C   0  0  0  0  0  0  0  0  0  0  0  0
  -29.3820   12.5890  -19.7480 C   0  0  0  0  0  0  0  0  0  0  0  0
  -28.1260   12.9370  -19.3100 N   0  0  0  0  0  0  0  0  0  0  0  0
  -27.9290   13.3050  -18.0310 C   0  0  0  0  0  0  0  0  0  0  0  0
  -28.9440   13.3330  -17.1500 N   0  0  0  0  0  0  0  0  0  0  0  0
  -28.7710   13.5990  -16.2170 H   0  0  0  0  0  0  0  0  0  0  0  0
  -26.8120   13.6140  -17.6640 O   0  0  0  0  0  0  0  0  0  0  0  0
  -30.1940   13.0030  -17.5280 C   0  0  0  0  0  0  0  0  0  0  0  0
  -31.1080   13.0350  -16.7210 O   0  0  0  0  0  0  0  0  0  0  0  0
  -32.5650   13.2100  -19.7710 C   0  0  0  0  0  0  0  0  0  0  0  0
  -31.7370   12.2660  -19.2780 N   0  0  0  0  0  0  0  0  0  0  0  0
  -33.7120   12.9250  -20.0530 O   0  0  0  0  0  0  0  0  0  0  0  0
  -28.8940   16.3910  -19.5300 C   0  0  0  0  0  0  0  0  0  0  0  0
  -30.3380   16.1070  -19.8530 C   0  0  0  0  0  0  0  0  0  0  0  0
  -31.1480   17.1310  -20.3150 C   0  0  0  0  0  0  0  0  0  0  0  0
  -32.4760   16.8650  -20.6130 C   0  0  0  0  0  0  0  0  0  0  0  0
  -32.9470   15.5740  -20.4390 C   0  0  0  0  0  0  0  0  0  0  0  0
  -32.0770   14.5950  -19.9650 C   0  0  0  0  0  0  0  0  0  0  0  0
  -30.8120   14.8910  -19.6930 N   0  0  0  0  0  0  0  0  0  0  0  0
  -32.1890   10.8760  -19.1780 C   0  0  0  0  0  0  0  0  0  0  0  0
  -33.4360   10.8060  -18.2960 C   0  0  0  0  0  0  0  0  0  0  0  0
  -33.0470   10.8050  -16.9200 O   0  0  0  0  0  0  0  0  0  0  0  0
  -33.8600   11.6330  -16.0870 C   0  0  0  0  0  0  0  0  0  0  0  0
  -29.5850   12.2180  -21.0560 N   0  0  0  0  0  0  0  0  0  0  0  0
  -28.8140   12.0740  -21.6510 H   0  0  0  0  0  0  0  0  0  0  0  0
  -30.5000   12.0970  -21.3980 H   0  0  0  0  0  0  0  0  0  0  0  0
  -26.9970   12.9120  -20.2430 C   0  0  0  0  0  0  0  0  0  0  0  0
  -26.9870   14.2020  -21.0670 C   0  0  0  0  0  0  0  0  0  0  0  0
  -27.3360   13.8790  -22.5210 C   0  0  0  0  0  0  0  0  0  0  0  0
  -25.5970   14.8360  -21.0040 C   0  0  0  0  0  0  0  0  0  0  0  0
  1  8  1  0  0  0  0
  2  3  1  0  0  0  0
  2  1  2  0  0  0  0
  3  4  1  0  0  0  0
  4  7  2  0  0  0  0
  4  5  1  0  0  0  0
  5  6  1  0  0  0  0
  8  5  1  0  0  0  0
  8  9  2  0  0  0  0
 10 11  1  0  0  0  0
 11 20  1  0  0  0  0
 11  1  1  0  0  0  0
 12 10  2  0  0  0  0
 14 19  1  0  0  0  0
 14 13  1  0  0  0  0
 15 14  2  0  0  0  0
 16 17  2  0  0  0  0
 16 15  1  0  0  0  0
 17 18  1  0  0  0  0
 18 10  1  0  0  0  0
 18 19  2  0  0  0  0
 20 21  1  0  0  0  0
 21 22  1  0  0  0  0
 22 23  1  0  0  0  0
 24  2  1  0  0  0  0
 25 24  1  0  0  0  0
 26 24  1  0  0  0  0
 27  3  1  0  0  0  0
 28 30  1  0  0  0  0
 28 27  1  0  0  0  0
 29 28  1  0  0  0  0
M  END
>  <MODEL>
1

>  <REMARK>
 VINA RESULT:      -3.9      0.000      0.000
  Name = ZINC22962643
                            x       y       z     vdW  Elec       q    Type
                         _______ _______ _______ _____ _____    ______ ____

>  <TORSDO>
F 8

>  <vina_score>
-3.9

$$$$
ZINC01606538
 OpenBabel01091701583D

 23 23  0  0  0  0  0  0  0  0999 V2000
  -25.7680   14.0010  -20.7270 C   0  0  0  0  0  0  0  0  0  0  0  0
  -27.0620   13.2740  -20.9870 C   0  0  0  0  0  0  0  0  0  0  0  0
  -28.0210   13.2050  -19.9900 C   0  0  0  0  0  0  0  0  0  0  0  0
  -29.2250   12.5290  -20.2520 C   0  0  0  0  0  0  0  0  0  0  0  0
  -29.3950   11.9500  -21.5150 C   0  0  0  0  0  0  0  0  0  0  0  0
  -28.3830   12.0640  -22.4460 C   0  0  0  0  0  0  0  0  0  0  0  0
  -27.2670   12.7080  -22.1610 N   0  0  0  0  0  0  0  0  0  0  0  0
  -27.8040   13.7850  -18.7810 O   0  0  0  0  0  0  0  0  0  0  0  0
  -27.0730   13.5200  -18.2590 H   0  0  0  0  0  0  0  0  0  0  0  0
  -30.2790   12.4310  -19.2260 C   0  0  0  0  0  0  0  0  0  0  0  0
  -31.1000   13.4200  -19.0430 N   0  0  0  0  0  0  0  0  0  0  0  0
  -32.1020   13.3270  -18.0680 N   0  0  0  0  0  0  0  0  0  0  0  0
  -31.9070   13.5780  -17.1370 H   0  0  0  0  0  0  0  0  0  0  0  0
  -33.3330   12.8940  -18.4070 C   0  0  0  0  0  0  0  0  0  0  0  0
  -33.5730   12.5850  -19.5550 O   0  0  0  0  0  0  0  0  0  0  0  0
  -34.4110   12.7940  -17.3580 C   0  0  0  0  0  0  0  0  0  0  0  0
  -33.8360   12.2690  -16.1130 N   0  0  0  0  0  0  0  0  0  0  0  0
  -34.6950   12.6420  -14.9810 C   0  0  0  0  0  0  0  0  0  0  0  0
  -32.4940   12.8330  -15.9170 C   0  0  0  0  0  0  0  0  0  0  0  0
  -33.7440   10.8050  -16.1970 C   0  0  0  0  0  0  0  0  0  0  0  0
  -30.6640   11.2120  -21.8540 C   0  0  0  0  0  0  0  0  0  0  0  0
  -31.5650   12.0970  -22.5260 O   0  0  0  0  0  0  0  0  0  0  0  0
  -31.4920   11.9650  -23.4840 H   0  0  0  0  0  0  0  0  0  0  0  0
  2  1  1  0  0  0  0
  2  3  2  0  0  0  0
  3  8  1  0  0  0  0
  4  3  1  0  0  0  0
  4 10  1  0  0  0  0
  5  4  2  0  0  0  0
  6  7  2  0  0  0  0
  6  5  1  0  0  0  0
  7  2  1  0  0  0  0
  8  9  1  0  0  0  0
 10 11  2  0  0  0  0
 11 12  1  0  0  0  0
 12 13  1  0  0  0  0
 14 12  1  0  0  0  0
 14 16  1  0  0  0  0
 15 14  2  0  0  0  0
 16 17  1  0  0  0  0
 17 19  1  0  0  0  0
 17 18  1  0  0  0  0
 20 17  1  0  0  0  0
 21  5  1  0  0  0  0
 22 21  1  0  0  0  0
 23 22  1  0  0  0  0
M  END
>  <MODEL>
1

>  <REMARK>
 VINA RESULT:      -3.9      0.000      0.000
  Name = ZINC01606538
                            x       y       z     vdW  Elec       q    Type
                         _______ _______ _______ _____ _____    ______ ____

>  <TORSDO>
F 7

>  <vina_score>
-3.9

$$$$
ZINC11899088
 OpenBabel01091702023D

 34 36  0  0  1  0  0  0  0  0999 V2000
  -31.0610   10.8380  -18.8190 C   0  0  0  0  0  0  0  0  0  0  0  0
  -30.0260   11.5830  -19.5390 N   0  0  0  0  0  0  0  0  0  0  0  0
  -29.3880   12.1440  -19.0420 H   0  0  0  0  0  0  0  0  0  0  0  0
  -29.9460   11.5000  -20.8810 C   0  0  0  0  0  0  0  0  0  0  0  0
  -30.7310   10.8070  -21.4950 O   0  0  0  0  0  0  0  0  0  0  0  0
  -28.8880   12.2600  -21.6160 C   0  0  0  0  0  0  0  0  0  0  0  0
  -28.5010   13.4720  -21.1740 N   0  0  0  0  0  0  0  0  0  0  0  0
  -28.9140   13.8580  -20.3670 H   0  0  0  0  0  0  0  0  0  0  0  0
  -28.3800   11.7850  -22.6100 O   0  0  0  0  0  0  0  0  0  0  0  0
  -27.4640   14.2170  -21.8930 C   0  0  0  0  0  0  0  0  0  0  0  0
  -26.2240   14.3500  -21.0060 C   0  0  0  0  0  0  0  0  0  0  0  0
  -26.6570   14.5500  -19.6060 N   0  0  0  0  0  0  0  0  0  0  0  0
  -25.9050   15.0050  -19.0890 H   0  0  0  0  0  0  0  0  0  0  0  0
  -27.8570   15.4120  -19.5680 C   0  0  0  0  0  0  0  0  0  0  0  0
  -28.2590   15.6280  -18.1060 C   0  0  0  0  0  0  0  0  0  0  0  0
  -28.4940   14.3590  -17.4880 O   0  0  0  0  0  0  0  0  0  0  0  0
  -27.3650   13.4840  -17.5230 C   0  0  0  0  0  0  0  0  0  0  0  0
  -26.9540   13.2460  -18.9790 C   0  0  0  0  0  0  0  0  0  0  0  0
  -32.4230   11.4920  -19.0610 C   0  0  1  0  0  0  0  0  0  0  0  0
  -33.2470   11.4380  -17.8350 N   0  0  0  0  0  0  0  0  0  0  0  0
  -34.0270   10.7970  -17.9880 H   0  0  0  0  0  0  0  0  0  0  0  0
  -33.7830   12.7810  -17.5270 C   0  0  0  0  0  0  0  0  0  0  0  0
  -34.6750   12.6840  -16.2870 C   0  0  0  0  0  0  0  0  0  0  0  0
  -33.8640   12.1920  -15.1540 N   0  0  0  0  0  0  0  0  0  0  0  0
  -33.0850   12.8340  -15.0000 H   0  0  0  0  0  0  0  0  0  0  0  0
  -34.6890   12.1400  -13.9280 C   0  0  0  0  0  0  0  0  0  0  0  0
  -33.3290   10.8490  -15.4620 C   0  0  0  0  0  0  0  0  0  0  0  0
  -32.4360   10.9470  -16.7010 C   0  0  0  0  0  0  0  0  0  0  0  0
  -33.5920   12.9030  -21.5620 C   0  0  0  0  0  0  0  0  0  0  0  0
  -32.7450   13.5430  -20.5530 N   0  0  0  0  0  0  0  0  0  0  0  0
  -32.3490   14.8480  -20.5590 C   0  0  0  0  0  0  0  0  0  0  0  0
  -31.5770   15.0600  -19.4750 C   0  0  0  0  0  0  0  0  0  0  0  0
  -31.4980   13.8440  -18.7680 C   0  0  0  0  0  0  0  0  0  0  0  0
  -32.2240   12.9340  -19.4500 C   0  0  0  0  0  0  0  0  0  0  0  0
  2  3  1  0  0  0  0
  2  1  1  0  0  0  0
  4  2  1  0  0  0  0
  5  4  2  0  0  0  0
  6  7  1  0  0  0  0
  6  4  1  0  0  0  0
  7  8  1  0  0  0  0
  9  6  2  0  0  0  0
 10  7  1  0  0  0  0
 10 11  1  0  0  0  0
 11 12  1  0  0  0  0
 12 14  1  0  0  0  0
 12 13  1  0  0  0  0
 12 18  1  0  0  0  0
 14 15  1  0  0  0  0
 15 16  1  0  0  0  0
 17 16  1  0  0  0  0
 18 17  1  0  0  0  0
 19 34  1  1  0  0  0
 19  1  1  0  0  0  0
 19 20  1  0  0  0  0
 20 22  1  0  0  0  0
 20 28  1  0  0  0  0
 21 20  1  0  0  0  0
 22 23  1  0  0  0  0
 23 24  1  0  0  0  0
 24 25  1  0  0  0  0
 24 26  1  0  0  0  0
 27 24  1  0  0  0  0
 28 27  1  0  0  0  0
 29 30  1  0  0  0  0
 30 34  1  0  0  0  0
 31 30  1  0  0  0  0
 31 32  2  0  0  0  0
 32 33  1  0  0  0  0
 34 33  2  0  0  0  0
M  END
>  <MODEL>
1

>  <REMARK>
 VINA RESULT:      -3.9      0.000      0.000
  Name = ZINC11899088
                            x       y       z     vdW  Elec       q    Type
                         _______ _______ _______ _____ _____    ______ ____

>  <TORSDO>
F 8

>  <vina_score>
-3.9

$$$$
ZINC29462525
 OpenBabel01091702173D

 25 25  0  0  1  0  0  0  0  0999 V2000
  -32.7320   13.0150  -21.3570 C   0  0  1  0  0  0  0  0  0  0  0  0
  -33.0170   14.5120  -21.5000 C   0  0  0  0  0  0  0  0  0  0  0  0
  -31.2780   12.7510  -21.6510 C   0  0  0  0  0  0  0  0  0  0  0  0
  -30.3270   13.5310  -21.1010 N   0  0  0  0  0  0  0  0  0  0  0  0
  -30.5800   14.2730  -20.5070 H   0  0  0  0  0  0  0  0  0  0  0  0
  -29.0260   13.2940  -21.3650 C   0  0  0  0  0  0  0  0  0  0  0  0
  -28.0740   14.0770  -20.8190 N   0  0  0  0  0  0  0  0  0  0  0  0
  -28.3290   14.8220  -20.2280 H   0  0  0  0  0  0  0  0  0  0  0  0
  -28.7110   12.3750  -22.0940 O   0  0  0  0  0  0  0  0  0  0  0  0
  -30.9640   11.8370  -22.3840 O   0  0  0  0  0  0  0  0  0  0  0  0
  -26.6610   13.8200  -21.1060 C   0  0  0  0  0  0  0  0  0  0  0  0
  -26.0670   12.9480  -19.9990 C   0  0  0  0  0  0  0  0  0  0  0  0
  -27.0280   12.7810  -18.9550 O   0  0  0  0  0  0  0  0  0  0  0  0
  -27.0760   13.8680  -18.0290 C   0  0  0  0  0  0  0  0  0  0  0  0
  -33.6130   11.7910  -17.4390 C   0  0  2  0  0  0  0  0  0  0  0  0
  -33.6000   10.8780  -18.4810 C   0  0  0  0  0  0  0  0  0  0  0  0
  -33.3070   11.3180  -19.7580 C   0  0  0  0  0  0  0  0  0  0  0  0
  -33.0400   12.5880  -19.9890 N   0  0  0  0  0  0  0  0  0  0  0  0
  -33.0370   13.4840  -19.0220 C   0  0  0  0  0  0  0  0  0  0  0  0
  -33.3270   13.1180  -17.7200 C   0  0  0  0  0  0  0  0  0  0  0  0
  -33.9280   11.3520  -16.0320 C   0  0  0  0  0  0  0  0  0  0  0  0
  -31.5130   10.8200  -16.3810 C   0  0  0  0  0  0  0  0  0  0  0  0
  -32.6620   10.8030  -15.3720 C   0  0  0  0  0  0  0  0  0  0  0  0
  -34.4440   12.5490  -15.2290 C   0  0  0  0  0  0  0  0  0  0  0  0
  -35.2720   12.0490  -14.0440 C   0  0  0  0  0  0  0  0  0  0  0  0
  1  3  1  1  0  0  0
  1 18  1  0  0  0  0
  2  1  1  0  0  0  0
  3  4  1  0  0  0  0
  4  5  1  0  0  0  0
  6  4  1  0  0  0  0
  6  7  1  0  0  0  0
  7  8  1  0  0  0  0
  9  6  2  0  0  0  0
 10  3  2  0  0  0  0
 11  7  1  0  0  0  0
 11 12  1  0  0  0  0
 12 13  1  0  0  0  0
 13 14  1  0  0  0  0
 15 21  1  1  0  0  0
 16 15  1  0  0  0  0
 17 16  2  0  0  0  0
 18 17  1  0  0  0  0
 18 19  1  0  0  0  0
 19 20  2  0  0  0  0
 20 15  1  0  0  0  0
 21 23  1  0  0  0  0
 21 24  1  0  0  0  0
 22 23  1  0  0  0  0
 24 25  1  0  0  0  0
M  END
>  <MODEL>
1

>  <REMARK>
 VINA RESULT:      -3.8      0.000      0.000
  Name = ZINC29462525
                            x       y       z     vdW  Elec       q    Type
                         _______ _______ _______ _____ _____    ______ ____

>  <TORSDO>
F 8

>  <vina_score>
-3.8

$$$$
ZINC19848804
 OpenBabel01091701583D

 33 35  0  0  1  0  0  0  0  0999 V2000
  -31.7740   12.1600  -20.6750 N   0  0  0  0  0  0  0  0  0  0  0  0
  -31.8500   11.3890  -19.5830 C   0  0  0  0  0  0  0  0  0  0  0  0
  -30.4610   11.1670  -19.0290 C   0  0  2  0  0  0  0  0  0  0  0  0
  -30.3270   11.9070  -17.6820 C   0  0  1  0  0  0  0  0  0  0  0  0
  -29.9200   13.2880  -18.0490 N   0  0  0  0  0  0  0  0  0  0  0  0
  -30.7130   13.8710  -18.3150 H   0  0  0  0  0  0  0  0  0  0  0  0
  -29.4750   13.7550  -17.2600 H   0  0  0  0  0  0  0  0  0  0  0  0
  -28.9550   13.0990  -19.1620 C   0  0  2  0  0  0  0  0  0  0  0  0
  -29.5530   11.9560  -20.0090 C   0  0  2  0  0  0  0  0  0  0  0  0
  -32.8740   10.9410  -19.1120 O   0  0  0  0  0  0  0  0  0  0  0  0
  -30.5330   12.5340  -21.0050 C   0  0  0  0  0  0  0  0  0  0  0  0
  -30.2400   13.2300  -21.9540 O   0  0  0  0  0  0  0  0  0  0  0  0
  -31.6500   11.9250  -16.9590 C   0  0  0  0  0  0  0  0  0  0  0  0
  -32.0800   10.8030  -16.2770 C   0  0  0  0  0  0  0  0  0  0  0  0
  -33.2920   10.8170  -15.6140 C   0  0  0  0  0  0  0  0  0  0  0  0
  -34.0800   11.9600  -15.6300 C   0  0  0  0  0  0  0  0  0  0  0  0
  -33.6500   13.0880  -16.3120 C   0  0  0  0  0  0  0  0  0  0  0  0
  -32.4310   13.0720  -16.9730 C   0  0  0  0  0  0  0  0  0  0  0  0
  -35.2710   11.9740  -14.9770 O   0  0  0  0  0  0  0  0  0  0  0  0
  -35.3810   11.1550  -13.8110 C   0  0  0  0  0  0  0  0  0  0  0  0
  -32.0040   14.1770  -17.6390 O   0  0  0  0  0  0  0  0  0  0  0  0
  -32.1890   15.0300  -17.2970 H   0  0  0  0  0  0  0  0  0  0  0  0
  -27.6040   12.7050  -18.6240 C   0  0  0  0  0  0  0  0  0  0  0  0
  -26.5380   12.6800  -19.4410 O   0  0  0  0  0  0  0  0  0  0  0  0
  -27.4790   12.4110  -17.4590 O   0  0  0  0  0  0  0  0  0  0  0  0
  -32.9540   12.5590  -21.4460 C   0  0  0  0  0  0  0  0  0  0  0  0
  -33.0000   14.0850  -21.5540 C   0  0  0  0  0  0  0  0  0  0  0  0
  -32.4050   16.1970  -20.3590 C   0  0  0  0  0  0  0  0  0  0  0  0
  -32.6860   14.7030  -20.1900 C   0  0  0  0  0  0  0  0  0  0  0  0
  -28.8450   14.3780  -19.9940 C   0  0  0  0  0  0  0  0  0  0  0  0
  -29.1590   15.5880  -19.1140 C   0  0  0  0  0  0  0  0  0  0  0  0
  -29.3610   16.8220  -19.9960 C   0  0  0  0  0  0  0  0  0  0  0  0
  -27.9970   15.8350  -18.1500 C   0  0  0  0  0  0  0  0  0  0  0  0
  1  2  1  0  0  0  0
  2 10  2  0  0  0  0
  3  2  1  6  0  0  0
  3  4  1  0  0  0  0
  4 13  1  6  0  0  0
  5  4  1  0  0  0  0
  5  7  1  0  0  0  0
  6  5  1  0  0  0  0
  8 30  1  6  0  0  0
  8 23  1  0  0  0  0
  8  5  1  0  0  0  0
  9 11  1  6  0  0  0
  9  8  1  0  0  0  0
  9  3  1  0  0  0  0
 11  1  1  0  0  0  0
 12 11  2  0  0  0  0
 13 14  1  0  0  0  0
 14 15  2  0  0  0  0
 16 15  1  0  0  0  0
 16 19  1  0  0  0  0
 17 16  2  0  0  0  0
 18 13  2  0  0  0  0
 18 17  1  0  0  0  0
 19 20  1  0  0  0  0
 21 22  1  0  0  0  0
 21 18  1  0  0  0  0
 23 25  1  0  0  0  0
 24 23  2  0  0  0  0
 26  1  1  0  0  0  0
 27 26  1  0  0  0  0
 27 29  1  0  0  0  0
 28 29  1  0  0  0  0
 30 31  1  0  0  0  0
 31 33  1  0  0  0  0
 32 31  1  0  0  0  0
M  END
>  <MODEL>
1

>  <REMARK>
 VINA RESULT:      -3.8      0.000      0.000
  Name = ZINC19848804
                            x       y       z     vdW  Elec       q    Type
                         _______ _______ _______ _____ _____    ______ ____

>  <TORSDO>
F 9

>  <vina_score>
-3.8

$$$$
ZINC21993044
 OpenBabel01091702063D

 31 33  0  0  1  0  0  0  0  0999 V2000
  -32.1220   14.2710  -20.3050 C   0  0  1  0  0  0  0  0  0  0  0  0
  -32.5090   13.3570  -21.4830 C   0  0  0  0  0  0  0  0  0  0  0  0
  -33.6760   12.9750  -20.5670 C   0  0  1  0  0  0  0  0  0  0  0  0
  -34.0460   11.1990  -20.5290 S   0  0  0  0  0  0  0  0  0  0  0  0
  -34.1820   10.8040  -18.7730 C   0  0  0  0  0  0  0  0  0  0  0  0
  -33.3230   11.6250  -17.8860 C   0  0  0  0  0  0  0  0  0  0  0  0
  -32.7040   12.7620  -18.1580 C   0  0  0  0  0  0  0  0  0  0  0  0
  -32.7830   13.3110  -19.4350 N   0  0  0  0  0  0  0  0  0  0  0  0
  -29.8410   13.5370  -20.7450 C   0  0  0  0  0  0  0  0  0  0  0  0
  -30.6770   14.3630  -20.0850 N   0  0  0  0  0  0  0  0  0  0  0  0
  -30.3160   15.0260  -19.4530 H   0  0  0  0  0  0  0  0  0  0  0  0
  -30.2860   12.7180  -21.5250 O   0  0  0  0  0  0  0  0  0  0  0  0
  -27.5530   13.3810  -21.5020 N   0  0  0  0  0  0  0  0  0  0  0  0
  -28.3790   13.6290  -20.5230 C   0  0  0  0  0  0  0  0  0  0  0  0
  -27.8560   14.0010  -19.1960 C   0  0  0  0  0  0  0  0  0  0  0  0
  -27.2120   13.1720  -18.3280 C   0  0  0  0  0  0  0  0  0  0  0  0
  -26.8930   13.9400  -17.1940 C   0  0  0  0  0  0  0  0  0  0  0  0
  -27.3520   15.1880  -17.4190 C   0  0  0  0  0  0  0  0  0  0  0  0
  -27.9280   15.2230  -18.6320 O   0  0  0  0  0  0  0  0  0  0  0  0
  -25.6610   14.8080  -21.2280 C   0  0  0  0  0  0  0  0  0  0  0  0
  -26.1560   13.4690  -21.2900 O   0  0  0  0  0  0  0  0  0  0  0  0
  -31.9270   13.4480  -17.1090 C   0  0  0  0  0  0  0  0  0  0  0  0
  -30.5880   13.5480  -17.2190 O   0  0  0  0  0  0  0  0  0  0  0  0
  -32.4950   13.9210  -16.1440 O   0  0  0  0  0  0  0  0  0  0  0  0
  -33.1310   11.0940  -16.4880 C   0  0  0  0  0  0  0  0  0  0  0  0
  -34.4260   10.8610  -15.8760 O   0  0  0  0  0  0  0  0  0  0  0  0
  -34.6920   11.5260  -14.7350 C   0  0  0  0  0  0  0  0  0  0  0  0
  -34.7850   12.8700  -14.7430 N   0  0  0  0  0  0  0  0  0  0  0  0
  -34.9790   13.3540  -13.9080 H   0  0  0  0  0  0  0  0  0  0  0  0
  -34.6580   13.3660  -15.5830 H   0  0  0  0  0  0  0  0  0  0  0  0
  -34.8480   10.9120  -13.6980 O   0  0  0  0  0  0  0  0  0  0  0  0
  1 10  1  1  0  0  0
  1  8  1  0  0  0  0
  2  1  1  0  0  0  0
  3  2  1  6  0  0  0
  3  4  1  0  0  0  0
  3  8  1  0  0  0  0
  4  5  1  0  0  0  0
  5  6  1  0  0  0  0
  6 25  1  0  0  0  0
  7  6  2  0  0  0  0
  7 22  1  0  0  0  0
  8  7  1  0  0  0  0
  9 14  1  0  0  0  0
  9 10  1  0  0  0  0
 10 11  1  0  0  0  0
 12  9  2  0  0  0  0
 13 21  1  0  0  0  0
 13 14  2  0  0  0  0
 14 15  1  0  0  0  0
 15 19  1  0  0  0  0
 15 16  2  0  0  0  0
 16 17  1  0  0  0  0
 18 17  2  0  0  0  0
 19 18  1  0  0  0  0
 21 20  1  0  0  0  0
 22 24  1  0  0  0  0
 23 22  2  0  0  0  0
 25 26  1  0  0  0  0
 26 27  1  0  0  0  0
 27 31  2  0  0  0  0
 28 27  1  0  0  0  0
 28 29  1  0  0  0  0
 30 28  1  0  0  0  0
M  END
>  <MODEL>
1

>  <REMARK>
 VINA RESULT:      -3.5      0.000      0.000
  Name = ZINC21993044
                            x       y       z     vdW  Elec       q    Type
                         _______ _______ _______ _____ _____    ______ ____

>  <TORSDO>
F 8

>  <vina_score>
-3.5

$$$$
ZINC17480998
 OpenBabel01091702043D

 31 33  0  0  1  0  0  0  0  0999 V2000
  -29.9270   13.3340  -19.9950 N   0  0  0  0  0  0  0  0  0  0  0  0
  -31.2310   13.6380  -20.1680 C   0  0  0  0  0  0  0  0  0  0  0  0
  -32.0250   12.7890  -21.1410 C   0  0  1  0  0  0  0  0  0  0  0  0
  -31.2680   11.6640  -21.8220 C   0  0  0  0  0  0  0  0  0  0  0  0
  -29.9630   11.5140  -21.5130 N   0  0  0  0  0  0  0  0  0  0  0  0
  -29.4510   10.7900  -21.9420 H   0  0  0  0  0  0  0  0  0  0  0  0
  -31.8160   10.9260  -22.6120 O   0  0  0  0  0  0  0  0  0  0  0  0
  -31.7460   14.5580  -19.5700 O   0  0  0  0  0  0  0  0  0  0  0  0
  -29.3440   12.3190  -20.6430 C   0  0  0  0  0  0  0  0  0  0  0  0
  -28.1660   12.1130  -20.4240 O   0  0  0  0  0  0  0  0  0  0  0  0
  -28.2550   15.0420  -19.5960 C   0  0  0  0  0  0  0  0  0  0  0  0
  -27.5010   15.7980  -18.7130 C   0  0  0  0  0  0  0  0  0  0  0  0
  -27.6480   15.6210  -17.3500 C   0  0  0  0  0  0  0  0  0  0  0  0
  -28.5460   14.6900  -16.8630 C   0  0  0  0  0  0  0  0  0  0  0  0
  -29.3030   13.9310  -17.7370 C   0  0  0  0  0  0  0  0  0  0  0  0
  -29.1610   14.1030  -19.1050 C   0  0  0  0  0  0  0  0  0  0  0  0
  -26.8280   14.9280  -21.4940 C   0  0  0  0  0  0  0  0  0  0  0  0
  -28.1120   15.2150  -20.9360 O   0  0  0  0  0  0  0  0  0  0  0  0
  -33.1860   12.1860  -20.3930 C   0  0  0  0  0  0  0  0  0  0  0  0
  -32.9460   11.7050  -19.1940 N   0  0  0  0  0  0  0  0  0  0  0  0
  -34.0590   11.0900  -18.3930 C   0  0  0  0  0  0  0  0  0  0  0  0
  -33.5410   10.8040  -16.9810 C   0  0  0  0  0  0  0  0  0  0  0  0
  -34.3700   11.5390  -16.0020 N   0  0  0  0  0  0  0  0  0  0  0  0
  -35.3200   11.6180  -16.3660 H   0  0  0  0  0  0  0  0  0  0  0  0
  -33.8210   12.8940  -15.7920 C   0  0  0  0  0  0  0  0  0  0  0  0
  -34.7290   13.6490  -14.8180 C   0  0  0  0  0  0  0  0  0  0  0  0
  -34.7880   12.9210  -13.5350 N   0  0  0  0  0  0  0  0  0  0  0  0
  -35.4070   13.4220  -12.8980 H   0  0  0  0  0  0  0  0  0  0  0  0
  -33.8510   12.8620  -13.1370 H   0  0  0  0  0  0  0  0  0  0  0  0
  -35.3140   11.5590  -13.7460 C   0  0  0  0  0  0  0  0  0  0  0  0
  -34.4060   10.8040  -14.7190 C   0  0  0  0  0  0  0  0  0  0  0  0
  1 16  1  0  0  0  0
  2  1  1  0  0  0  0
  2  8  2  0  0  0  0
  3 19  1  1  0  0  0
  3  2  1  0  0  0  0
  4  5  1  0  0  0  0
  4  3  1  0  0  0  0
  5  9  1  0  0  0  0
  6  5  1  0  0  0  0
  7  4  2  0  0  0  0
  9 10  2  0  0  0  0
  9  1  1  0  0  0  0
 11 16  2  0  0  0  0
 11 12  1  0  0  0  0
 12 13  2  0  0  0  0
 13 14  1  0  0  0  0
 15 14  2  0  0  0  0
 16 15  1  0  0  0  0
 17 18  1  0  0  0  0
 18 11  1  0  0  0  0
 19 20  2  0  0  0  0
 20 21  1  0  0  0  0
 21 22  1  0  0  0  0
 22 23  1  0  0  0  0
 23 25  1  0  0  0  0
 23 31  1  0  0  0  0
 24 23  1  0  0  0  0
 25 26  1  0  0  0  0
 26 27  1  0  0  0  0
 27 29  1  0  0  0  0
 27 28  1  0  0  0  0
 30 27  1  0  0  0  0
 31 30  1  0  0  0  0
M  END
>  <MODEL>
1

>  <REMARK>
 VINA RESULT:      -3.4      0.000      0.000
  Name = ZINC17480998
                            x       y       z     vdW  Elec       q    Type
                         _______ _______ _______ _____ _____    ______ ____

>  <TORSDO>
F 6

>  <vina_score>
-3.4

$$$$
ZINC29840205
 OpenBabel01091702053D

 31 31  0  0  0  0  0  0  0  0999 V2000
  -29.5640   14.3090  -18.9870 C   0  0  0  0  0  0  0  0  0  0  0  0
  -30.3090   15.0370  -19.8970 C   0  0  0  0  0  0  0  0  0  0  0  0
  -31.6300   14.7090  -20.1360 C   0  0  0  0  0  0  0  0  0  0  0  0
  -32.2090   13.6400  -19.4700 C   0  0  0  0  0  0  0  0  0  0  0  0
  -31.4590   12.9020  -18.5590 C   0  0  0  0  0  0  0  0  0  0  0  0
  -30.1350   13.2420  -18.3200 C   0  0  0  0  0  0  0  0  0  0  0  0
  -32.0390   11.8200  -17.8830 N   0  0  0  0  0  0  0  0  0  0  0  0
  -32.2080   10.9760  -18.3590 H   0  0  0  0  0  0  0  0  0  0  0  0
  -32.3650   11.9360  -16.5800 C   0  0  0  0  0  0  0  0  0  0  0  0
  -32.0860   12.9480  -15.9720 O   0  0  0  0  0  0  0  0  0  0  0  0
  -33.0760   10.8080  -15.8780 C   0  0  0  0  0  0  0  0  0  0  0  0
  -34.3500   11.2940  -15.3330 N   0  0  0  0  0  0  0  0  0  0  0  0
  -35.1010   10.9260  -15.9180 H   0  0  0  0  0  0  0  0  0  0  0  0
  -34.4180   12.7610  -15.3830 C   0  0  0  0  0  0  0  0  0  0  0  0
  -34.7790   13.2070  -16.8010 C   0  0  0  0  0  0  0  0  0  0  0  0
  -34.5600   10.8040  -13.9650 C   0  0  0  0  0  0  0  0  0  0  0  0
  -35.8970   11.3250  -13.4360 C   0  0  0  0  0  0  0  0  0  0  0  0
  -35.9920   12.7300  -13.6800 O   0  0  0  0  0  0  0  0  0  0  0  0
  -35.7480   12.9140  -14.6010 H   0  0  0  0  0  0  0  0  0  0  0  0
  -27.8820   14.7380  -18.6830 S   0  0  0  0  0  0  0  0  0  0  0  0
  -27.5270   14.1390  -17.4450 O   0  0  0  0  0  0  0  0  0  0  0  0
  -27.7720   16.1360  -18.9120 O   0  0  0  0  0  0  0  0  0  0  0  0
  -26.9700   13.9950  -19.8480 N   0  0  0  0  0  0  0  0  0  0  0  0
  -25.2160   12.5030  -20.6730 C   0  0  0  0  0  0  0  0  0  0  0  0
  -26.1450   12.8340  -19.5030 C   0  0  0  0  0  0  0  0  0  0  0  0
  -26.9890   14.4960  -21.2250 C   0  0  0  0  0  0  0  0  0  0  0  0
  -27.6090   13.4410  -22.1430 C   0  0  0  0  0  0  0  0  0  0  0  0
  -33.5070   13.3120  -19.7080 O   0  0  0  0  0  0  0  0  0  0  0  0
  -33.7550   12.3460  -20.7320 C   0  0  0  0  0  0  0  0  0  0  0  0
  -34.3130   11.0680  -20.1040 C   0  0  0  0  0  0  0  0  0  0  0  0
  -32.4480   12.0280  -21.4600 C   0  0  0  0  0  0  0  0  0  0  0  0
  1 20  1  0  0  0  0
  1  6  2  0  0  0  0
  2  1  1  0  0  0  0
  3  2  2  0  0  0  0
  3  4  1  0  0  0  0
  4  5  2  0  0  0  0
  5  6  1  0  0  0  0
  5  7  1  0  0  0  0
  7  9  1  0  0  0  0
  8  7  1  0  0  0  0
  9 10  2  0  0  0  0
  9 11  1  0  0  0  0
 11 12  1  0  0  0  0
 12 16  1  0  0  0  0
 13 12  1  0  0  0  0
 14 12  1  0  0  0  0
 15 14  1  0  0  0  0
 16 17  1  0  0  0  0
 18 17  1  0  0  0  0
 19 18  1  0  0  0  0
 20 21  2  0  0  0  0
 22 20  2  0  0  0  0
 23 25  1  0  0  0  0
 23 20  1  0  0  0  0
 24 25  1  0  0  0  0
 26 23  1  0  0  0  0
 27 26  1  0  0  0  0
 28  4  1  0  0  0  0
 29 30  1  0  0  0  0
 29 28  1  0  0  0  0
 31 29  1  0  0  0  0
M  END
>  <MODEL>
1

>  <REMARK>
 VINA RESULT:      -3.4      0.000      0.000
  Name = ZINC29840205
                            x       y       z     vdW  Elec       q    Type
                         _______ _______ _______ _____ _____    ______ ____

>  <TORSDO>
F 13

>  <vina_score>
-3.4

$$$$
ZINC29372671
 OpenBabel01091702113D

 33 34  0  0  1  0  0  0  0  0999 V2000
  -30.5220   12.1940  -19.1970 N   0  0  0  0  0  0  0  0  0  0  0  0
  -29.6930   12.6770  -18.9770 H   0  0  0  0  0  0  0  0  0  0  0  0
  -30.5710   11.3970  -20.2830 C   0  0  0  0  0  0  0  0  0  0  0  0
  -31.5930   10.8030  -20.5530 O   0  0  0  0  0  0  0  0  0  0  0  0
  -32.9190   12.7640  -18.7470 C   0  0  0  0  0  0  0  0  0  0  0  0
  -33.8820   12.8180  -17.7500 C   0  0  0  0  0  0  0  0  0  0  0  0
  -35.2910   13.2630  -18.0470 C   0  0  0  0  0  0  0  0  0  0  0  0
  -33.5060   12.4540  -16.4850 C   0  0  0  0  0  0  0  0  0  0  0  0
  -31.7870   12.0300  -16.6930 S   0  0  0  0  0  0  0  0  0  0  0  0
  -31.6370   12.3350  -18.3920 C   0  0  0  0  0  0  0  0  0  0  0  0
  -34.3160   12.4200  -15.2660 C   0  0  0  0  0  0  0  0  0  0  0  0
  -34.9250   11.2760  -14.8930 N   0  0  0  0  0  0  0  0  0  0  0  0
  -34.8260   10.4640  -15.4410 H   0  0  0  0  0  0  0  0  0  0  0  0
  -35.7360   11.2430  -13.6740 C   0  0  0  0  0  0  0  0  0  0  0  0
  -34.4400   13.4240  -14.5890 O   0  0  0  0  0  0  0  0  0  0  0  0
  -33.2390   13.1370  -20.1310 C   0  0  0  0  0  0  0  0  0  0  0  0
  -34.0140   12.4590  -20.7790 O   0  0  0  0  0  0  0  0  0  0  0  0
  -32.6750   14.2300  -20.6810 O   0  0  0  0  0  0  0  0  0  0  0  0
  -30.8100   15.7030  -20.1510 C   0  0  0  0  0  0  0  0  0  0  0  0
  -32.2270   15.2690  -19.7710 C   0  0  0  0  0  0  0  0  0  0  0  0
  -29.3560   11.2450  -21.1600 C   0  0  1  0  0  0  0  0  0  0  0  0
  -29.7960   10.9980  -22.6040 C   0  0  0  0  0  0  0  0  0  0  0  0
  -28.5520   12.4680  -21.0980 N   0  0  0  0  0  0  0  0  0  0  0  0
  -28.1400   13.0220  -22.2220 C   0  0  0  0  0  0  0  0  0  0  0  0
  -27.3790   14.1770  -22.2120 C   0  0  0  0  0  0  0  0  0  0  0  0
  -27.0480   14.7590  -21.0010 C   0  0  0  0  0  0  0  0  0  0  0  0
  -27.5000   14.1490  -19.8250 C   0  0  0  0  0  0  0  0  0  0  0  0
  -28.2670   12.9870  -19.9210 C   0  0  0  0  0  0  0  0  0  0  0  0
  -27.1760   14.7280  -18.5050 C   0  0  0  0  0  0  0  0  0  0  0  0
  -27.4420   16.0260  -18.2540 N   0  0  0  0  0  0  0  0  0  0  0  0
  -27.2260   16.4120  -17.3740 H   0  0  0  0  0  0  0  0  0  0  0  0
  -27.8530   16.5870  -18.9510 H   0  0  0  0  0  0  0  0  0  0  0  0
  -26.6690   14.0360  -17.6450 O   0  0  0  0  0  0  0  0  0  0  0  0
  1  2  1  0  0  0  0
  1 10  1  0  0  0  0
  3  1  1  0  0  0  0
  4  3  2  0  0  0  0
  5 10  2  0  0  0  0
  5  6  1  0  0  0  0
  6  8  2  0  0  0  0
  7  6  1  0  0  0  0
  8 11  1  0  0  0  0
  9  8  1  0  0  0  0
 10  9  1  0  0  0  0
 11 12  1  0  0  0  0
 11 15  2  0  0  0  0
 12 14  1  0  0  0  0
 13 12  1  0  0  0  0
 16  5  1  0  0  0  0
 17 16  2  0  0  0  0
 18 16  1  0  0  0  0
 18 20  1  0  0  0  0
 19 20  1  0  0  0  0
 21 22  1  6  0  0  0
 21 23  1  0  0  0  0
 21  3  1  0  0  0  0
 23 28  1  0  0  0  0
 24 25  2  0  0  0  0
 24 23  1  0  0  0  0
 25 26  1  0  0  0  0
 26 27  1  0  0  0  0
 27 29  1  0  0  0  0
 28 27  2  0  0  0  0
 29 30  1  0  0  0  0
 29 33  2  0  0  0  0
 30 31  1  0  0  0  0
 32 30  1  0  0  0  0
M  END
>  <MODEL>
1

>  <REMARK>
 VINA RESULT:      -3.4      0.000      0.000
  Name = ZINC29372671
                            x       y       z     vdW  Elec       q    Type
                         _______ _______ _______ _____ _____    ______ ____

>  <TORSDO>
F 8

>  <vina_score>
-3.4

$$$$
ZINC09600195
 OpenBabel01091702083D

 32 33  0  0  1  0  0  0  0  0999 V2000
  -30.2400   11.8660  -21.4680 C   0  0  0  0  0  0  0  0  0  0  0  0
  -29.5840   12.0100  -20.2990 N   0  0  0  0  0  0  0  0  0  0  0  0
  -30.0880   12.1140  -19.4600 H   0  0  0  0  0  0  0  0  0  0  0  0
  -29.6180   11.7380  -22.5010 O   0  0  0  0  0  0  0  0  0  0  0  0
  -32.4160   10.9240  -20.8070 N   0  0  0  0  0  0  0  0  0  0  0  0
  -31.9310   10.2380  -20.2940 H   0  0  0  0  0  0  0  0  0  0  0  0
  -31.7350   11.8650  -21.4890 C   0  0  0  0  0  0  0  0  0  0  0  0
  -32.3340   12.7100  -22.1200 O   0  0  0  0  0  0  0  0  0  0  0  0
  -33.8810   10.9220  -20.8270 C   0  0  0  0  0  0  0  0  0  0  0  0
  -34.4120   11.0180  -19.3950 C   0  0  0  0  0  0  0  0  0  0  0  0
  -33.4180   11.7320  -18.5650 N   0  0  0  0  0  0  0  0  0  0  0  0
  -32.6800   12.0920  -19.1690 H   0  0  0  0  0  0  0  0  0  0  0  0
  -33.7840   12.7370  -16.3680 C   0  0  0  0  0  0  0  0  0  0  0  0
  -34.0630   12.8620  -17.8670 C   0  0  0  0  0  0  0  0  0  0  0  0
  -32.8220   10.8040  -17.5810 C   0  0  0  0  0  0  0  0  0  0  0  0
  -31.3330   11.1270  -17.4390 C   0  0  0  0  0  0  0  0  0  0  0  0
  -28.1180   12.0110  -20.2780 C   0  0  0  0  0  0  0  0  0  0  0  0
  -27.6050   13.4040  -20.6490 C   0  0  1  0  0  0  0  0  0  0  0  0
  -27.3630   14.1880  -19.4280 N   0  0  0  0  0  0  0  0  0  0  0  0
  -25.9320   14.5650  -19.4570 C   0  0  0  0  0  0  0  0  0  0  0  0
  -25.5710   14.4270  -20.9550 C   0  0  0  0  0  0  0  0  0  0  0  0
  -26.3620   13.2870  -21.3630 O   0  0  0  0  0  0  0  0  0  0  0  0
  -28.4710   14.5750  -18.2590 S   0  0  0  0  0  0  0  0  0  0  0  0
  -27.8860   15.5990  -17.4680 O   0  0  0  0  0  0  0  0  0  0  0  0
  -28.9200   13.3460  -17.7040 O   0  0  0  0  0  0  0  0  0  0  0  0
  -29.8560   15.2960  -19.0740 C   0  0  0  0  0  0  0  0  0  0  0  0
  -31.0370   14.5860  -19.1870 C   0  0  0  0  0  0  0  0  0  0  0  0
  -32.1270   15.1520  -19.8220 C   0  0  0  0  0  0  0  0  0  0  0  0
  -32.0310   16.4280  -20.3540 C   0  0  0  0  0  0  0  0  0  0  0  0
  -33.0930   16.9800  -20.9790 F   0  0  0  0  0  0  0  0  0  0  0  0
  -30.8460   17.1360  -20.2450 C   0  0  0  0  0  0  0  0  0  0  0  0
  -29.7600   16.5690  -19.6050 C   0  0  0  0  0  0  0  0  0  0  0  0
  1  2  1  0  0  0  0
  2 17  1  0  0  0  0
  2  3  1  0  0  0  0
  4  1  2  0  0  0  0
  5  6  1  0  0  0  0
  7  1  1  0  0  0  0
  7  5  1  0  0  0  0
  8  7  2  0  0  0  0
  9  5  1  0  0  0  0
  9 10  1  0  0  0  0
 10 11  1  0  0  0  0
 11 14  1  0  0  0  0
 11 15  1  0  0  0  0
 12 11  1  0  0  0  0
 14 13  1  0  0  0  0
 15 16  1  0  0  0  0
 18 17  1  1  0  0  0
 18 19  1  0  0  0  0
 19 23  1  0  0  0  0
 20 19  1  0  0  0  0
 21 20  1  0  0  0  0
 22 21  1  0  0  0  0
 22 18  1  0  0  0  0
 23 25  2  0  0  0  0
 23 24  2  0  0  0  0
 26 23  1  0  0  0  0
 27 26  1  0  0  0  0
 28 27  2  0  0  0  0
 29 31  2  0  0  0  0
 29 28  1  0  0  0  0
 30 29  1  0  0  0  0
 31 32  1  0  0  0  0
 32 26  2  0  0  0  0
M  END
>  <MODEL>
1

>  <REMARK>
 VINA RESULT:      -3.2      0.000      0.000
  Name = ZINC09600195
                            x       y       z     vdW  Elec       q    Type
                         _______ _______ _______ _____ _____    ______ ____

>  <TORSDO>
F 10

>  <vina_score>
-3.2

$$$$
ZINC14953235
 OpenBabel01091701583D

 35 37  0  0  1  0  0  0  0  0999 V2000
  -27.4350   12.7090  -20.4160 C   0  0  2  0  0  0  0  0  0  0  0  0
  -29.5880   15.3910  -18.8490 C   0  0  0  0  0  0  0  0  0  0  0  0
  -28.7460   14.7260  -19.7290 C   0  0  0  0  0  0  0  0  0  0  0  0
  -28.3550   13.4280  -19.4640 C   0  0  0  0  0  0  0  0  0  0  0  0
  -28.8100   12.7850  -18.3280 C   0  0  0  0  0  0  0  0  0  0  0  0
  -29.6520   13.4460  -17.4450 C   0  0  0  0  0  0  0  0  0  0  0  0
  -30.0420   14.7500  -17.7070 C   0  0  0  0  0  0  0  0  0  0  0  0
  -29.9680   16.6710  -19.1070 O   0  0  0  0  0  0  0  0  0  0  0  0
  -32.1060   16.3950  -20.1970 C   0  0  0  0  0  0  0  0  0  0  0  0
  -30.6690   16.9040  -20.3300 C   0  0  0  0  0  0  0  0  0  0  0  0
  -30.0950   12.8150  -16.3250 O   0  0  0  0  0  0  0  0  0  0  0  0
  -31.4390   12.3330  -16.3420 C   0  0  0  0  0  0  0  0  0  0  0  0
  -31.5850   11.2560  -17.4220 C   0  0  0  0  0  0  0  0  0  0  0  0
  -33.0460   10.8050  -17.4880 C   0  0  0  0  0  0  0  0  0  0  0  0
  -33.8820   11.9330  -17.7520 O   0  0  0  0  0  0  0  0  0  0  0  0
  -33.8230   12.9510  -16.7510 C   0  0  0  0  0  0  0  0  0  0  0  0
  -32.3930   13.4910  -16.6560 C   0  0  0  0  0  0  0  0  0  0  0  0
  -26.5070   13.7030  -21.0660 C   0  0  0  0  0  0  0  0  0  0  0  0
  -26.9690   14.5310  -22.0150 O   0  0  0  0  0  0  0  0  0  0  0  0
  -25.3470   13.7550  -20.7300 O   0  0  0  0  0  0  0  0  0  0  0  0
  -28.2300   12.0370  -21.4480 N   0  0  0  0  0  0  0  0  0  0  0  0
  -27.7850   11.6220  -22.2210 H   0  0  0  0  0  0  0  0  0  0  0  0
  -29.6170   11.9850  -21.3340 C   0  0  0  0  0  0  0  0  0  0  0  0
  -30.3900   13.0610  -21.7620 C   0  0  0  0  0  0  0  0  0  0  0  0
  -31.7620   13.0080  -21.6540 C   0  0  0  0  0  0  0  0  0  0  0  0
  -32.3770   11.8810  -21.1060 C   0  0  0  0  0  0  0  0  0  0  0  0
  -31.5980   10.8060  -20.6730 C   0  0  0  0  0  0  0  0  0  0  0  0
  -30.2270   10.8600  -20.7870 C   0  0  0  0  0  0  0  0  0  0  0  0
  -33.8490   11.8260  -20.9860 C   0  0  0  0  0  0  0  0  0  0  0  0
  -34.4630   10.8050  -21.5660 N   0  0  0  0  0  0  0  0  0  0  0  0
  -35.4440   10.7240  -21.5130 H   0  0  0  0  0  0  0  0  0  0  0  0
  -33.9400   10.1260  -22.0500 H   0  0  0  0  0  0  0  0  0  0  0  0
  -34.5220   12.8090  -20.2930 N   0  0  0  0  0  0  0  0  0  0  0  0
  -35.4970   12.9000  -20.3870 H   0  0  0  0  0  0  0  0  0  0  0  0
  -34.0260   13.4210  -19.7020 H   0  0  0  0  0  0  0  0  0  0  0  0
  1 21  1  6  0  0  0
  1  4  1  0  0  0  0
  2  7  2  0  0  0  0
  3  4  2  0  0  0  0
  3  2  1  0  0  0  0
  4  5  1  0  0  0  0
  5  6  2  0  0  0  0
  6 11  1  0  0  0  0
  7  6  1  0  0  0  0
  8  2  1  0  0  0  0
 10  9  1  0  0  0  0
 10  8  1  0  0  0  0
 12 11  1  0  0  0  0
 13 12  1  0  0  0  0
 14 13  1  0  0  0  0
 15 14  1  0  0  0  0
 15 16  1  0  0  0  0
 16 17  1  0  0  0  0
 17 12  1  0  0  0  0
 18 20  1  0  0  0  0
 18  1  1  0  0  0  0
 19 18  2  0  0  0  0
 21 23  1  0  0  0  0
 22 21  1  0  0  0  0
 23 28  2  0  0  0  0
 24 25  2  0  0  0  0
 24 23  1  0  0  0  0
 25 26  1  0  0  0  0
 26 29  1  0  0  0  0
 26 27  2  0  0  0  0
 28 27  1  0  0  0  0
 29 33  1  0  0  0  0
 30 31  1  0  0  0  0
 30 29  2  0  0  0  0
 32 30  1  0  0  0  0
 33 35  1  0  0  0  0
 34 33  1  0  0  0  0
M  END
>  <MODEL>
1

>  <REMARK>
 VINA RESULT:      -3.2      0.000      0.000
  Name = ZINC14953235
                            x       y       z     vdW  Elec       q    Type
                         _______ _______ _______ _____ _____    ______ ____

>  <TORSDO>
F 10

>  <vina_score>
-3.2

$$$$
ZINC05887406
 OpenBabel01091702013D

 33 33  0  0  1  0  0  0  0  0999 V2000
  -28.5380   14.0080  -19.6350 C   0  0  2  0  0  0  0  0  0  0  0  0
  -29.6520   13.0180  -19.4170 C   0  0  0  0  0  0  0  0  0  0  0  0
  -30.9360   13.4070  -19.5530 N   0  0  0  0  0  0  0  0  0  0  0  0
  -31.1440   14.3170  -19.8660 H   0  0  0  0  0  0  0  0  0  0  0  0
  -29.3950   11.8710  -19.1180 O   0  0  0  0  0  0  0  0  0  0  0  0
  -31.9740   12.5160  -19.2490 C   0  0  0  0  0  0  0  0  0  0  0  0
  -32.4830   11.8920  -20.2770 C   0  0  0  0  0  0  0  0  0  0  0  0
  -33.5650   10.8760  -20.2530 C   0  0  0  0  0  0  0  0  0  0  0  0
  -34.6240   11.1370  -19.2140 C   0  0  0  0  0  0  0  0  0  0  0  0
  -34.1820   10.8030  -17.8120 C   0  0  0  0  0  0  0  0  0  0  0  0
  -33.2710   11.7630  -17.2430 N   0  0  0  0  0  0  0  0  0  0  0  0
  -32.3130   12.4300  -17.8490 C   0  0  0  0  0  0  0  0  0  0  0  0
  -31.5980   13.0800  -17.1110 O   0  0  0  0  0  0  0  0  0  0  0  0
  -33.4330   12.0320  -15.8120 C   0  0  0  0  0  0  0  0  0  0  0  0
  -34.7610   12.7550  -15.5760 C   0  0  0  0  0  0  0  0  0  0  0  0
  -35.2710   12.4080  -14.2870 O   0  0  0  0  0  0  0  0  0  0  0  0
  -35.1030   11.0310  -13.9470 C   0  0  0  0  0  0  0  0  0  0  0  0
  -28.8270   15.2830  -18.8400 C   0  0  0  0  0  0  0  0  0  0  0  0
  -28.9430   15.8940  -16.4200 C   0  0  0  0  0  0  0  0  0  0  0  0
  -28.0910   15.2250  -17.4990 C   0  0  0  0  0  0  0  0  0  0  0  0
  -27.8380   13.7640  -17.1190 C   0  0  0  0  0  0  0  0  0  0  0  0
  -28.4420   14.3470  -21.1240 C   0  0  2  0  0  0  0  0  0  0  0  0
  -28.7150   13.1100  -21.9390 C   0  0  0  0  0  0  0  0  0  0  0  0
  -29.9440   12.5570  -21.9330 N   0  0  0  0  0  0  0  0  0  0  0  0
  -30.6810   13.0020  -21.4570 H   0  0  0  0  0  0  0  0  0  0  0  0
  -27.8290   12.6110  -22.6000 O   0  0  0  0  0  0  0  0  0  0  0  0
  -30.1750   11.3350  -22.6120 O   0  0  0  0  0  0  0  0  0  0  0  0
  -31.1300   11.1750  -22.6730 H   0  0  0  0  0  0  0  0  0  0  0  0
  -27.0370   14.8650  -21.4390 C   0  0  0  0  0  0  0  0  0  0  0  0
  -26.1120   14.5850  -20.2530 C   0  0  0  0  0  0  0  0  0  0  0  0
  -25.4510   13.2160  -20.4340 C   0  0  0  0  0  0  0  0  0  0  0  0
  -26.2190   12.2240  -19.7500 O   0  0  0  0  0  0  0  0  0  0  0  0
  -25.7710   11.9810  -18.9250 H   0  0  0  0  0  0  0  0  0  0  0  0
  1  2  1  6  0  0  0
  1 18  1  0  0  0  0
  2  5  2  0  0  0  0
  3  2  1  0  0  0  0
  3  6  1  0  0  0  0
  4  3  1  0  0  0  0
  6 12  1  0  0  0  0
  7  8  1  0  0  0  0
  7  6  2  0  0  0  0
  8  9  1  0  0  0  0
  9 10  1  0  0  0  0
 10 11  1  0  0  0  0
 11 14  1  0  0  0  0
 12 11  1  0  0  0  0
 12 13  2  0  0  0  0
 14 15  1  0  0  0  0
 15 16  1  0  0  0  0
 16 17  1  0  0  0  0
 18 20  1  0  0  0  0
 20 21  1  0  0  0  0
 20 19  1  0  0  0  0
 22 23  1  6  0  0  0
 22  1  1  0  0  0  0
 23 24  1  0  0  0  0
 24 25  1  0  0  0  0
 26 23  2  0  0  0  0
 27 24  1  0  0  0  0
 28 27  1  0  0  0  0
 29 22  1  0  0  0  0
 29 30  1  0  0  0  0
 31 30  1  0  0  0  0
 31 32  1  0  0  0  0
 32 33  1  0  0  0  0
M  END
>  <MODEL>
1

>  <REMARK>
 VINA RESULT:      -3.2      0.000      0.000
  Name = ZINC05887406
                            x       y       z     vdW  Elec       q    Type
                         _______ _______ _______ _____ _____    ______ ____

>  <TORSDO>
F 14

>  <vina_score>
-3.2

$$$$
ZINC06444932
 OpenBabel01091701583D

 33 35  0  0  1  0  0  0  0  0999 V2000
  -29.0760   15.6180  -16.2990 C   0  0  0  0  0  0  0  0  0  0  0  0
  -29.1900   14.4480  -17.1740 N   0  0  0  0  0  0  0  0  0  0  0  0
  -30.3630   13.7100  -17.1910 C   0  0  0  0  0  0  0  0  0  0  0  0
  -30.4450   12.6030  -18.0300 C   0  0  0  0  0  0  0  0  0  0  0  0
  -31.7100   12.0640  -17.8430 N   0  0  0  0  0  0  0  0  0  0  0  0
  -32.3350   12.8430  -16.9210 C   0  0  0  0  0  0  0  0  0  0  0  0
  -29.3410   12.2680  -18.8340 C   0  0  0  0  0  0  0  0  0  0  0  0
  -28.2260   13.0250  -18.7730 N   0  0  0  0  0  0  0  0  0  0  0  0
  -27.0730   12.6790  -19.6090 C   0  0  0  0  0  0  0  0  0  0  0  0
  -29.3900   11.3030  -19.5760 O   0  0  0  0  0  0  0  0  0  0  0  0
  -31.5250   13.8110  -16.5440 N   0  0  0  0  0  0  0  0  0  0  0  0
  -28.1550   14.0890  -17.9540 C   0  0  0  0  0  0  0  0  0  0  0  0
  -27.1320   14.7450  -17.9220 O   0  0  0  0  0  0  0  0  0  0  0  0
  -33.6150   12.6500  -16.4520 N   0  0  0  0  0  0  0  0  0  0  0  0
  -34.3660   13.1450  -16.8510 H   0  0  0  0  0  0  0  0  0  0  0  0
  -33.8600   11.7070  -15.3570 C   0  0  0  0  0  0  0  0  0  0  0  0
  -34.9760   12.2450  -14.4620 C   0  0  0  0  0  0  0  0  0  0  0  0
  -34.5650   13.4840  -13.8780 O   0  0  0  0  0  0  0  0  0  0  0  0
  -34.5300   14.1680  -14.5650 H   0  0  0  0  0  0  0  0  0  0  0  0
  -32.2650   10.8840  -18.5120 C   0  0  0  0  0  0  0  0  0  0  0  0
  -33.1440   11.3280  -19.6820 C   0  0  2  0  0  0  0  0  0  0  0  0
  -34.4630   10.8040  -19.5140 O   0  0  0  0  0  0  0  0  0  0  0  0
  -34.4880   10.2410  -18.7240 H   0  0  0  0  0  0  0  0  0  0  0  0
  -32.5500   10.8060  -20.9930 C   0  0  0  0  0  0  0  0  0  0  0  0
  -32.3870   11.8920  -21.9070 O   0  0  0  0  0  0  0  0  0  0  0  0
  -31.9990   13.0860  -21.3830 C   0  0  0  0  0  0  0  0  0  0  0  0
  -30.6580   13.4350  -21.3680 C   0  0  0  0  0  0  0  0  0  0  0  0
  -30.2660   14.6490  -20.8400 C   0  0  0  0  0  0  0  0  0  0  0  0
  -31.2140   15.5160  -20.3170 C   0  0  0  0  0  0  0  0  0  0  0  0
  -32.5550   15.1650  -20.3280 C   0  0  0  0  0  0  0  0  0  0  0  0
  -32.9480   13.9520  -20.8590 C   0  0  0  0  0  0  0  0  0  0  0  0
  -30.8270   16.7110  -19.7930 O   0  0  0  0  0  0  0  0  0  0  0  0
  -29.4920   17.1380  -20.0700 C   0  0  0  0  0  0  0  0  0  0  0  0
  2  1  1  0  0  0  0
  3  2  1  0  0  0  0
  3 11  1  0  0  0  0
  4  5  1  0  0  0  0
  4  3  2  0  0  0  0
  5  6  1  0  0  0  0
  6 11  2  0  0  0  0
  6 14  1  0  0  0  0
  7  8  1  0  0  0  0
  7  4  1  0  0  0  0
  8 12  1  0  0  0  0
  9  8  1  0  0  0  0
 10  7  2  0  0  0  0
 12 13  2  0  0  0  0
 12  2  1  0  0  0  0
 14 16  1  0  0  0  0
 15 14  1  0  0  0  0
 16 17  1  0  0  0  0
 17 18  1  0  0  0  0
 19 18  1  0  0  0  0
 20  5  1  0  0  0  0
 21 24  1  6  0  0  0
 21 22  1  0  0  0  0
 21 20  1  0  0  0  0
 22 23  1  0  0  0  0
 25 26  1  0  0  0  0
 25 24  1  0  0  0  0
 26 27  2  0  0  0  0
 26 31  1  0  0  0  0
 27 28  1  0  0  0  0
 28 29  2  0  0  0  0
 29 32  1  0  0  0  0
 30 29  1  0  0  0  0
 31 30  2  0  0  0  0
 33 32  1  0  0  0  0
M  END
>  <MODEL>
1

>  <REMARK>
 VINA RESULT:      -3.1      0.000      0.000
  Name = ZINC06444932
                            x       y       z     vdW  Elec       q    Type
                         _______ _______ _______ _____ _____    ______ ____

>  <TORSDO>
F 11

>  <vina_score>
-3.1

$$$$
ZINC09216860
 OpenBabel01091702033D

 34 36  0  0  0  0  0  0  0  0999 V2000
  -29.4770   14.8520  -18.2640 C   0  0  0  0  0  0  0  0  0  0  0  0
  -28.5080   14.0560  -17.7700 N   0  0  0  0  0  0  0  0  0  0  0  0
  -28.6990   13.1090  -17.5800 H   0  0  0  0  0  0  0  0  0  0  0  0
  -29.2420   16.0220  -18.4980 O   0  0  0  0  0  0  0  0  0  0  0  0
  -31.3600   13.3330  -17.6720 C   0  0  0  0  0  0  0  0  0  0  0  0
  -30.8240   14.3040  -18.5220 C   0  0  0  0  0  0  0  0  0  0  0  0
  -31.5710   14.7590  -19.6120 C   0  0  0  0  0  0  0  0  0  0  0  0
  -30.9160   15.9700  -20.6690 Cl  0  0  0  0  0  0  0  0  0  0  0  0
  -32.8270   14.2370  -19.8500 C   0  0  0  0  0  0  0  0  0  0  0  0
  -33.3510   13.2750  -19.0030 C   0  0  0  0  0  0  0  0  0  0  0  0
  -34.9340   12.6300  -19.3040 Cl  0  0  0  0  0  0  0  0  0  0  0  0
  -32.6170   12.8250  -17.9170 C   0  0  0  0  0  0  0  0  0  0  0  0
  -33.2950   11.6000  -16.8470 S   0  0  0  0  0  0  0  0  0  0  0  0
  -32.2050   11.0460  -16.1220 O   0  0  0  0  0  0  0  0  0  0  0  0
  -34.1630   10.8030  -17.6420 O   0  0  0  0  0  0  0  0  0  0  0  0
  -34.2480   12.3840  -15.7440 N   0  0  0  0  0  0  0  0  0  0  0  0
  -35.1850   12.4310  -16.1450 H   0  0  0  0  0  0  0  0  0  0  0  0
  -34.3930   11.8470  -14.3890 C   0  0  0  0  0  0  0  0  0  0  0  0
  -35.5250   10.8480  -14.1430 C   0  0  0  0  0  0  0  0  0  0  0  0
  -35.6290   12.2710  -13.5910 C   0  0  0  0  0  0  0  0  0  0  0  0
  -27.1720   14.6000  -17.5160 C   0  0  0  0  0  0  0  0  0  0  0  0
  -26.2520   14.2640  -18.6910 C   0  0  0  0  0  0  0  0  0  0  0  0
  -26.5660   12.8560  -19.1990 C   0  0  0  0  0  0  0  0  0  0  0  0
  -27.4820   12.9450  -20.3930 C   0  0  0  0  0  0  0  0  0  0  0  0
  -28.7530   12.3360  -20.5110 C   0  0  0  0  0  0  0  0  0  0  0  0
  -29.2500   12.6740  -21.7670 C   0  0  0  0  0  0  0  0  0  0  0  0
  -28.3220   13.4470  -22.3680 N   0  0  0  0  0  0  0  0  0  0  0  0
  -28.3930   13.8380  -23.2690 H   0  0  0  0  0  0  0  0  0  0  0  0
  -27.2380   13.5970  -21.4940 N   0  0  0  0  0  0  0  0  0  0  0  0
  -30.4670   12.2900  -22.2980 N   0  0  0  0  0  0  0  0  0  0  0  0
  -30.7700   12.6670  -23.1560 H   0  0  0  0  0  0  0  0  0  0  0  0
  -31.0300   11.6410  -21.8190 H   0  0  0  0  0  0  0  0  0  0  0  0
  -29.4040   11.5260  -19.5260 C   0  0  0  0  0  0  0  0  0  0  0  0
  -29.9210   10.8840  -18.7450 N   0  0  0  0  0  0  0  0  0  0  0  0
  1  2  1  0  0  0  0
  2  3  1  0  0  0  0
  2 21  1  0  0  0  0
  4  1  2  0  0  0  0
  6  1  1  0  0  0  0
  6  5  2  0  0  0  0
  7  6  1  0  0  0  0
  8  7  1  0  0  0  0
  9  7  2  0  0  0  0
  9 10  1  0  0  0  0
 10 12  2  0  0  0  0
 11 10  1  0  0  0  0
 12  5  1  0  0  0  0
 12 13  1  0  0  0  0
 13 14  2  0  0  0  0
 13 16  1  0  0  0  0
 15 13  2  0  0  0  0
 16 18  1  0  0  0  0
 17 16  1  0  0  0  0
 18 19  1  0  0  0  0
 18 20  1  0  0  0  0
 19 20  1  0  0  0  0
 22 21  1  0  0  0  0
 23 22  1  0  0  0  0
 24 23  1  0  0  0  0
 25 24  1  0  0  0  0
 25 33  1  0  0  0  0
 26 25  2  0  0  0  0
 27 26  1  0  0  0  0
 27 29  1  0  0  0  0
 28 27  1  0  0  0  0
 29 24  2  0  0  0  0
 30 32  1  0  0  0  0
 30 26  1  0  0  0  0
 31 30  1  0  0  0  0
 33 34  3  0  0  0  0
M  END
>  <MODEL>
1

>  <REMARK>
 VINA RESULT:      -3.0      0.000      0.000
  Name = ZINC09216860
                            x       y       z     vdW  Elec       q    Type
                         _______ _______ _______ _____ _____    ______ ____

>  <TORSDO>
F 10

>  <vina_score>
-3.0

$$$$
ZINC14964419
 OpenBabel01091702083D

 32 34  0  0  0  0  0  0  0  0999 V2000
  -30.2990   12.5410  -21.7410 S   0  0  0  0  0  0  0  0  0  0  0  0
  -31.3640   12.1720  -22.6060 O   0  0  0  0  0  0  0  0  0  0  0  0
  -28.9540   12.6390  -22.1890 O   0  0  0  0  0  0  0  0  0  0  0  0
  -29.7200   15.0160  -20.7310 C   0  0  0  0  0  0  0  0  0  0  0  0
  -30.0560   16.2540  -20.1980 C   0  0  0  0  0  0  0  0  0  0  0  0
  -31.3830   16.5820  -20.0000 C   0  0  0  0  0  0  0  0  0  0  0  0
  -32.3770   15.6790  -20.3320 C   0  0  0  0  0  0  0  0  0  0  0  0
  -32.0450   14.4480  -20.8690 C   0  0  0  0  0  0  0  0  0  0  0  0
  -30.7200   14.1120  -21.0640 C   0  0  0  0  0  0  0  0  0  0  0  0
  -28.3780   14.6810  -20.9330 N   0  0  0  0  0  0  0  0  0  0  0  0
  -28.1040   14.2260  -21.7610 H   0  0  0  0  0  0  0  0  0  0  0  0
  -27.3810   15.0100  -19.9120 C   0  0  0  0  0  0  0  0  0  0  0  0
  -25.9850   14.6620  -20.4320 C   0  0  0  0  0  0  0  0  0  0  0  0
  -26.3480   13.1310  -18.5920 C   0  0  0  0  0  0  0  0  0  0  0  0
  -25.5450   13.3990  -19.8040 N   0  0  0  0  0  0  0  0  0  0  0  0
  -24.5640   13.4860  -19.5380 H   0  0  0  0  0  0  0  0  0  0  0  0
  -25.6870   12.2830  -20.7620 C   0  0  0  0  0  0  0  0  0  0  0  0
  -30.3040   11.4530  -20.4930 N   0  0  0  0  0  0  0  0  0  0  0  0
  -29.5630   10.8110  -20.3960 H   0  0  0  0  0  0  0  0  0  0  0  0
  -31.3530   11.4440  -19.5840 C   0  0  0  0  0  0  0  0  0  0  0  0
  -32.5470   10.8040  -19.8960 C   0  0  0  0  0  0  0  0  0  0  0  0
  -33.5820   10.8030  -18.9890 C   0  0  0  0  0  0  0  0  0  0  0  0
  -33.4540   11.4350  -17.7530 C   0  0  0  0  0  0  0  0  0  0  0  0
  -32.2820   12.0680  -17.4250 C   0  0  0  0  0  0  0  0  0  0  0  0
  -32.0720   12.7570  -16.1020 C   0  0  0  0  0  0  0  0  0  0  0  0
  -33.4100   13.0280  -15.4190 C   0  0  0  0  0  0  0  0  0  0  0  0
  -34.2120   11.7210  -15.3920 C   0  0  0  0  0  0  0  0  0  0  0  0
  -34.6390   11.3900  -16.8210 C   0  0  0  0  0  0  0  0  0  0  0  0
  -31.2190   12.0800  -18.3420 C   0  0  0  0  0  0  0  0  0  0  0  0
  -29.9600   12.7640  -17.9990 C   0  0  0  0  0  0  0  0  0  0  0  0
  -29.9750   14.0640  -17.6440 O   0  0  0  0  0  0  0  0  0  0  0  0
  -28.9090   12.1560  -18.0370 O   0  0  0  0  0  0  0  0  0  0  0  0
  1  9  1  0  0  0  0
  1 18  1  0  0  0  0
  2  1  2  0  0  0  0
  3  1  2  0  0  0  0
  4  5  2  0  0  0  0
  5  6  1  0  0  0  0
  7  6  2  0  0  0  0
  8  7  1  0  0  0  0
  9  8  2  0  0  0  0
  9  4  1  0  0  0  0
 10  4  1  0  0  0  0
 10 12  1  0  0  0  0
 11 10  1  0  0  0  0
 13 12  1  0  0  0  0
 13 15  1  0  0  0  0
 15 16  1  0  0  0  0
 15 14  1  0  0  0  0
 17 15  1  0  0  0  0
 18 19  1  0  0  0  0
 18 20  1  0  0  0  0
 20 29  1  0  0  0  0
 21 20  2  0  0  0  0
 21 22  1  0  0  0  0
 22 23  2  0  0  0  0
 23 24  1  0  0  0  0
 23 28  1  0  0  0  0
 24 25  1  0  0  0  0
 25 26  1  0  0  0  0
 26 27  1  0  0  0  0
 28 27  1  0  0  0  0
 29 30  1  0  0  0  0
 29 24  2  0  0  0  0
 30 31  1  0  0  0  0
 32 30  2  0  0  0  0
M  END
>  <MODEL>
1

>  <REMARK>
 VINA RESULT:      -3.0      0.000      0.000
  Name = ZINC14964419
                            x       y       z     vdW  Elec       q    Type
                         _______ _______ _______ _____ _____    ______ ____

>  <TORSDO>
F 8

>  <vina_score>
-3.0

$$$$
ZINC04794950
 OpenBabel01091701563D

 24 24  0  0  0  0  0  0  0  0999 V2000
  -28.1460   12.9580  -20.8220 P   0  0  0  0  0  0  0  0  0  0  0  0
  -29.1960   11.7960  -20.4760 N   0  0  0  0  0  0  0  0  0  0  0  0
  -30.6550   12.2090  -19.9590 P   0  0  0  0  0  0  0  0  0  0  0  0
  -30.4890   13.2920  -18.7890 N   0  0  0  0  0  0  0  0  0  0  0  0
  -29.5190   14.5430  -19.0320 P   0  0  0  0  0  0  0  0  0  0  0  0
  -28.1230   13.9970  -19.6030 N   0  0  0  0  0  0  0  0  0  0  0  0
  -25.5970   13.0830  -20.3220 C   0  0  0  0  0  0  0  0  0  0  0  0
  -26.6140   12.2930  -21.0300 N   0  0  0  0  0  0  0  0  0  0  0  0
  -26.6110   11.3410  -20.6620 H   0  0  0  0  0  0  0  0  0  0  0  0
  -28.6170   13.7470  -22.2310 N   0  0  0  0  0  0  0  0  0  0  0  0
  -29.5620   14.1110  -22.1100 H   0  0  0  0  0  0  0  0  0  0  0  0
  -27.7100   14.8600  -22.5400 C   0  0  0  0  0  0  0  0  0  0  0  0
  -31.4500   10.8500  -19.3650 N   0  0  0  0  0  0  0  0  0  0  0  0
  -32.8410   10.8070  -19.8370 C   0  0  0  0  0  0  0  0  0  0  0  0
  -31.3910   10.8030  -17.8980 C   0  0  0  0  0  0  0  0  0  0  0  0
  -31.5380   12.8760  -21.2270 N   0  0  0  0  0  0  0  0  0  0  0  0
  -32.9090   13.1920  -20.8040 C   0  0  0  0  0  0  0  0  0  0  0  0
  -31.5390   11.9820  -22.3940 C   0  0  0  0  0  0  0  0  0  0  0  0
  -30.2150   15.5920  -20.1490 N   0  0  0  0  0  0  0  0  0  0  0  0
  -29.6090   16.9280  -20.0660 C   0  0  0  0  0  0  0  0  0  0  0  0
  -31.6710   15.6620  -19.9660 C   0  0  0  0  0  0  0  0  0  0  0  0
  -29.2590   15.3500  -17.5790 N   0  0  0  0  0  0  0  0  0  0  0  0
  -27.8740   15.8300  -17.4830 C   0  0  0  0  0  0  0  0  0  0  0  0
  -29.6010   14.4960  -16.4330 C   0  0  0  0  0  0  0  0  0  0  0  0
  1  2  1  0  0  0  0
  1  6  1  0  0  0  0
  2  3  1  0  0  0  0
  3 13  1  0  0  0  0
  3  4  1  0  0  0  0
  5  4  1  0  0  0  0
  5 22  1  0  0  0  0
  6  5  1  0  0  0  0
  8  1  1  0  0  0  0
  8  9  1  0  0  0  0
  8  7  1  0  0  0  0
 10 11  1  0  0  0  0
 10  1  1  0  0  0  0
 12 10  1  0  0  0  0
 13 15  1  0  0  0  0
 14 13  1  0  0  0  0
 16 17  1  0  0  0  0
 16  3  1  0  0  0  0
 18 16  1  0  0  0  0
 19 20  1  0  0  0  0
 19 21  1  0  0  0  0
 19  5  1  0  0  0  0
 22 23  1  0  0  0  0
 22 24  1  0  0  0  0
M  END
>  <MODEL>
1

>  <REMARK>
 VINA RESULT:      -3.0      0.000      0.000
  Name = ZINC04794950
                            x       y       z     vdW  Elec       q    Type
                         _______ _______ _______ _____ _____    ______ ____

>  <TORSDO>
F 6

>  <vina_score>
-3.0

$$$$
ZINC27310656
 OpenBabel01091702183D

 29 30  0  0  1  0  0  0  0  0999 V2000
  -29.5250   15.1590  -20.2000 C   0  0  0  0  0  0  0  0  0  0  0  0
  -29.9340   16.5870  -19.2510 S   0  0  0  0  0  0  0  0  0  0  0  0
  -30.4730   14.1600  -20.3960 C   0  0  1  0  0  0  0  0  0  0  0  0
  -30.1530   13.0450  -21.1360 N   0  0  0  0  0  0  0  0  0  0  0  0
  -31.1240   12.2380  -21.5440 C   0  0  0  0  0  0  0  0  0  0  0  0
  -30.8420   11.1120  -22.2880 C   0  0  0  0  0  0  0  0  0  0  0  0
  -29.5230   10.8240  -22.6120 C   0  0  0  0  0  0  0  0  0  0  0  0
  -28.5270   11.6910  -22.1690 C   0  0  0  0  0  0  0  0  0  0  0  0
  -27.2220   11.4470  -22.4640 O   0  0  0  0  0  0  0  0  0  0  0  0
  -28.8820   12.8060  -21.4300 C   0  0  0  0  0  0  0  0  0  0  0  0
  -28.2740   15.0330  -20.7450 N   0  0  0  0  0  0  0  0  0  0  0  0
  -28.1730   14.8650  -21.7090 H   0  0  0  0  0  0  0  0  0  0  0  0
  -27.0890   15.1490  -19.8920 C   0  0  0  0  0  0  0  0  0  0  0  0
  -27.7250   13.8970  -17.6910 C   0  0  0  0  0  0  0  0  0  0  0  0
  -26.9880   13.9350  -19.0050 C   0  0  0  0  0  0  0  0  0  0  0  0
  -26.2590   12.9110  -19.3770 C   0  0  0  0  0  0  0  0  0  0  0  0
  -31.7630   14.2890  -19.8350 C   0  0  0  0  0  0  0  0  0  0  0  0
  -32.4230   15.2940  -20.0480 O   0  0  0  0  0  0  0  0  0  0  0  0
  -32.3100   13.2150  -18.9940 C   0  0  0  0  0  0  0  0  0  0  0  0
  -32.8480   11.9970  -19.3750 C   0  0  0  0  0  0  0  0  0  0  0  0
  -33.2910   11.1680  -18.3720 C   0  0  0  0  0  0  0  0  0  0  0  0
  -33.1840   11.5750  -17.0810 C   0  0  0  0  0  0  0  0  0  0  0  0
  -32.4530   13.1400  -17.2180 S   0  0  0  0  0  0  0  0  0  0  0  0
  -33.6030   10.8430  -15.8320 C   0  0  0  0  0  0  0  0  0  0  0  0
  -34.8430   11.4290  -15.3160 N   0  0  0  0  0  0  0  0  0  0  0  0
  -35.4700   11.8760  -15.9300 H   0  0  0  0  0  0  0  0  0  0  0  0
  -35.1270   11.3550  -14.0000 C   0  0  0  0  0  0  0  0  0  0  0  0
  -36.4020   11.9580  -13.4690 C   0  0  0  0  0  0  0  0  0  0  0  0
  -34.3550   10.8040  -13.2440 O   0  0  0  0  0  0  0  0  0  0  0  0
  1  2  2  0  0  0  0
  3  4  1  1  0  0  0
  3  1  1  0  0  0  0
  3 17  1  0  0  0  0
  5  4  1  0  0  0  0
  6  5  2  0  0  0  0
  7  6  1  0  0  0  0
  7  8  1  0  0  0  0
  8 10  2  0  0  0  0
  9  8  1  0  0  0  0
 10  4  1  0  0  0  0
 11  1  1  0  0  0  0
 11 13  1  0  0  0  0
 12 11  1  0  0  0  0
 13 15  1  0  0  0  0
 15 14  1  0  0  0  0
 16 15  2  0  0  0  0
 17 19  1  0  0  0  0
 18 17  2  0  0  0  0
 19 23  1  0  0  0  0
 20 19  2  0  0  0  0
 20 21  1  0  0  0  0
 21 22  2  0  0  0  0
 22 24  1  0  0  0  0
 23 22  1  0  0  0  0
 24 25  1  0  0  0  0
 25 27  1  0  0  0  0
 26 25  1  0  0  0  0
 27 28  1  0  0  0  0
 27 29  2  0  0  0  0
M  END
>  <MODEL>
1

>  <REMARK>
 VINA RESULT:      -2.9      0.000      0.000
  Name = ZINC27310656
                            x       y       z     vdW  Elec       q    Type
                         _______ _______ _______ _____ _____    ______ ____

>  <TORSDO>
F 8

>  <vina_score>
-2.9

$$$$
ZINC25820808
 OpenBabel01091702133D

 34 36  0  0  0  0  0  0  0  0999 V2000
  -28.9860   14.8040  -21.0050 C   0  0  0  0  0  0  0  0  0  0  0  0
  -28.1160   15.2400  -21.7330 O   0  0  0  0  0  0  0  0  0  0  0  0
  -30.8700   11.1090  -21.9190 C   0  0  0  0  0  0  0  0  0  0  0  0
  -29.5060   11.2370  -22.0900 C   0  0  0  0  0  0  0  0  0  0  0  0
  -28.8780   12.4410  -21.7940 C   0  0  0  0  0  0  0  0  0  0  0  0
  -29.6390   13.5230  -21.3220 C   0  0  0  0  0  0  0  0  0  0  0  0
  -31.0190   13.3760  -21.1540 C   0  0  0  0  0  0  0  0  0  0  0  0
  -31.6230   12.1750  -21.4530 C   0  0  0  0  0  0  0  0  0  0  0  0
  -33.0840   12.0210  -21.2740 N   0  0  0  0  0  0  0  0  0  0  0  0
  -33.7860   13.0060  -21.1300 O   0  0  0  0  0  0  0  0  0  0  0  0
  -33.5840   10.9110  -21.2710 O   0  0  0  0  0  0  0  0  0  0  0  0
  -27.5070   12.5710  -21.9590 N   0  0  0  0  0  0  0  0  0  0  0  0
  -27.1460   12.9730  -22.7820 H   0  0  0  0  0  0  0  0  0  0  0  0
  -26.5950   12.1100  -20.9090 C   0  0  0  0  0  0  0  0  0  0  0  0
  -25.8090   13.3010  -20.3560 C   0  0  0  0  0  0  0  0  0  0  0  0
  -25.5720   13.1070  -18.9590 O   0  0  0  0  0  0  0  0  0  0  0  0
  -24.7670   13.5820  -18.6990 H   0  0  0  0  0  0  0  0  0  0  0  0
  -29.3530   15.4940  -19.9060 O   0  0  0  0  0  0  0  0  0  0  0  0
  -28.3630   15.6310  -18.8530 C   0  0  0  0  0  0  0  0  0  0  0  0
  -28.8560   14.9420  -17.6070 C   0  0  0  0  0  0  0  0  0  0  0  0
  -28.6010   15.4070  -16.5160 O   0  0  0  0  0  0  0  0  0  0  0  0
  -29.6440   13.7110  -17.7130 C   0  0  0  0  0  0  0  0  0  0  0  0
  -31.0150   13.5570  -17.3940 C   0  0  0  0  0  0  0  0  0  0  0  0
  -31.3370   12.2560  -17.6390 C   0  0  0  0  0  0  0  0  0  0  0  0
  -30.2100   11.6070  -18.0960 N   0  0  0  0  0  0  0  0  0  0  0  0
  -30.1630   10.6560  -18.3450 H   0  0  0  0  0  0  0  0  0  0  0  0
  -29.1900   12.4760  -18.1490 C   0  0  0  0  0  0  0  0  0  0  0  0
  -32.6610   11.6490  -17.4480 C   0  0  0  0  0  0  0  0  0  0  0  0
  -33.4320   12.0270  -16.4100 N   0  0  0  0  0  0  0  0  0  0  0  0
  -33.0710   13.0260  -15.3930 C   0  0  0  0  0  0  0  0  0  0  0  0
  -34.2450   13.1100  -14.3960 C   0  0  0  0  0  0  0  0  0  0  0  0
  -34.9540   11.7420  -14.5810 C   0  0  0  0  0  0  0  0  0  0  0  0
  -34.7740   11.5020  -16.1010 C   0  0  0  0  0  0  0  0  0  0  0  0
  -33.0610   10.8050  -18.2280 O   0  0  0  0  0  0  0  0  0  0  0  0
  1 18  1  0  0  0  0
  2  1  2  0  0  0  0
  3  8  1  0  0  0  0
  4  3  2  0  0  0  0
  4  5  1  0  0  0  0
  5  6  2  0  0  0  0
  6  7  1  0  0  0  0
  6  1  1  0  0  0  0
  8  9  1  0  0  0  0
  8  7  2  0  0  0  0
  9 11  2  0  0  0  0
  9 10  2  0  0  0  0
 12  5  1  0  0  0  0
 12 14  1  0  0  0  0
 13 12  1  0  0  0  0
 14 15  1  0  0  0  0
 15 16  1  0  0  0  0
 16 17  1  0  0  0  0
 18 19  1  0  0  0  0
 19 20  1  0  0  0  0
 20 21  2  0  0  0  0
 22 20  1  0  0  0  0
 22 23  1  0  0  0  0
 24 28  1  0  0  0  0
 24 23  2  0  0  0  0
 25 24  1  0  0  0  0
 26 25  1  0  0  0  0
 27 25  1  0  0  0  0
 27 22  2  0  0  0  0
 28 29  1  0  0  0  0
 29 33  1  0  0  0  0
 29 30  1  0  0  0  0
 30 31  1  0  0  0  0
 32 31  1  0  0  0  0
 33 32  1  0  0  0  0
 34 28  2  0  0  0  0
M  END
>  <MODEL>
1

>  <REMARK>
 VINA RESULT:      -2.6      0.000      0.000
  Name = ZINC25820808
                            x       y       z     vdW  Elec       q    Type
                         _______ _______ _______ _____ _____    ______ ____

>  <TORSDO>
F 11

>  <vina_score>
-2.6

$$$$
ZINC13693206
 OpenBabel01091702143D

 29 31  0  0  1  0  0  0  0  0999 V2000
  -28.0340   14.3310  -19.4000 C   0  0  2  0  0  0  0  0  0  0  0  0
  -28.9060   15.5540  -19.6080 C   0  0  0  0  0  0  0  0  0  0  0  0
  -30.0110   15.1180  -20.2070 N   0  0  0  0  0  0  0  0  0  0  0  0
  -29.9950   13.8180  -20.4090 C   0  0  0  0  0  0  0  0  0  0  0  0
  -28.6460   16.6990  -19.2970 O   0  0  0  0  0  0  0  0  0  0  0  0
  -28.8470   13.2380  -19.9640 N   0  0  0  0  0  0  0  0  0  0  0  0
  -28.6090   12.2840  -20.0080 H   0  0  0  0  0  0  0  0  0  0  0  0
  -31.0100   13.1310  -21.0030 N   0  0  0  0  0  0  0  0  0  0  0  0
  -32.2660   13.8050  -21.3670 C   0  0  0  0  0  0  0  0  0  0  0  0
  -33.4390   12.9970  -20.8000 C   0  0  0  0  0  0  0  0  0  0  0  0
  -33.3270   11.6010  -21.2750 N   0  0  0  0  0  0  0  0  0  0  0  0
  -33.2680   11.6030  -22.2940 H   0  0  0  0  0  0  0  0  0  0  0  0
  -34.5180   10.8310  -20.8620 C   0  0  0  0  0  0  0  0  0  0  0  0
  -32.1060   10.9700  -20.7280 C   0  0  0  0  0  0  0  0  0  0  0  0
  -30.8810   11.6960  -21.2970 C   0  0  0  0  0  0  0  0  0  0  0  0
  -27.7740   14.0970  -17.9100 C   0  0  0  0  0  0  0  0  0  0  0  0
  -30.1800   13.8090  -17.4130 N   0  0  0  0  0  0  0  0  0  0  0  0
  -30.3380   14.6930  -17.8140 H   0  0  0  0  0  0  0  0  0  0  0  0
  -28.9250   13.3280  -17.3140 C   0  0  0  0  0  0  0  0  0  0  0  0
  -28.7210   12.2770  -16.7440 O   0  0  0  0  0  0  0  0  0  0  0  0
  -33.3930   11.5430  -16.0210 C   0  0  0  0  0  0  0  0  0  0  0  0
  -33.3900   12.9200  -15.8500 C   0  0  0  0  0  0  0  0  0  0  0  0
  -32.3270   13.6710  -16.3100 C   0  0  0  0  0  0  0  0  0  0  0  0
  -31.2600   13.0480  -16.9440 C   0  0  0  0  0  0  0  0  0  0  0  0
  -31.2660   11.6700  -17.1200 C   0  0  0  0  0  0  0  0  0  0  0  0
  -32.3270   10.9200  -16.6540 C   0  0  0  0  0  0  0  0  0  0  0  0
  -34.4400   10.8050  -15.5670 O   0  0  0  0  0  0  0  0  0  0  0  0
  -35.6490   11.9210  -13.7960 C   0  0  0  0  0  0  0  0  0  0  0  0
  -34.6690   10.8030  -14.1560 C   0  0  0  0  0  0  0  0  0  0  0  0
  1 16  1  1  0  0  0
  2  1  1  0  0  0  0
  2  5  2  0  0  0  0
  3  2  1  0  0  0  0
  4  3  2  0  0  0  0
  4  6  1  0  0  0  0
  6  1  1  0  0  0  0
  7  6  1  0  0  0  0
  8  4  1  0  0  0  0
  9  8  1  0  0  0  0
  9 10  1  0  0  0  0
 11 13  1  0  0  0  0
 11 10  1  0  0  0  0
 11 14  1  0  0  0  0
 12 11  1  0  0  0  0
 15  8  1  0  0  0  0
 15 14  1  0  0  0  0
 16 19  1  0  0  0  0
 17 19  1  0  0  0  0
 17 24  1  0  0  0  0
 18 17  1  0  0  0  0
 19 20  2  0  0  0  0
 21 22  1  0  0  0  0
 21 27  1  0  0  0  0
 23 22  2  0  0  0  0
 24 23  1  0  0  0  0
 25 24  2  0  0  0  0
 25 26  1  0  0  0  0
 26 21  2  0  0  0  0
 27 29  1  0  0  0  0
 29 28  1  0  0  0  0
M  END
>  <MODEL>
1

>  <REMARK>
 VINA RESULT:      -2.6      0.000      0.000
  Name = ZINC13693206
                            x       y       z     vdW  Elec       q    Type
                         _______ _______ _______ _____ _____    ______ ____

>  <TORSDO>
F 6

>  <vina_score>
-2.6

$$$$
ZINC21195156
 OpenBabel01091702003D

 34 36  0  0  0  0  0  0  0  0999 V2000
  -28.9280   12.6610  -21.8890 C   0  0  0  0  0  0  0  0  0  0  0  0
  -29.0600   11.4250  -22.5380 C   0  0  0  0  0  0  0  0  0  0  0  0
  -30.2800   10.8150  -22.6030 C   0  0  0  0  0  0  0  0  0  0  0  0
  -31.4010   11.4180  -22.0380 C   0  0  0  0  0  0  0  0  0  0  0  0
  -32.6080   10.8030  -22.1140 O   0  0  0  0  0  0  0  0  0  0  0  0
  -31.2900   12.6430  -21.3980 C   0  0  0  0  0  0  0  0  0  0  0  0
  -30.0590   13.2720  -21.3180 C   0  0  0  0  0  0  0  0  0  0  0  0
  -27.6200   13.3160  -21.8130 C   0  0  0  0  0  0  0  0  0  0  0  0
  -27.4620   14.4140  -22.3060 O   0  0  0  0  0  0  0  0  0  0  0  0
  -26.4720   12.6260  -21.1230 C   0  0  0  0  0  0  0  0  0  0  0  0
  -26.0670   13.3960  -19.9880 O   0  0  0  0  0  0  0  0  0  0  0  0
  -28.9800   14.2990  -17.2050 C   0  0  0  0  0  0  0  0  0  0  0  0
  -28.7380   12.9770  -17.5530 C   0  0  0  0  0  0  0  0  0  0  0  0
  -27.7640   12.6750  -18.4850 C   0  0  0  0  0  0  0  0  0  0  0  0
  -27.0260   13.6930  -19.0710 C   0  0  0  0  0  0  0  0  0  0  0  0
  -27.2670   15.0140  -18.7220 C   0  0  0  0  0  0  0  0  0  0  0  0
  -28.2420   15.3160  -17.7920 C   0  0  0  0  0  0  0  0  0  0  0  0
  -31.2750   14.1960  -16.5950 C   0  0  0  0  0  0  0  0  0  0  0  0
  -29.9390   14.5960  -16.2890 O   0  0  0  0  0  0  0  0  0  0  0  0
  -29.9450   14.4700  -20.6920 O   0  0  0  0  0  0  0  0  0  0  0  0
  -29.1230   14.9210  -20.6920 H   0  0  0  0  0  0  0  0  0  0  0  0
  -32.5080   13.2890  -20.7870 C   0  0  0  0  0  0  0  0  0  0  0  0
  -33.0060   12.4530  -19.6870 N   0  0  0  0  0  0  0  0  0  0  0  0
  -33.6210   11.7450  -20.0860 H   0  0  0  0  0  0  0  0  0  0  0  0
  -33.7900   13.2500  -18.7340 C   0  0  0  0  0  0  0  0  0  0  0  0
  -34.3560   12.3320  -17.6480 C   0  0  0  0  0  0  0  0  0  0  0  0
  -33.2500   11.6410  -16.9700 N   0  0  0  0  0  0  0  0  0  0  0  0
  -32.6340   12.3490  -16.5710 H   0  0  0  0  0  0  0  0  0  0  0  0
  -32.4660   10.8440  -17.9240 C   0  0  0  0  0  0  0  0  0  0  0  0
  -31.9000   11.7630  -19.0090 C   0  0  0  0  0  0  0  0  0  0  0  0
  -33.7470   10.8050  -15.8690 C   0  0  0  0  0  0  0  0  0  0  0  0
  -34.5930   11.6590  -14.9220 C   0  0  0  0  0  0  0  0  0  0  0  0
  -35.5260   10.8240  -14.2340 O   0  0  0  0  0  0  0  0  0  0  0  0
  -36.4170   10.9740  -14.5880 H   0  0  0  0  0  0  0  0  0  0  0  0
  1  8  1  0  0  0  0
  1  7  2  0  0  0  0
  2  1  1  0  0  0  0
  3  2  2  0  0  0  0
  3  4  1  0  0  0  0
  4  6  2  0  0  0  0
  5  4  1  0  0  0  0
  6  7  1  0  0  0  0
  6 22  1  0  0  0  0
  7 20  1  0  0  0  0
  8 10  1  0  0  0  0
  9  8  2  0  0  0  0
 10 11  1  0  0  0  0
 11 15  1  0  0  0  0
 12 19  1  0  0  0  0
 13 12  1  0  0  0  0
 14 13  2  0  0  0  0
 15 16  2  0  0  0  0
 15 14  1  0  0  0  0
 16 17  1  0  0  0  0
 17 12  2  0  0  0  0
 18 19  1  0  0  0  0
 20 21  1  0  0  0  0
 22 23  1  0  0  0  0
 23 30  1  0  0  0  0
 23 25  1  0  0  0  0
 24 23  1  0  0  0  0
 25 26  1  0  0  0  0
 26 27  1  0  0  0  0
 27 28  1  0  0  0  0
 27 31  1  0  0  0  0
 29 27  1  0  0  0  0
 30 29  1  0  0  0  0
 31 32  1  0  0  0  0
 32 33  1  0  0  0  0
 34 33  1  0  0  0  0
M  END
>  <MODEL>
1

>  <REMARK>
 VINA RESULT:      -2.6      0.000      0.000
  Name = ZINC21195156
                            x       y       z     vdW  Elec       q    Type
                         _______ _______ _______ _____ _____    ______ ____

>  <TORSDO>
F 11

>  <vina_score>
-2.6

$$$$
ZINC25317503
 OpenBabel01091702123D

 30 31  0  0  0  0  0  0  0  0999 V2000
  -29.3420   12.6330  -20.1960 N   0  0  0  0  0  0  0  0  0  0  0  0
  -29.0280   12.3660  -18.8910 C   0  0  0  0  0  0  0  0  0  0  0  0
  -29.7190   11.3230  -18.5310 N   0  0  0  0  0  0  0  0  0  0  0  0
  -30.4490   10.9180  -19.5090 N   0  0  0  0  0  0  0  0  0  0  0  0
  -30.2590   11.6880  -20.5560 C   0  0  0  0  0  0  0  0  0  0  0  0
  -28.8080   13.7100  -21.0320 C   0  0  0  0  0  0  0  0  0  0  0  0
  -26.4120   13.0970  -20.6800 C   0  0  0  0  0  0  0  0  0  0  0  0
  -27.5260   13.2360  -21.7180 C   0  0  0  0  0  0  0  0  0  0  0  0
  -27.7760   11.8790  -22.3830 C   0  0  0  0  0  0  0  0  0  0  0  0
  -28.0570   13.1340  -18.0330 C   0  0  0  0  0  0  0  0  0  0  0  0
  -28.7970   14.2610  -17.3080 C   0  0  0  0  0  0  0  0  0  0  0  0
  -28.9370   15.4440  -18.2300 C   0  0  0  0  0  0  0  0  0  0  0  0
  -27.9000   16.2860  -18.4090 N   0  0  0  0  0  0  0  0  0  0  0  0
  -27.9920   17.0590  -19.0110 H   0  0  0  0  0  0  0  0  0  0  0  0
  -27.0510   16.1270  -17.9370 H   0  0  0  0  0  0  0  0  0  0  0  0
  -29.9830   15.6380  -18.8120 O   0  0  0  0  0  0  0  0  0  0  0  0
  -31.0360   11.5270  -22.1290 S   0  0  0  0  0  0  0  0  0  0  0  0
  -32.7540   11.8630  -21.6670 C   0  0  0  0  0  0  0  0  0  0  0  0
  -32.7880   12.9340  -20.6060 C   0  0  0  0  0  0  0  0  0  0  0  0
  -33.3710   12.6860  -19.4160 N   0  0  0  0  0  0  0  0  0  0  0  0
  -33.9820   11.3780  -19.1420 C   0  0  0  0  0  0  0  0  0  0  0  0
  -33.3520   10.8060  -17.8610 C   0  0  0  0  0  0  0  0  0  0  0  0
  -33.3920   11.8410  -16.8180 N   0  0  0  0  0  0  0  0  0  0  0  0
  -32.7850   13.1490  -17.0940 C   0  0  0  0  0  0  0  0  0  0  0  0
  -33.4110   13.7190  -18.3730 C   0  0  0  0  0  0  0  0  0  0  0  0
  -32.2900   14.0180  -20.8240 O   0  0  0  0  0  0  0  0  0  0  0  0
  -34.1090   11.5350  -15.3560 S   0  0  0  0  0  0  0  0  0  0  0  0
  -34.3890   13.1700  -14.6220 C   0  0  0  0  0  0  0  0  0  0  0  0
  -33.1270   10.8260  -14.6130 O   0  0  0  0  0  0  0  0  0  0  0  0
  -35.3510   10.9250  -15.6810 O   0  0  0  0  0  0  0  0  0  0  0  0
  1  2  1  0  0  0  0
  2  3  2  0  0  0  0
  2 10  1  0  0  0  0
  4  3  1  0  0  0  0
  5  1  1  0  0  0  0
  5  4  2  0  0  0  0
  6  1  1  0  0  0  0
  8  6  1  0  0  0  0
  8  7  1  0  0  0  0
  9  8  1  0  0  0  0
 10 11  1  0  0  0  0
 12 11  1  0  0  0  0
 13 12  1  0  0  0  0
 13 15  1  0  0  0  0
 14 13  1  0  0  0  0
 16 12  2  0  0  0  0
 17 18  1  0  0  0  0
 17  5  1  0  0  0  0
 18 19  1  0  0  0  0
 19 20  1  0  0  0  0
 20 21  1  0  0  0  0
 20 25  1  0  0  0  0
 21 22  1  0  0  0  0
 22 23  1  0  0  0  0
 23 27  1  0  0  0  0
 24 23  1  0  0  0  0
 25 24  1  0  0  0  0
 26 19  2  0  0  0  0
 27 28  1  0  0  0  0
 27 29  2  0  0  0  0
 30 27  2  0  0  0  0
M  END
>  <MODEL>
1

>  <REMARK>
 VINA RESULT:      -2.3      0.000      0.000
  Name = ZINC25317503
                            x       y       z     vdW  Elec       q    Type
                         _______ _______ _______ _____ _____    ______ ____

>  <TORSDO>
F 9

>  <vina_score>
-2.3

$$$$
ZINC24962321
 OpenBabel01091702023D

 26 27  0  0  1  0  0  0  0  0999 V2000
  -28.6850   14.5120  -18.3130 C   0  0  0  0  0  0  0  0  0  0  0  0
  -29.5710   13.5070  -18.4590 N   0  0  0  0  0  0  0  0  0  0  0  0
  -29.5150   12.9120  -19.2420 H   0  0  0  0  0  0  0  0  0  0  0  0
  -30.5330   13.3170  -17.5350 C   0  0  0  0  0  0  0  0  0  0  0  0
  -31.4190   12.3120  -17.6830 N   0  0  0  0  0  0  0  0  0  0  0  0
  -31.3170   11.6700  -18.4220 H   0  0  0  0  0  0  0  0  0  0  0  0
  -30.6020   14.0510  -16.5700 O   0  0  0  0  0  0  0  0  0  0  0  0
  -28.7530   15.2450  -17.3500 O   0  0  0  0  0  0  0  0  0  0  0  0
  -32.4850   12.1820  -16.7840 C   0  0  0  0  0  0  0  0  0  0  0  0
  -33.1050   10.9510  -16.6130 C   0  0  0  0  0  0  0  0  0  0  0  0
  -34.1560   10.8270  -15.7250 C   0  0  0  0  0  0  0  0  0  0  0  0
  -34.5910   11.9260  -15.0090 C   0  0  0  0  0  0  0  0  0  0  0  0
  -33.9760   13.1530  -15.1770 C   0  0  0  0  0  0  0  0  0  0  0  0
  -32.9240   13.2840  -16.0630 C   0  0  0  0  0  0  0  0  0  0  0  0
  -35.7180   11.7900  -14.0580 N   0  0  0  0  0  0  0  0  0  0  0  0
  -35.9320   12.6630  -13.2380 O   0  0  0  0  0  0  0  0  0  0  0  0
  -36.4310   10.8030  -14.0980 O   0  0  0  0  0  0  0  0  0  0  0  0
  -26.2390   14.4660  -18.7180 C   0  0  0  0  0  0  0  0  0  0  0  0
  -27.6090   14.7240  -19.3470 C   0  0  1  0  0  0  0  0  0  0  0  0
  -27.8150   13.7980  -20.4630 N   0  0  0  0  0  0  0  0  0  0  0  0
  -26.7650   13.3080  -21.0930 C   0  0  0  0  0  0  0  0  0  0  0  0
  -26.9170   12.4290  -22.1490 C   0  0  0  0  0  0  0  0  0  0  0  0
  -28.1930   12.0670  -22.5500 C   0  0  0  0  0  0  0  0  0  0  0  0
  -29.2790   12.6050  -21.8670 C   0  0  0  0  0  0  0  0  0  0  0  0
  -30.5480   12.2810  -22.2250 O   0  0  0  0  0  0  0  0  0  0  0  0
  -29.0450   13.4800  -20.8140 C   0  0  0  0  0  0  0  0  0  0  0  0
  1  8  2  0  0  0  0
  2  1  1  0  0  0  0
  2  4  1  0  0  0  0
  3  2  1  0  0  0  0
  4  7  2  0  0  0  0
  5  4  1  0  0  0  0
  5  9  1  0  0  0  0
  6  5  1  0  0  0  0
  9 10  2  0  0  0  0
  9 14  1  0  0  0  0
 10 11  1  0  0  0  0
 11 12  2  0  0  0  0
 12 15  1  0  0  0  0
 13 12  1  0  0  0  0
 14 13  2  0  0  0  0
 15 16  2  0  0  0  0
 17 15  2  0  0  0  0
 19 20  1  6  0  0  0
 19 18  1  0  0  0  0
 19  1  1  0  0  0  0
 21 20  1  0  0  0  0
 22 21  2  0  0  0  0
 23 22  1  0  0  0  0
 23 24  1  0  0  0  0
 24 26  2  0  0  0  0
 25 24  1  0  0  0  0
 26 20  1  0  0  0  0
M  END
>  <MODEL>
1

>  <REMARK>
 VINA RESULT:      -2.2      0.000      0.000
  Name = ZINC24962321
                            x       y       z     vdW  Elec       q    Type
                         _______ _______ _______ _____ _____    ______ ____

>  <TORSDO>
F 4

>  <vina_score>
-2.2

$$$$
ZINC01846065
 OpenBabel01091702053D

 28 29  0  0  1  0  0  0  0  0999 V2000
  -32.6410   12.5950  -19.4890 C   0  0  0  0  0  0  0  0  0  0  0  0
  -31.3040   12.8540  -19.6970 C   0  0  0  0  0  0  0  0  0  0  0  0
  -30.4740   13.1520  -18.6120 C   0  0  0  0  0  0  0  0  0  0  0  0
  -31.0060   13.1740  -17.3170 C   0  0  0  0  0  0  0  0  0  0  0  0
  -32.3580   12.9050  -17.1240 C   0  0  0  0  0  0  0  0  0  0  0  0
  -33.1680   12.6170  -18.2090 C   0  0  0  0  0  0  0  0  0  0  0  0
  -29.0420   13.4350  -18.8290 C   0  0  0  0  0  0  0  0  0  0  0  0
  -28.6600   14.6220  -19.3410 N   0  0  0  0  0  0  0  0  0  0  0  0
  -29.3360   15.2990  -19.5700 H   0  0  0  0  0  0  0  0  0  0  0  0
  -28.2070   12.5990  -18.5460 O   0  0  0  0  0  0  0  0  0  0  0  0
  -27.2390   14.9030  -19.5570 C   0  0  0  0  0  0  0  0  0  0  0  0
  -26.8420   14.4760  -20.9720 C   0  0  1  0  0  0  0  0  0  0  0  0
  -25.9800   13.2840  -20.9300 N   0  0  0  0  0  0  0  0  0  0  0  0
  -25.0950   13.4830  -21.3950 H   0  0  0  0  0  0  0  0  0  0  0  0
  -25.6930   12.9080  -19.5200 C   0  0  0  0  0  0  0  0  0  0  0  0
  -26.6680   12.1750  -21.6220 C   0  0  0  0  0  0  0  0  0  0  0  0
  -27.6300   12.8770  -22.6120 C   0  0  0  0  0  0  0  0  0  0  0  0
  -28.1020   14.0980  -21.7780 C   0  0  0  0  0  0  0  0  0  0  0  0
  -33.6840   12.2270  -20.8610 S   0  0  0  0  0  0  0  0  0  0  0  0
  -34.9690   11.9350  -20.3280 O   0  0  0  0  0  0  0  0  0  0  0  0
  -33.4720   13.2550  -21.8190 O   0  0  0  0  0  0  0  0  0  0  0  0
  -31.8150   10.8030  -22.2000 C   0  0  0  0  0  0  0  0  0  0  0  0
  -33.1230   10.8240  -21.5390 N   0  0  0  0  0  0  0  0  0  0  0  0
  -33.0860   10.1300  -20.7930 H   0  0  0  0  0  0  0  0  0  0  0  0
  -30.2080   13.4570  -16.2560 O   0  0  0  0  0  0  0  0  0  0  0  0
  -29.5140   14.7060  -16.2820 C   0  0  0  0  0  0  0  0  0  0  0  0
  -32.8830   12.9250  -15.8700 O   0  0  0  0  0  0  0  0  0  0  0  0
  -34.1290   12.2520  -15.6770 C   0  0  0  0  0  0  0  0  0  0  0  0
  1  6  1  0  0  0  0
  2  1  2  0  0  0  0
  2  3  1  0  0  0  0
  3  4  2  0  0  0  0
  4  5  1  0  0  0  0
  4 25  1  0  0  0  0
  5 27  1  0  0  0  0
  6  5  2  0  0  0  0
  7  3  1  0  0  0  0
  7 10  2  0  0  0  0
  8  7  1  0  0  0  0
  9  8  1  0  0  0  0
 11  8  1  0  0  0  0
 12 13  1  0  0  0  0
 12 11  1  1  0  0  0
 13 15  1  0  0  0  0
 14 13  1  0  0  0  0
 16 13  1  0  0  0  0
 17 18  1  0  0  0  0
 17 16  1  0  0  0  0
 18 12  1  0  0  0  0
 19 20  2  0  0  0  0
 19  1  1  0  0  0  0
 21 19  2  0  0  0  0
 22 23  1  0  0  0  0
 23 19  1  0  0  0  0
 23 24  1  0  0  0  0
 26 25  1  0  0  0  0
 27 28  1  0  0  0  0
M  END
>  <MODEL>
1

>  <REMARK>
 VINA RESULT:      -2.2      0.000      0.000
  Name = ZINC01846065
                            x       y       z     vdW  Elec       q    Type
                         _______ _______ _______ _____ _____    ______ ____

>  <TORSDO>
F 7

>  <vina_score>
-2.2

$$$$
ZINC29188439
 OpenBabel01091702143D

 34 35  0  0  1  0  0  0  0  0999 V2000
  -32.9280   13.6460  -21.5960 N   0  0  0  0  0  0  0  0  0  0  0  0
  -33.8890   13.5200  -21.2790 H   0  0  0  0  0  0  0  0  0  0  0  0
  -32.9010   14.2210  -22.4380 H   0  0  0  0  0  0  0  0  0  0  0  0
  -32.1690   14.3160  -20.5320 C   0  0  1  0  0  0  0  0  0  0  0  0
  -32.6770   15.7500  -20.3680 C   0  0  0  0  0  0  0  0  0  0  0  0
  -32.6920   12.1880  -16.8600 C   0  0  0  0  0  0  0  0  0  0  0  0
  -33.7240   12.2470  -17.7820 C   0  0  0  0  0  0  0  0  0  0  0  0
  -33.5510   12.9360  -18.9690 C   0  0  0  0  0  0  0  0  0  0  0  0
  -32.3510   13.5680  -19.2370 C   0  0  0  0  0  0  0  0  0  0  0  0
  -31.3160   13.5080  -18.3230 C   0  0  0  0  0  0  0  0  0  0  0  0
  -31.4840   12.8230  -17.1300 C   0  0  0  0  0  0  0  0  0  0  0  0
  -32.8600   11.5110  -15.6930 O   0  0  0  0  0  0  0  0  0  0  0  0
  -34.0980   10.8210  -15.5140 C   0  0  0  0  0  0  0  0  0  0  0  0
  -35.2100   12.4790  -14.0100 C   0  0  0  0  0  0  0  0  0  0  0  0
  -34.6200   11.0690  -14.0980 C   0  0  0  0  0  0  0  0  0  0  0  0
  -30.4680   12.7690  -16.2270 O   0  0  0  0  0  0  0  0  0  0  0  0
  -29.2130   13.3200  -16.6290 C   0  0  0  0  0  0  0  0  0  0  0  0
  -29.1900   14.8170  -16.3150 C   0  0  0  0  0  0  0  0  0  0  0  0
  -28.2620   15.5310  -17.3000 C   0  0  0  0  0  0  0  0  0  0  0  0
  -32.3590   12.3260  -21.8980 C   0  0  0  0  0  0  0  0  0  0  0  0
  -30.9160   12.2900  -21.4670 C   0  0  0  0  0  0  0  0  0  0  0  0
  -30.0580   13.2330  -21.9010 N   0  0  0  0  0  0  0  0  0  0  0  0
  -30.3740   13.9470  -22.5020 H   0  0  0  0  0  0  0  0  0  0  0  0
  -30.5260   11.4110  -20.7270 O   0  0  0  0  0  0  0  0  0  0  0  0
  -28.7160   13.2000  -21.5000 N   0  0  0  0  0  0  0  0  0  0  0  0
  -28.1470   14.1090  -20.6850 C   0  0  0  0  0  0  0  0  0  0  0  0
  -26.7040   13.6740  -20.5300 C   0  0  2  0  0  0  0  0  0  0  0  0
  -25.7560   14.7500  -21.0630 C   0  0  0  0  0  0  0  0  0  0  0  0
  -26.6180   12.4550  -21.3530 N   0  0  0  0  0  0  0  0  0  0  0  0
  -28.6790   15.0740  -20.1800 O   0  0  0  0  0  0  0  0  0  0  0  0
  -27.8420   12.2600  -21.8780 C   0  0  0  0  0  0  0  0  0  0  0  0
  -28.1210   11.3330  -22.6120 O   0  0  0  0  0  0  0  0  0  0  0  0
  -26.3870   13.3580  -19.0660 C   0  0  0  0  0  0  0  0  0  0  0  0
  -27.3160   12.2470  -18.5720 C   0  0  0  0  0  0  0  0  0  0  0  0
  1  2  1  0  0  0  0
  3  1  1  0  0  0  0
  4  1  1  6  0  0  0
  4  5  1  0  0  0  0
  4  9  1  0  0  0  0
  6 12  1  0  0  0  0
  7  6  2  0  0  0  0
  8  7  1  0  0  0  0
  9  8  2  0  0  0  0
  9 10  1  0  0  0  0
 10 11  2  0  0  0  0
 11  6  1  0  0  0  0
 11 16  1  0  0  0  0
 12 13  1  0  0  0  0
 13 15  1  0  0  0  0
 15 14  1  0  0  0  0
 17 18  1  0  0  0  0
 17 16  1  0  0  0  0
 19 18  1  0  0  0  0
 20  1  1  0  0  0  0
 20 21  1  0  0  0  0
 21 24  2  0  0  0  0
 22 25  1  0  0  0  0
 22 21  1  0  0  0  0
 23 22  1  0  0  0  0
 25 26  1  0  0  0  0
 26 27  1  0  0  0  0
 26 30  2  0  0  0  0
 27 28  1  6  0  0  0
 27 33  1  0  0  0  0
 29 27  1  0  0  0  0
 31 25  1  0  0  0  0
 31 29  1  0  0  0  0
 32 31  2  0  0  0  0
 33 34  1  0  0  0  0
M  END
>  <MODEL>
1

>  <REMARK>
 VINA RESULT:      -2.2      0.000      0.000
  Name = ZINC29188439
                            x       y       z     vdW  Elec       q    Type
                         _______ _______ _______ _____ _____    ______ ____

>  <TORSDO>
F 12

>  <vina_score>
-2.2

$$$$
ZINC20119545
 OpenBabel01091701573D

 32 34  0  0  0  0  0  0  0  0999 V2000
  -30.8110   11.7860  -17.4210 C   0  0  0  0  0  0  0  0  0  0  0  0
  -31.1340   11.7080  -18.8910 C   0  0  0  0  0  0  0  0  0  0  0  0
  -30.1390   11.9660  -19.8440 C   0  0  0  0  0  0  0  0  0  0  0  0
  -28.7700   12.3150  -19.6460 C   0  0  0  0  0  0  0  0  0  0  0  0
  -27.9970   12.5160  -20.7010 N   0  0  0  0  0  0  0  0  0  0  0  0
  -28.4490   12.4050  -21.9380 C   0  0  0  0  0  0  0  0  0  0  0  0
  -29.7050   12.0850  -22.1860 N   0  0  0  0  0  0  0  0  0  0  0  0
  -30.5460   11.8670  -21.1960 C   0  0  0  0  0  0  0  0  0  0  0  0
  -32.2610   11.4280  -21.0750 S   0  0  0  0  0  0  0  0  0  0  0  0
  -32.3940   11.3870  -19.2970 C   0  0  0  0  0  0  0  0  0  0  0  0
  -33.5710   11.0840  -18.4730 C   0  0  0  0  0  0  0  0  0  0  0  0
  -33.4740   11.1050  -17.1290 N   0  0  0  0  0  0  0  0  0  0  0  0
  -32.6150   11.3240  -16.7000 H   0  0  0  0  0  0  0  0  0  0  0  0
  -34.6320   10.8140  -19.0030 O   0  0  0  0  0  0  0  0  0  0  0  0
  -34.6490   10.8030  -16.3060 C   0  0  0  0  0  0  0  0  0  0  0  0
  -34.4890   11.4550  -14.9310 C   0  0  0  0  0  0  0  0  0  0  0  0
  -33.2160   10.9310  -14.2630 C   0  0  0  0  0  0  0  0  0  0  0  0
  -35.7000   11.1120  -14.0600 C   0  0  0  0  0  0  0  0  0  0  0  0
  -34.3910   12.9730  -15.0940 C   0  0  0  0  0  0  0  0  0  0  0  0
  -34.4740   13.5970  -13.8110 O   0  0  0  0  0  0  0  0  0  0  0  0
  -35.2520   14.1750  -13.7820 H   0  0  0  0  0  0  0  0  0  0  0  0
  -28.2570   12.4420  -18.3720 N   0  0  0  0  0  0  0  0  0  0  0  0
  -28.3810   11.7170  -17.7170 H   0  0  0  0  0  0  0  0  0  0  0  0
  -27.5290   13.6550  -17.9920 C   0  0  0  0  0  0  0  0  0  0  0  0
  -28.5260   14.7470  -17.5980 C   0  0  0  0  0  0  0  0  0  0  0  0
  -29.2730   15.1800  -18.7860 N   0  0  0  0  0  0  0  0  0  0  0  0
  -28.9330   14.6400  -19.5820 H   0  0  0  0  0  0  0  0  0  0  0  0
  -29.0380   16.6040  -19.0660 C   0  0  0  0  0  0  0  0  0  0  0  0
  -29.7850   16.9970  -20.3430 C   0  0  0  0  0  0  0  0  0  0  0  0
  -31.1750   16.6980  -20.1870 O   0  0  0  0  0  0  0  0  0  0  0  0
  -31.4400   15.3200  -19.9140 C   0  0  0  0  0  0  0  0  0  0  0  0
  -30.7100   14.9090  -18.6330 C   0  0  0  0  0  0  0  0  0  0  0  0
  2  1  1  0  0  0  0
  3  4  1  0  0  0  0
  3  2  1  0  0  0  0
  4 22  1  0  0  0  0
  5  4  2  0  0  0  0
  6  5  1  0  0  0  0
  7  6  2  0  0  0  0
  7  8  1  0  0  0  0
  8  9  1  0  0  0  0
  8  3  2  0  0  0  0
  9 10  1  0  0  0  0
 10  2  2  0  0  0  0
 10 11  1  0  0  0  0
 11 12  1  0  0  0  0
 12 13  1  0  0  0  0
 12 15  1  0  0  0  0
 14 11  2  0  0  0  0
 15 16  1  0  0  0  0
 16 17  1  0  0  0  0
 16 18  1  0  0  0  0
 19 16  1  0  0  0  0
 19 20  1  0  0  0  0
 20 21  1  0  0  0  0
 22 24  1  0  0  0  0
 22 23  1  0  0  0  0
 24 25  1  0  0  0  0
 26 32  1  0  0  0  0
 26 25  1  0  0  0  0
 27 26  1  0  0  0  0
 28 26  1  0  0  0  0
 29 30  1  0  0  0  0
 29 28  1  0  0  0  0
 30 31  1  0  0  0  0
 31 32  1  0  0  0  0
M  END
>  <MODEL>
1

>  <REMARK>
 VINA RESULT:      -2.1      0.000      0.000
  Name = ZINC20119545
                            x       y       z     vdW  Elec       q    Type
                         _______ _______ _______ _____ _____    ______ ____

>  <TORSDO>
F 9

>  <vina_score>
-2.1

$$$$
ZINC29665193
 OpenBabel01091702183D

 35 38  0  0  0  0  0  0  0  0999 V2000
  -32.4590   15.1190  -20.4620 S   0  0  0  0  0  0  0  0  0  0  0  0
  -28.7600   14.3010  -19.4950 C   0  0  0  0  0  0  0  0  0  0  0  0
  -29.2660   14.7370  -18.3630 N   0  0  0  0  0  0  0  0  0  0  0  0
  -30.5000   15.0560  -18.5280 N   0  0  0  0  0  0  0  0  0  0  0  0
  -30.8620   14.8360  -19.7720 C   0  0  0  0  0  0  0  0  0  0  0  0
  -29.7680   14.3520  -20.4330 N   0  0  0  0  0  0  0  0  0  0  0  0
  -25.2720   13.6970  -20.4160 C   0  0  0  0  0  0  0  0  0  0  0  0
  -26.4450   14.4730  -20.4880 C   0  0  0  0  0  0  0  0  0  0  0  0
  -27.3790   13.8470  -19.7190 C   0  0  0  0  0  0  0  0  0  0  0  0
  -26.8180   12.7340  -19.2040 O   0  0  0  0  0  0  0  0  0  0  0  0
  -25.5450   12.6410  -19.6240 C   0  0  0  0  0  0  0  0  0  0  0  0
  -29.6850   13.9670  -21.8450 C   0  0  0  0  0  0  0  0  0  0  0  0
  -29.0420   12.5830  -21.9590 C   0  0  0  0  0  0  0  0  0  0  0  0
  -30.0680   11.5250  -21.6450 C   0  0  0  0  0  0  0  0  0  0  0  0
  -30.1340   10.9970  -20.4060 N   0  0  0  0  0  0  0  0  0  0  0  0
  -30.8050   10.3070  -20.2000 H   0  0  0  0  0  0  0  0  0  0  0  0
  -29.5120   11.3020  -19.7070 H   0  0  0  0  0  0  0  0  0  0  0  0
  -30.8360   11.1500  -22.5050 O   0  0  0  0  0  0  0  0  0  0  0  0
  -32.9560   13.4150  -20.8130 C   0  0  0  0  0  0  0  0  0  0  0  0
  -33.3420   12.7300  -19.5280 C   0  0  0  0  0  0  0  0  0  0  0  0
  -33.1620   13.3590  -18.3490 N   0  0  0  0  0  0  0  0  0  0  0  0
  -32.8530   14.2930  -18.3320 H   0  0  0  0  0  0  0  0  0  0  0  0
  -33.8140   11.6130  -19.5530 O   0  0  0  0  0  0  0  0  0  0  0  0
  -33.4170   12.6830  -17.1480 C   0  0  0  0  0  0  0  0  0  0  0  0
  -34.6360   12.8440  -16.5060 C   0  0  0  0  0  0  0  0  0  0  0  0
  -34.8860   12.1760  -15.3190 C   0  0  0  0  0  0  0  0  0  0  0  0
  -33.9150   11.3370  -14.7750 C   0  0  0  0  0  0  0  0  0  0  0  0
  -34.3980   10.8070  -13.6140 O   0  0  0  0  0  0  0  0  0  0  0  0
  -35.5170   11.6360  -13.2460 C   0  0  0  0  0  0  0  0  0  0  0  0
  -32.6980   11.1840  -15.4180 C   0  0  0  0  0  0  0  0  0  0  0  0
  -35.9810   12.1620  -14.5030 O   0  0  0  0  0  0  0  0  0  0  0  0
  -32.4480   11.8520  -16.6020 C   0  0  0  0  0  0  0  0  0  0  0  0
  -31.1480   11.6800  -17.2880 N   0  0  0  0  0  0  0  0  0  0  0  0
  -31.0410   10.8750  -18.1960 O   0  0  0  0  0  0  0  0  0  0  0  0
  -30.1860   12.3430  -16.9460 O   0  0  0  0  0  0  0  0  0  0  0  0
  1  5  1  0  0  0  0
  2  3  2  0  0  0  0
  4  3  1  0  0  0  0
  5  4  2  0  0  0  0
  6  5  1  0  0  0  0
  6  2  1  0  0  0  0
  7 11  2  0  0  0  0
  8  7  1  0  0  0  0
  8  9  2  0  0  0  0
  9  2  1  0  0  0  0
  9 10  1  0  0  0  0
 11 10  1  0  0  0  0
 12  6  1  0  0  0  0
 13 12  1  0  0  0  0
 13 14  1  0  0  0  0
 14 15  1  0  0  0  0
 15 16  1  0  0  0  0
 15 17  1  0  0  0  0
 18 14  2  0  0  0  0
 19  1  1  0  0  0  0
 19 20  1  0  0  0  0
 20 21  1  0  0  0  0
 21 22  1  0  0  0  0
 21 24  1  0  0  0  0
 23 20  2  0  0  0  0
 24 32  2  0  0  0  0
 24 25  1  0  0  0  0
 25 26  2  0  0  0  0
 26 27  1  0  0  0  0
 26 31  1  0  0  0  0
 27 28  1  0  0  0  0
 28 29  1  0  0  0  0
 30 27  2  0  0  0  0
 31 29  1  0  0  0  0
 32 30  1  0  0  0  0
 33 35  2  0  0  0  0
 33 32  1  0  0  0  0
 34 33  2  0  0  0  0
M  END
>  <MODEL>
1

>  <REMARK>
 VINA RESULT:      -1.2      0.000      0.000
  Name = ZINC29665193
                            x       y       z     vdW  Elec       q    Type
                         _______ _______ _______ _____ _____    ______ ____

>  <TORSDO>
F 9

>  <vina_score>
-1.2

$$$$
ZINC08713733
 OpenBabel01091701513D

 25 26  0  0  1  0  0  0  0  0999 V2000
  -32.8040   12.8700  -18.9050 N   0  0  0  0  0  0  0  0  0  0  0  0
  -31.4570   12.8020  -18.9450 C   0  0  0  0  0  0  0  0  0  0  0  0
  -31.1020   12.7430  -20.2640 C   0  0  0  0  0  0  0  0  0  0  0  0
  -32.2220   12.7650  -21.0070 N   0  0  0  0  0  0  0  0  0  0  0  0
  -33.2500   12.8410  -20.2340 N   0  0  0  0  0  0  0  0  0  0  0  0
  -33.0400   12.8440  -16.5360 C   0  0  0  0  0  0  0  0  0  0  0  0
  -33.6020   12.9480  -17.7570 N   0  0  0  0  0  0  0  0  0  0  0  0
  -34.5740   13.0790  -17.8420 H   0  0  0  0  0  0  0  0  0  0  0  0
  -31.8390   12.6820  -16.4320 O   0  0  0  0  0  0  0  0  0  0  0  0
  -33.8750   12.9260  -15.3370 C   0  0  2  0  0  0  0  0  0  0  0  0
  -33.8300   13.9430  -14.6120 N   0  0  0  0  0  0  0  0  0  0  0  0
  -33.7900   14.8590  -13.9610 N   0  0  0  0  0  0  0  0  0  0  0  0
  -36.4630   10.8050  -13.5630 C   0  0  0  0  0  0  0  0  0  0  0  0
  -35.5740   11.9150  -13.9140 N   0  0  0  0  0  0  0  0  0  0  0  0
  -35.5690   12.7330  -13.3670 H   0  0  0  0  0  0  0  0  0  0  0  0
  -34.7630   11.8160  -14.9860 C   0  0  0  0  0  0  0  0  0  0  0  0
  -34.7680   10.8040  -15.6610 O   0  0  0  0  0  0  0  0  0  0  0  0
  -29.7250   12.6610  -20.7830 C   0  0  0  0  0  0  0  0  0  0  0  0
  -29.3930   11.7410  -22.1870 S   0  0  0  0  0  0  0  0  0  0  0  0
  -28.7280   13.3110  -20.1500 N   0  0  0  0  0  0  0  0  0  0  0  0
  -28.5860   14.7710  -20.2570 C   0  0  0  0  0  0  0  0  0  0  0  0
  -28.4450   15.3480  -18.8430 C   0  0  0  0  0  0  0  0  0  0  0  0
  -27.3990   14.6580  -18.1550 O   0  0  0  0  0  0  0  0  0  0  0  0
  -27.6440   13.2610  -17.9670 C   0  0  0  0  0  0  0  0  0  0  0  0
  -27.7450   12.5770  -19.3360 C   0  0  0  0  0  0  0  0  0  0  0  0
  1  7  1  0  0  0  0
  2  1  1  0  0  0  0
  3  2  2  0  0  0  0
  4  3  1  0  0  0  0
  4  5  2  0  0  0  0
  5  1  1  0  0  0  0
  6  9  2  0  0  0  0
  7  6  1  0  0  0  0
  8  7  1  0  0  0  0
 10  6  1  1  0  0  0
 10 16  1  0  0  0  0
 10 11  1  0  0  0  0
 11 12  1  0  0  0  0
 14 13  1  0  0  0  0
 14 15  1  0  0  0  0
 16 14  1  0  0  0  0
 17 16  2  0  0  0  0
 18  3  1  0  0  0  0
 18 20  1  0  0  0  0
 19 18  2  0  0  0  0
 20 25  1  0  0  0  0
 21 20  1  0  0  0  0
 21 22  1  0  0  0  0
 22 23  1  0  0  0  0
 23 24  1  0  0  0  0
 25 24  1  0  0  0  0
M  END
>  <MODEL>
1

>  <REMARK>
 VINA RESULT:      -1.0      0.000      0.000
  Name = ZINC08713733
                            x       y       z     vdW  Elec       q    Type
                         _______ _______ _______ _____ _____    ______ ____

>  <TORSDO>
F 5

>  <vina_score>
-1.0

$$$$
ZINC09951579
 OpenBabel01091702043D

 36 38  0  0  1  0  0  0  0  0999 V2000
  -31.0460   12.8260  -20.0370 C   0  0  0  0  0  0  0  0  0  0  0  0
  -29.9480   13.4020  -20.6470 C   0  0  0  0  0  0  0  0  0  0  0  0
  -29.6140   14.8230  -20.4450 C   0  0  0  0  0  0  0  0  0  0  0  0
  -28.5260   15.3170  -21.0720 N   0  0  0  0  0  0  0  0  0  0  0  0
  -28.2880   16.2650  -20.9480 H   0  0  0  0  0  0  0  0  0  0  0  0
  -27.7610   14.5480  -21.8580 C   0  0  0  0  0  0  0  0  0  0  0  0
  -28.0070   13.2510  -22.0910 N   0  0  0  0  0  0  0  0  0  0  0  0
  -27.4080   12.7470  -22.6860 H   0  0  0  0  0  0  0  0  0  0  0  0
  -26.3990   15.2620  -22.6120 S   0  0  0  0  0  0  0  0  0  0  0  0
  -30.3000   15.5310  -19.7330 O   0  0  0  0  0  0  0  0  0  0  0  0
  -29.0590   12.6210  -21.5260 C   0  0  0  0  0  0  0  0  0  0  0  0
  -29.2700   11.4430  -21.7410 O   0  0  0  0  0  0  0  0  0  0  0  0
  -31.2500   11.3340  -20.1060 C   0  0  1  0  0  0  0  0  0  0  0  0
  -31.6260   10.8560  -18.8460 F   0  0  0  0  0  0  0  0  0  0  0  0
  -32.3330   11.0210  -21.1050 C   0  0  0  0  0  0  0  0  0  0  0  0
  -32.0670   10.9500  -22.2820 O   0  0  0  0  0  0  0  0  0  0  0  0
  -34.5550   11.8730  -20.9680 C   0  0  0  0  0  0  0  0  0  0  0  0
  -33.5930   10.8210  -20.6880 O   0  0  0  0  0  0  0  0  0  0  0  0
  -31.9370   13.6000  -19.3800 N   0  0  0  0  0  0  0  0  0  0  0  0
  -32.1250   14.5120  -19.6980 H   0  0  0  0  0  0  0  0  0  0  0  0
  -32.5880   13.1080  -18.2540 C   0  0  0  0  0  0  0  0  0  0  0  0
  -33.9250   12.7370  -18.3270 C   0  0  0  0  0  0  0  0  0  0  0  0
  -34.5680   12.2440  -17.2100 C   0  0  0  0  0  0  0  0  0  0  0  0
  -33.8930   12.1260  -16.0070 C   0  0  0  0  0  0  0  0  0  0  0  0
  -32.5680   12.4930  -15.9130 C   0  0  0  0  0  0  0  0  0  0  0  0
  -31.9010   12.9890  -17.0360 C   0  0  0  0  0  0  0  0  0  0  0  0
  -30.4830   13.3860  -16.9430 C   0  0  0  0  0  0  0  0  0  0  0  0
  -30.1370   14.6830  -17.0640 N   0  0  0  0  0  0  0  0  0  0  0  0
  -30.8310   15.3660  -17.2130 H   0  0  0  0  0  0  0  0  0  0  0  0
  -29.6270   12.5430  -16.7600 O   0  0  0  0  0  0  0  0  0  0  0  0
  -28.7290   15.0770  -16.9720 C   0  0  0  0  0  0  0  0  0  0  0  0
  -27.8840   14.1070  -17.7580 C   0  0  0  0  0  0  0  0  0  0  0  0
  -26.7430   14.4030  -18.4050 C   0  0  0  0  0  0  0  0  0  0  0  0
  -26.2890   13.2050  -19.0020 C   0  0  0  0  0  0  0  0  0  0  0  0
  -27.1790   12.2480  -18.6830 C   0  0  0  0  0  0  0  0  0  0  0  0
  -28.1410   12.8000  -17.9240 O   0  0  0  0  0  0  0  0  0  0  0  0
  1 19  2  0  0  0  0
  2  3  1  0  0  0  0
  2  1  1  0  0  0  0
  3 10  2  0  0  0  0
  4  5  1  0  0  0  0
  4  3  1  0  0  0  0
  6  4  1  0  0  0  0
  7  6  1  0  0  0  0
  7 11  1  0  0  0  0
  8  7  1  0  0  0  0
  9  6  2  0  0  0  0
 11  2  1  0  0  0  0
 12 11  2  0  0  0  0
 13 15  1  6  0  0  0
 13  1  1  0  0  0  0
 13 14  1  0  0  0  0
 15 18  1  0  0  0  0
 16 15  2  0  0  0  0
 17 18  1  0  0  0  0
 19 21  1  0  0  0  0
 20 19  1  0  0  0  0
 21 26  1  0  0  0  0
 22 21  2  0  0  0  0
 22 23  1  0  0  0  0
 23 24  2  0  0  0  0
 24 25  1  0  0  0  0
 26 27  1  0  0  0  0
 26 25  2  0  0  0  0
 27 30  2  0  0  0  0
 28 31  1  0  0  0  0
 28 27  1  0  0  0  0
 29 28  1  0  0  0  0
 32 31  1  0  0  0  0
 33 32  2  0  0  0  0
 34 35  2  0  0  0  0
 34 33  1  0  0  0  0
 35 36  1  0  0  0  0
 36 32  1  0  0  0  0
M  END
>  <MODEL>
1

>  <REMARK>
 VINA RESULT:      -0.6      0.000      0.000
  Name = ZINC09951579
                            x       y       z     vdW  Elec       q    Type
                         _______ _______ _______ _____ _____    ______ ____

>  <TORSDO>
F 8

>  <vina_score>
-0.6

$$$$
ZINC02441083
 OpenBabel01091702033D

 40 43  0  0  1  0  0  0  0  0999 V2000
  -33.3950   12.9710  -18.5390 C   0  0  0  0  0  0  0  0  0  0  0  0
  -34.1740   13.2860  -17.5340 N   0  0  0  0  0  0  0  0  0  0  0  0
  -33.8420   12.5340  -16.4550 C   0  0  0  0  0  0  0  0  0  0  0  0
  -34.3190   12.4400  -15.1360 C   0  0  0  0  0  0  0  0  0  0  0  0
  -33.7420   11.5680  -14.3160 N   0  0  0  0  0  0  0  0  0  0  0  0
  -32.7440   10.8040  -14.7220 C   0  0  0  0  0  0  0  0  0  0  0  0
  -32.2660   10.8580  -15.9470 N   0  0  0  0  0  0  0  0  0  0  0  0
  -32.7790   11.7010  -16.8360 C   0  0  0  0  0  0  0  0  0  0  0  0
  -32.5160   11.9960  -18.1550 N   0  0  0  0  0  0  0  0  0  0  0  0
  -31.4860   11.3780  -18.9930 C   0  0  2  0  0  0  0  0  0  0  0  0
  -30.3550   12.3920  -19.3030 C   0  0  2  0  0  0  0  0  0  0  0  0
  -29.7680   11.8300  -20.6200 C   0  0  2  0  0  0  0  0  0  0  0  0
  -30.8960   10.9480  -21.1910 C   0  0  1  0  0  0  0  0  0  0  0  0
  -32.0150   11.0560  -20.2970 O   0  0  0  0  0  0  0  0  0  0  0  0
  -29.3720   12.3910  -18.2650 O   0  0  0  0  0  0  0  0  0  0  0  0
  -28.5010   12.1960  -18.6440 H   0  0  0  0  0  0  0  0  0  0  0  0
  -28.6030   11.0450  -20.3570 O   0  0  0  0  0  0  0  0  0  0  0  0
  -28.8030   10.1080  -20.5110 H   0  0  0  0  0  0  0  0  0  0  0  0
  -31.2900   11.4440  -22.5830 C   0  0  0  0  0  0  0  0  0  0  0  0
  -31.2380   12.8720  -22.6120 O   0  0  0  0  0  0  0  0  0  0  0  0
  -32.0040   13.2140  -23.0980 H   0  0  0  0  0  0  0  0  0  0  0  0
  -35.3650   13.2370  -14.7030 N   0  0  0  0  0  0  0  0  0  0  0  0
  -36.2840   12.8830  -14.6950 H   0  0  0  0  0  0  0  0  0  0  0  0
  -35.1910   14.1580  -14.4020 H   0  0  0  0  0  0  0  0  0  0  0  0
  -33.4520   13.5390  -19.7960 N   0  0  0  0  0  0  0  0  0  0  0  0
  -34.2930   13.5190  -20.3070 H   0  0  0  0  0  0  0  0  0  0  0  0
  -32.3120   14.1410  -20.3450 N   0  0  0  0  0  0  0  0  0  0  0  0
  -31.7090   13.6190  -20.9210 H   0  0  0  0  0  0  0  0  0  0  0  0
  -32.0340   15.4750  -20.0740 C   0  0  0  0  0  0  0  0  0  0  0  0
  -32.7680   16.4270  -20.6180 C   0  0  0  0  0  0  0  0  0  0  0  0
  -30.8920   15.8360  -19.1580 C   0  0  0  0  0  0  0  0  0  0  0  0
  -29.8100   16.3610  -19.9290 O   0  0  0  0  0  0  0  0  0  0  0  0
  -26.4440   14.0020  -20.2810 C   0  0  0  0  0  0  0  0  0  0  0  0
  -26.8330   14.4680  -19.0390 C   0  0  0  0  0  0  0  0  0  0  0  0
  -27.9610   15.2580  -18.9180 C   0  0  0  0  0  0  0  0  0  0  0  0
  -28.7020   15.5840  -20.0450 C   0  0  0  0  0  0  0  0  0  0  0  0
  -28.3120   15.1100  -21.2900 C   0  0  0  0  0  0  0  0  0  0  0  0
  -27.1810   14.3250  -21.4050 C   0  0  0  0  0  0  0  0  0  0  0  0
  -25.5770   11.8380  -21.1260 C   0  0  0  0  0  0  0  0  0  0  0  0
  -25.2140   13.1400  -20.4090 C   0  0  0  0  0  0  0  0  0  0  0  0
  1  9  1  0  0  0  0
  1  2  2  0  0  0  0
  2  3  1  0  0  0  0
  3  4  1  0  0  0  0
  4 22  1  0  0  0  0
  4  5  2  0  0  0  0
  6  5  1  0  0  0  0
  7  6  2  0  0  0  0
  8  3  2  0  0  0  0
  8  7  1  0  0  0  0
  9  8  1  0  0  0  0
 10  9  1  1  0  0  0
 11 10  1  0  0  0  0
 11 15  1  1  0  0  0
 12 17  1  1  0  0  0
 12 11  1  0  0  0  0
 13 19  1  6  0  0  0
 13 12  1  0  0  0  0
 13 14  1  0  0  0  0
 14 10  1  0  0  0  0
 16 15  1  0  0  0  0
 18 17  1  0  0  0  0
 20 19  1  0  0  0  0
 21 20  1  0  0  0  0
 22 23  1  0  0  0  0
 22 24  1  0  0  0  0
 25  1  1  0  0  0  0
 26 25  1  0  0  0  0
 27 29  1  0  0  0  0
 27 25  1  0  0  0  0
 28 27  1  0  0  0  0
 29 31  1  0  0  0  0
 30 29  2  0  0  0  0
 32 31  1  0  0  0  0
 33 34  2  0  0  0  0
 34 35  1  0  0  0  0
 36 32  1  0  0  0  0
 36 35  2  0  0  0  0
 37 36  1  0  0  0  0
 38 37  2  0  0  0  0
 38 33  1  0  0  0  0
 39 40  1  0  0  0  0
 40 33  1  0  0  0  0
M  END
>  <MODEL>
1

>  <REMARK>
 VINA RESULT:      -0.0      0.000      0.000
  Name = ZINC02441083
                            x       y       z     vdW  Elec       q    Type
                         _______ _______ _______ _____ _____    ______ ____

>  <TORSDO>
F 13

>  <vina_score>
-0.0

$$$$
ZINC03766761
 OpenBabel01091701543D

 29 31  0  0  0  0  0  0  0  0999 V2000
  -31.9290   12.3840  -19.1830 C   0  0  0  0  0  0  0  0  0  0  0  0
  -32.4690   12.6010  -17.9120 C   0  0  0  0  0  0  0  0  0  0  0  0
  -32.1700   13.4710  -16.9340 N   0  0  0  0  0  0  0  0  0  0  0  0
  -32.8210   13.4850  -15.8250 N   0  0  0  0  0  0  0  0  0  0  0  0
  -33.8270   12.6280  -15.6040 C   0  0  0  0  0  0  0  0  0  0  0  0
  -34.1720   11.6990  -16.5940 C   0  0  0  0  0  0  0  0  0  0  0  0
  -33.4780   11.7030  -17.7540 N   0  0  0  0  0  0  0  0  0  0  0  0
  -33.5740   10.9660  -18.8480 C   0  0  0  0  0  0  0  0  0  0  0  0
  -32.6530   11.3480  -19.7360 N   0  0  0  0  0  0  0  0  0  0  0  0
  -34.5600   12.6590  -14.3290 C   0  0  0  0  0  0  0  0  0  0  0  0
  -34.5170   13.7620  -13.5540 N   0  0  0  0  0  0  0  0  0  0  0  0
  -35.0070   13.7820  -12.7010 H   0  0  0  0  0  0  0  0  0  0  0  0
  -33.9940   14.5450  -13.8410 H   0  0  0  0  0  0  0  0  0  0  0  0
  -35.2050   11.6910  -13.9750 O   0  0  0  0  0  0  0  0  0  0  0  0
  -29.8290   12.4080  -20.3330 N   0  0  0  0  0  0  0  0  0  0  0  0
  -29.8590   11.4250  -20.3820 H   0  0  0  0  0  0  0  0  0  0  0  0
  -30.8540   13.0870  -19.7810 C   0  0  0  0  0  0  0  0  0  0  0  0
  -30.8580   14.3040  -19.7990 O   0  0  0  0  0  0  0  0  0  0  0  0
  -26.4260   13.7740  -20.6400 C   0  0  0  0  0  0  0  0  0  0  0  0
  -26.5340   14.4720  -21.8350 C   0  0  0  0  0  0  0  0  0  0  0  0
  -27.7300   14.4830  -22.5260 C   0  0  0  0  0  0  0  0  0  0  0  0
  -28.8230   13.8000  -22.0300 C   0  0  0  0  0  0  0  0  0  0  0  0
  -28.7220   13.0990  -20.8350 C   0  0  0  0  0  0  0  0  0  0  0  0
  -27.5220   13.0910  -20.1360 C   0  0  0  0  0  0  0  0  0  0  0  0
  -25.2130   13.0340  -18.7340 C   0  0  0  0  0  0  0  0  0  0  0  0
  -25.2490   13.7650  -19.9610 O   0  0  0  0  0  0  0  0  0  0  0  0
  -35.1930   10.8050  -16.3910 N   0  0  0  0  0  0  0  0  0  0  0  0
  -35.2470    9.9860  -16.9350 H   0  0  0  0  0  0  0  0  0  0  0  0
  -35.8740   10.9830  -15.7010 H   0  0  0  0  0  0  0  0  0  0  0  0
  1  2  2  0  0  0  0
  2  7  1  0  0  0  0
  2  3  1  0  0  0  0
  3  4  2  0  0  0  0
  4  5  1  0  0  0  0
  5 10  1  0  0  0  0
  6 27  1  0  0  0  0
  6  5  2  0  0  0  0
  7  6  1  0  0  0  0
  8  7  1  0  0  0  0
  9  1  1  0  0  0  0
  9  8  2  0  0  0  0
 10 14  2  0  0  0  0
 10 11  1  0  0  0  0
 11 12  1  0  0  0  0
 13 11  1  0  0  0  0
 15 17  1  0  0  0  0
 16 15  1  0  0  0  0
 17  1  1  0  0  0  0
 18 17  2  0  0  0  0
 19 24  1  0  0  0  0
 19 26  1  0  0  0  0
 20 19  2  0  0  0  0
 21 22  2  0  0  0  0
 21 20  1  0  0  0  0
 22 23  1  0  0  0  0
 23 15  1  0  0  0  0
 23 24  2  0  0  0  0
 26 25  1  0  0  0  0
 27 29  1  0  0  0  0
 28 27  1  0  0  0  0
M  END
>  <MODEL>
1

>  <REMARK>
 VINA RESULT:       0.6      0.000      0.000
  Name = ZINC03766761
                            x       y       z     vdW  Elec       q    Type
                         _______ _______ _______ _____ _____    ______ ____

>  <TORSDO>
F 5

>  <vina_score>
0.6

$$$$
ZINC15686069
 OpenBabel01091702183D

 32 33  0  0  0  0  0  0  0  0999 V2000
  -25.5590   13.8280  -20.5370 C   0  0  0  0  0  0  0  0  0  0  0  0
  -26.7330   13.6110  -19.6170 C   0  0  0  0  0  0  0  0  0  0  0  0
  -26.6250   13.9330  -18.2760 C   0  0  0  0  0  0  0  0  0  0  0  0
  -27.6960   13.7420  -17.4280 C   0  0  0  0  0  0  0  0  0  0  0  0
  -28.8880   13.2110  -17.9260 C   0  0  0  0  0  0  0  0  0  0  0  0
  -28.9900   12.8870  -19.2800 C   0  0  0  0  0  0  0  0  0  0  0  0
  -27.9120   13.0890  -20.1170 C   0  0  0  0  0  0  0  0  0  0  0  0
  -30.0390   12.9970  -17.0230 C   0  0  0  0  0  0  0  0  0  0  0  0
  -31.2960   13.0640  -17.5070 N   0  0  0  0  0  0  0  0  0  0  0  0
  -31.4490   13.3210  -18.4450 H   0  0  0  0  0  0  0  0  0  0  0  0
  -29.8530   12.7600  -15.8460 O   0  0  0  0  0  0  0  0  0  0  0  0
  -32.3770   12.7680  -16.6800 C   0  0  0  0  0  0  0  0  0  0  0  0
  -32.7290   13.6450  -15.6580 C   0  0  0  0  0  0  0  0  0  0  0  0
  -33.8020   13.3590  -14.8430 C   0  0  0  0  0  0  0  0  0  0  0  0
  -34.5290   12.1810  -15.0360 C   0  0  0  0  0  0  0  0  0  0  0  0
  -34.1680   11.3000  -16.0600 C   0  0  0  0  0  0  0  0  0  0  0  0
  -33.1000   11.5940  -16.8740 C   0  0  0  0  0  0  0  0  0  0  0  0
  -35.6740   11.8690  -14.1610 C   0  0  0  0  0  0  0  0  0  0  0  0
  -36.0810   12.7640  -13.2390 O   0  0  0  0  0  0  0  0  0  0  0  0
  -36.2520   10.8060  -14.2720 O   0  0  0  0  0  0  0  0  0  0  0  0
  -28.0390   12.6820  -21.8270 S   0  0  0  0  0  0  0  0  0  0  0  0
  -27.3090   11.4780  -22.0120 O   0  0  0  0  0  0  0  0  0  0  0  0
  -27.7460   13.8700  -22.5500 O   0  0  0  0  0  0  0  0  0  0  0  0
  -29.6270   12.3240  -22.1290 N   0  0  0  0  0  0  0  0  0  0  0  0
  -30.0650   10.9270  -22.1810 C   0  0  0  0  0  0  0  0  0  0  0  0
  -31.4600   10.8060  -21.5630 C   0  0  0  0  0  0  0  0  0  0  0  0
  -31.3930   11.1260  -20.1720 O   0  0  0  0  0  0  0  0  0  0  0  0
  -31.4920   12.0840  -20.0560 H   0  0  0  0  0  0  0  0  0  0  0  0
  -30.5940   13.4040  -22.3430 C   0  0  0  0  0  0  0  0  0  0  0  0
  -30.7430   14.2160  -21.0550 C   0  0  0  0  0  0  0  0  0  0  0  0
  -31.9900   13.8970  -20.4330 O   0  0  0  0  0  0  0  0  0  0  0  0
  -32.6350   14.5960  -20.6230 H   0  0  0  0  0  0  0  0  0  0  0  0
  1  2  1  0  0  0  0
  2  3  1  0  0  0  0
  3  4  2  0  0  0  0
  5  4  1  0  0  0  0
  5  8  1  0  0  0  0
  6  5  2  0  0  0  0
  7  2  2  0  0  0  0
  7  6  1  0  0  0  0
  8 11  2  0  0  0  0
  9  8  1  0  0  0  0
  9 12  1  0  0  0  0
 10  9  1  0  0  0  0
 12 13  1  0  0  0  0
 13 14  2  0  0  0  0
 15 14  1  0  0  0  0
 15 18  1  0  0  0  0
 16 15  2  0  0  0  0
 17 12  2  0  0  0  0
 17 16  1  0  0  0  0
 18 19  1  0  0  0  0
 20 18  2  0  0  0  0
 21  7  1  0  0  0  0
 22 21  2  0  0  0  0
 23 21  2  0  0  0  0
 24 21  1  0  0  0  0
 25 24  1  0  0  0  0
 25 26  1  0  0  0  0
 26 27  1  0  0  0  0
 27 28  1  0  0  0  0
 29 24  1  0  0  0  0
 29 30  1  0  0  0  0
 30 31  1  0  0  0  0
 32 31  1  0  0  0  0
M  END
>  <MODEL>
1

>  <REMARK>
 VINA RESULT:       0.9      0.000      0.000
  Name = ZINC15686069
                            x       y       z     vdW  Elec       q    Type
                         _______ _______ _______ _____ _____    ______ ____

>  <TORSDO>
F 11

>  <vina_score>
0.9

$$$$
ZINC30969187
 OpenBabel01091702103D

 32 33  0  0  1  0  0  0  0  0999 V2000
  -31.6440   11.1940  -22.5320 C   0  0  0  0  0  0  0  0  0  0  0  0
  -33.0020   11.6690  -18.5050 C   0  0  2  0  0  0  0  0  0  0  0  0
  -34.0130   11.3440  -19.6090 C   0  0  0  0  0  0  0  0  0  0  0  0
  -33.4160   11.7170  -20.9670 C   0  0  0  0  0  0  0  0  0  0  0  0
  -32.1730   10.9640  -21.1800 N   0  0  0  0  0  0  0  0  0  0  0  0
  -32.3900    9.9720  -21.0910 H   0  0  0  0  0  0  0  0  0  0  0  0
  -31.1700   11.2960  -20.1600 C   0  0  0  0  0  0  0  0  0  0  0  0
  -31.7010   10.9100  -18.7770 C   0  0  0  0  0  0  0  0  0  0  0  0
  -32.7680   11.2350  -16.0810 N   0  0  0  0  0  0  0  0  0  0  0  0
  -31.8230   11.5020  -16.1580 H   0  0  0  0  0  0  0  0  0  0  0  0
  -33.5610   11.2480  -17.1700 C   0  0  0  0  0  0  0  0  0  0  0  0
  -34.7250   10.9210  -17.0760 O   0  0  0  0  0  0  0  0  0  0  0  0
  -33.3100   10.8260  -14.7840 C   0  0  0  0  0  0  0  0  0  0  0  0
  -34.8390   10.8080  -14.8520 C   0  0  0  0  0  0  0  0  0  0  0  0
  -34.2880   13.1750  -14.2740 C   0  0  0  0  0  0  0  0  0  0  0  0
  -35.3900   12.1140  -14.2770 C   0  0  0  0  0  0  0  0  0  0  0  0
  -30.2060   11.6350  -22.4400 C   0  0  0  0  0  0  0  0  0  0  0  0
  -29.9020   12.9480  -22.4460 N   0  0  0  0  0  0  0  0  0  0  0  0
  -30.6200   13.6180  -22.5090 H   0  0  0  0  0  0  0  0  0  0  0  0
  -29.3220   10.8080  -22.3620 O   0  0  0  0  0  0  0  0  0  0  0  0
  -28.5650   13.3590  -22.3610 N   0  0  0  0  0  0  0  0  0  0  0  0
  -27.8510   12.7850  -22.7210 H   0  0  0  0  0  0  0  0  0  0  0  0
  -28.2580   14.5370  -21.7860 C   0  0  0  0  0  0  0  0  0  0  0  0
  -29.1380   15.2430  -21.3420 O   0  0  0  0  0  0  0  0  0  0  0  0
  -26.8200   14.9790  -21.6950 C   0  0  0  0  0  0  0  0  0  0  0  0
  -26.3180   14.7910  -20.2610 C   0  0  1  0  0  0  0  0  0  0  0  0
  -27.3180   15.4310  -19.2830 C   0  0  0  0  0  0  0  0  0  0  0  0
  -26.9560   14.9610  -17.8460 C   0  0  0  0  0  0  0  0  0  0  0  0
  -26.5520   13.1910  -18.1620 S   0  0  0  0  0  0  0  0  0  0  0  0
  -25.3640   12.8540  -17.4580 O   0  0  0  0  0  0  0  0  0  0  0  0
  -27.7240   12.4080  -17.9710 O   0  0  0  0  0  0  0  0  0  0  0  0
  -26.1780   13.2800  -19.9600 C   0  0  0  0  0  0  0  0  0  0  0  0
  1 17  1  0  0  0  0
  1  5  1  0  0  0  0
  2 11  1  1  0  0  0
  3  2  1  0  0  0  0
  4  3  1  0  0  0  0
  5  6  1  0  0  0  0
  5  4  1  0  0  0  0
  5  7  1  0  0  0  0
  7  8  1  0  0  0  0
  8  2  1  0  0  0  0
  9 13  1  0  0  0  0
 10  9  1  0  0  0  0
 11 12  2  0  0  0  0
 11  9  1  0  0  0  0
 14 13  1  0  0  0  0
 14 16  1  0  0  0  0
 16 15  1  0  0  0  0
 17 20  2  0  0  0  0
 18 17  1  0  0  0  0
 18 21  1  0  0  0  0
 19 18  1  0  0  0  0
 21 23  1  0  0  0  0
 22 21  1  0  0  0  0
 23 25  1  0  0  0  0
 23 24  2  0  0  0  0
 26 25  1  6  0  0  0
 26 32  1  0  0  0  0
 26 27  1  0  0  0  0
 27 28  1  0  0  0  0
 29 31  2  0  0  0  0
 29 28  1  0  0  0  0
 29 30  2  0  0  0  0
 32 29  1  0  0  0  0
M  END
>  <MODEL>
1

>  <REMARK>
 VINA RESULT:       1.8      0.000      0.000
  Name = ZINC30969187
                            x       y       z     vdW  Elec       q    Type
                         _______ _______ _______ _____ _____    ______ ____

>  <TORSDO>
F 9

>  <vina_score>
1.8

$$$$
ZINC12801698
 OpenBabel01091701593D

 33 35  0  0  0  0  0  0  0  0999 V2000
  -28.6780   12.6080  -21.8360 C   0  0  0  0  0  0  0  0  0  0  0  0
  -29.5380   13.5930  -21.5090 N   0  0  0  0  0  0  0  0  0  0  0  0
  -29.3360   14.5250  -21.7560 H   0  0  0  0  0  0  0  0  0  0  0  0
  -28.9270   11.4600  -21.5310 O   0  0  0  0  0  0  0  0  0  0  0  0
  -30.7190   13.2920  -20.8160 N   0  0  0  0  0  0  0  0  0  0  0  0
  -30.8160   13.5520  -19.8730 H   0  0  0  0  0  0  0  0  0  0  0  0
  -31.7210   12.6460  -21.4450 C   0  0  0  0  0  0  0  0  0  0  0  0
  -31.6000   12.3240  -22.6120 O   0  0  0  0  0  0  0  0  0  0  0  0
  -32.9610   12.3300  -20.7170 C   0  0  0  0  0  0  0  0  0  0  0  0
  -34.1320   12.1170  -21.4000 C   0  0  0  0  0  0  0  0  0  0  0  0
  -35.2520   11.7880  -20.0440 S   0  0  0  0  0  0  0  0  0  0  0  0
  -34.0650   11.9650  -18.7200 C   0  0  0  0  0  0  0  0  0  0  0  0
  -32.9620   12.2410  -19.3850 N   0  0  0  0  0  0  0  0  0  0  0  0
  -34.2540   11.8390  -17.3540 N   0  0  0  0  0  0  0  0  0  0  0  0
  -34.2580   13.1550  -16.6990 C   0  0  0  0  0  0  0  0  0  0  0  0
  -34.5290   12.9740  -15.2040 C   0  0  0  0  0  0  0  0  0  0  0  0
  -33.5450   12.0960  -14.6490 O   0  0  0  0  0  0  0  0  0  0  0  0
  -33.5150   10.8050  -15.2630 C   0  0  0  0  0  0  0  0  0  0  0  0
  -33.2340   10.9640  -16.7600 C   0  0  0  0  0  0  0  0  0  0  0  0
  -27.4090   12.9320  -22.5800 C   0  0  0  0  0  0  0  0  0  0  0  0
  -26.0410   11.9590  -21.8940 S   0  0  0  0  0  0  0  0  0  0  0  0
  -25.4700   12.9410  -20.4780 C   0  0  0  0  0  0  0  0  0  0  0  0
  -27.3100   12.6910  -18.8440 N   0  0  0  0  0  0  0  0  0  0  0  0
  -27.0490   11.7470  -18.7420 H   0  0  0  0  0  0  0  0  0  0  0  0
  -26.6610   13.4770  -19.7260 C   0  0  0  0  0  0  0  0  0  0  0  0
  -27.0330   14.6170  -19.9110 O   0  0  0  0  0  0  0  0  0  0  0  0
  -29.2150   14.9380  -16.6420 C   0  0  0  0  0  0  0  0  0  0  0  0
  -30.4160   14.2580  -16.5480 C   0  0  0  0  0  0  0  0  0  0  0  0
  -30.5890   13.0600  -17.2130 C   0  0  0  0  0  0  0  0  0  0  0  0
  -29.5610   12.5360  -17.9770 C   0  0  0  0  0  0  0  0  0  0  0  0
  -29.7300   11.3640  -18.6270 F   0  0  0  0  0  0  0  0  0  0  0  0
  -28.3530   13.2170  -18.0730 C   0  0  0  0  0  0  0  0  0  0  0  0
  -28.1820   14.4180  -17.3970 C   0  0  0  0  0  0  0  0  0  0  0  0
  1  4  2  0  0  0  0
  1  2  1  0  0  0  0
  2  5  1  0  0  0  0
  3  2  1  0  0  0  0
  5  6  1  0  0  0  0
  7  5  1  0  0  0  0
  7  9  1  0  0  0  0
  8  7  2  0  0  0  0
  9 13  1  0  0  0  0
 10  9  2  0  0  0  0
 10 11  1  0  0  0  0
 11 12  1  0  0  0  0
 12 14  1  0  0  0  0
 13 12  2  0  0  0  0
 14 19  1  0  0  0  0
 14 15  1  0  0  0  0
 15 16  1  0  0  0  0
 16 17  1  0  0  0  0
 18 17  1  0  0  0  0
 19 18  1  0  0  0  0
 20 21  1  0  0  0  0
 20  1  1  0  0  0  0
 21 22  1  0  0  0  0
 22 25  1  0  0  0  0
 23 24  1  0  0  0  0
 23 32  1  0  0  0  0
 25 23  1  0  0  0  0
 26 25  2  0  0  0  0
 27 28  1  0  0  0  0
 29 28  2  0  0  0  0
 30 29  1  0  0  0  0
 31 30  1  0  0  0  0
 32 30  2  0  0  0  0
 32 33  1  0  0  0  0
 33 27  2  0  0  0  0
M  END
>  <MODEL>
1

>  <REMARK>
 VINA RESULT:       2.4      0.000      0.000
  Name = ZINC12801698
                            x       y       z     vdW  Elec       q    Type
                         _______ _______ _______ _____ _____    ______ ____

>  <TORSDO>
F 8

>  <vina_score>
2.4

$$$$
ZINC28887676
 OpenBabel01091701543D

 34 37  0  0  1  0  0  0  0  0999 V2000
  -26.9830   14.3020  -19.3470 C   0  0  0  0  0  0  0  0  0  0  0  0
  -26.6720   15.4830  -18.6960 C   0  0  0  0  0  0  0  0  0  0  0  0
  -27.3220   15.8230  -17.5250 C   0  0  0  0  0  0  0  0  0  0  0  0
  -28.2870   14.9800  -16.9980 C   0  0  0  0  0  0  0  0  0  0  0  0
  -28.5980   13.7880  -17.6500 C   0  0  0  0  0  0  0  0  0  0  0  0
  -27.9450   13.4570  -18.8280 C   0  0  0  0  0  0  0  0  0  0  0  0
  -29.5680   12.9290  -17.1190 N   0  0  0  0  0  0  0  0  0  0  0  0
  -29.2950   12.1290  -16.6140 H   0  0  0  0  0  0  0  0  0  0  0  0
  -30.8760   13.1960  -17.3000 C   0  0  0  0  0  0  0  0  0  0  0  0
  -31.2150   14.2310  -17.8340 O   0  0  0  0  0  0  0  0  0  0  0  0
  -31.9190   12.2090  -16.8390 C   0  0  1  0  0  0  0  0  0  0  0  0
  -32.9720   12.8960  -15.9400 C   0  0  0  0  0  0  0  0  0  0  0  0
  -34.2740   12.2250  -16.3140 C   0  0  0  0  0  0  0  0  0  0  0  0
  -34.1390   11.5730  -17.4820 N   0  0  0  0  0  0  0  0  0  0  0  0
  -35.2920   12.2690  -15.6570 O   0  0  0  0  0  0  0  0  0  0  0  0
  -32.7840   11.7250  -18.0240 C   0  0  0  0  0  0  0  0  0  0  0  0
  -35.2080   10.8090  -18.1310 C   0  0  0  0  0  0  0  0  0  0  0  0
  -34.9920   10.8130  -19.6450 C   0  0  0  0  0  0  0  0  0  0  0  0
  -33.5650   11.0230  -20.1560 C   0  0  0  0  0  0  0  0  0  0  0  0
  -34.6020   12.1390  -20.2990 C   0  0  0  0  0  0  0  0  0  0  0  0
  -26.1500   13.8770  -20.8400 S   0  0  0  0  0  0  0  0  0  0  0  0
  -25.7360   12.5240  -20.7040 O   0  0  0  0  0  0  0  0  0  0  0  0
  -25.2350   14.9310  -21.1080 O   0  0  0  0  0  0  0  0  0  0  0  0
  -27.2750   13.9080  -22.0550 N   0  0  0  0  0  0  0  0  0  0  0  0
  -29.5300   13.5250  -21.2680 C   0  0  0  0  0  0  0  0  0  0  0  0
  -30.6530   12.7160  -21.1950 C   0  0  0  0  0  0  0  0  0  0  0  0
  -30.6620   11.4860  -21.8260 C   0  0  0  0  0  0  0  0  0  0  0  0
  -29.5510   11.0580  -22.5300 C   0  0  0  0  0  0  0  0  0  0  0  0
  -28.4300   11.8620  -22.6130 C   0  0  0  0  0  0  0  0  0  0  0  0
  -28.4120   13.0950  -21.9780 C   0  0  0  0  0  0  0  0  0  0  0  0
  -30.7850   15.3680  -20.4420 C   0  0  0  0  0  0  0  0  0  0  0  0
  -29.5210   14.7350  -20.6480 O   0  0  0  0  0  0  0  0  0  0  0  0
  -28.9260   15.3110  -15.8440 O   0  0  0  0  0  0  0  0  0  0  0  0
  -29.8580   15.4110  -15.8370 H   0  0  0  0  0  0  0  0  0  0  0  0
  1  6  2  0  0  0  0
  1  2  1  0  0  0  0
  2  3  2  0  0  0  0
  3  4  1  0  0  0  0
  4 33  1  0  0  0  0
  5  7  1  0  0  0  0
  5  4  2  0  0  0  0
  6  5  1  0  0  0  0
  7  8  1  0  0  0  0
  9  7  1  0  0  0  0
 10  9  2  0  0  0  0
 11  9  1  6  0  0  0
 11 12  1  0  0  0  0
 13 12  1  0  0  0  0
 13 15  2  0  0  0  0
 14 13  1  0  0  0  0
 16 14  1  0  0  0  0
 16 11  1  0  0  0  0
 17 14  1  0  0  0  0
 18 17  1  0  0  0  0
 19 18  1  0  0  0  0
 20 19  1  0  0  0  0
 20 18  1  0  0  0  0
 21 22  2  0  0  0  0
 21  1  1  0  0  0  0
 23 21  2  0  0  0  0
 24 30  1  0  0  0  0
 24 21  1  0  0  0  0
 25 26  1  0  0  0  0
 25 32  1  0  0  0  0
 27 26  2  0  0  0  0
 28 27  1  0  0  0  0
 29 28  2  0  0  0  0
 29 30  1  0  0  0  0
 30 25  2  0  0  0  0
 32 31  1  0  0  0  0
 33 34  1  0  0  0  0
M  END
>  <MODEL>
1

>  <REMARK>
 VINA RESULT:       2.6      0.000      0.000
  Name = ZINC28887676
                            x       y       z     vdW  Elec       q    Type
                         _______ _______ _______ _____ _____    ______ ____

>  <TORSDO>
F 9

>  <vina_score>
2.6

$$$$
ZINC25049844
 OpenBabel01091701573D

 35 37  0  0  0  0  0  0  0  0999 V2000
  -28.0400   15.5570  -18.7730 N   0  0  0  0  0  0  0  0  0  0  0  0
  -28.0540   16.5290  -18.9210 H   0  0  0  0  0  0  0  0  0  0  0  0
  -27.0260   14.8140  -19.2600 C   0  0  0  0  0  0  0  0  0  0  0  0
  -27.0090   13.6160  -19.0780 O   0  0  0  0  0  0  0  0  0  0  0  0
  -29.6970   13.8600  -18.5600 C   0  0  0  0  0  0  0  0  0  0  0  0
  -29.0740   14.9430  -18.0530 N   0  0  0  0  0  0  0  0  0  0  0  0
  -29.3460   15.3020  -17.1790 H   0  0  0  0  0  0  0  0  0  0  0  0
  -29.3610   13.4160  -19.6420 O   0  0  0  0  0  0  0  0  0  0  0  0
  -30.1110   10.8110  -18.1480 C   0  0  0  0  0  0  0  0  0  0  0  0
  -31.0210   11.8720  -17.5850 C   0  0  0  0  0  0  0  0  0  0  0  0
  -30.7750   13.2200  -17.8100 C   0  0  0  0  0  0  0  0  0  0  0  0
  -32.1490   13.9540  -16.9320 S   0  0  0  0  0  0  0  0  0  0  0  0
  -32.8760   12.4800  -16.3740 C   0  0  0  0  0  0  0  0  0  0  0  0
  -32.0670   11.5540  -16.8670 N   0  0  0  0  0  0  0  0  0  0  0  0
  -34.0130   12.3130  -15.6110 N   0  0  0  0  0  0  0  0  0  0  0  0
  -34.1140   13.3570  -14.5820 C   0  0  0  0  0  0  0  0  0  0  0  0
  -35.4170   13.1680  -13.7990 C   0  0  0  0  0  0  0  0  0  0  0  0
  -35.4440   11.8530  -13.2390 O   0  0  0  0  0  0  0  0  0  0  0  0
  -35.3480   10.8110  -14.2140 C   0  0  0  0  0  0  0  0  0  0  0  0
  -34.0450   10.9750  -15.0010 C   0  0  0  0  0  0  0  0  0  0  0  0
  -25.9140   15.4750  -20.0340 C   0  0  0  0  0  0  0  0  0  0  0  0
  -25.8130   14.8400  -21.4230 C   0  0  0  0  0  0  0  0  0  0  0  0
  -27.0140   15.2700  -22.2680 C   0  0  0  0  0  0  0  0  0  0  0  0
  -28.0800   14.2730  -22.1460 N   0  0  0  0  0  0  0  0  0  0  0  0
  -27.9210   13.3450  -22.4360 H   0  0  0  0  0  0  0  0  0  0  0  0
  -29.2770   14.6250  -21.6380 C   0  0  0  0  0  0  0  0  0  0  0  0
  -29.4740   15.7700  -21.2800 O   0  0  0  0  0  0  0  0  0  0  0  0
  -30.3510   13.6190  -21.5170 C   0  0  0  0  0  0  0  0  0  0  0  0
  -31.5520   13.9510  -20.8830 C   0  0  0  0  0  0  0  0  0  0  0  0
  -32.5530   13.0110  -20.7720 C   0  0  0  0  0  0  0  0  0  0  0  0
  -32.3680   11.7330  -21.2880 C   0  0  0  0  0  0  0  0  0  0  0  0
  -31.1750   11.3990  -21.9180 C   0  0  0  0  0  0  0  0  0  0  0  0
  -30.1700   12.3340  -22.0330 C   0  0  0  0  0  0  0  0  0  0  0  0
  -33.3560   10.8090  -21.1760 O   0  0  0  0  0  0  0  0  0  0  0  0
  -34.5720   11.2320  -20.5560 C   0  0  0  0  0  0  0  0  0  0  0  0
  1  6  1  0  0  0  0
  2  1  1  0  0  0  0
  3  4  2  0  0  0  0
  3  1  1  0  0  0  0
  5  6  1  0  0  0  0
  5 11  1  0  0  0  0
  6  7  1  0  0  0  0
  8  5  2  0  0  0  0
  9 10  1  0  0  0  0
 10 14  1  0  0  0  0
 11 10  2  0  0  0  0
 11 12  1  0  0  0  0
 12 13  1  0  0  0  0
 13 15  1  0  0  0  0
 14 13  2  0  0  0  0
 15 20  1  0  0  0  0
 15 16  1  0  0  0  0
 16 17  1  0  0  0  0
 17 18  1  0  0  0  0
 19 18  1  0  0  0  0
 20 19  1  0  0  0  0
 21  3  1  0  0  0  0
 22 21  1  0  0  0  0
 23 24  1  0  0  0  0
 23 22  1  0  0  0  0
 24 26  1  0  0  0  0
 25 24  1  0  0  0  0
 26 28  1  0  0  0  0
 26 27  2  0  0  0  0
 28 29  2  0  0  0  0
 29 30  1  0  0  0  0
 31 34  1  0  0  0  0
 31 30  2  0  0  0  0
 32 31  1  0  0  0  0
 33 32  2  0  0  0  0
 33 28  1  0  0  0  0
 34 35  1  0  0  0  0
M  END
>  <MODEL>
1

>  <REMARK>
 VINA RESULT:       3.2      0.000      0.000
  Name = ZINC25049844
                            x       y       z     vdW  Elec       q    Type
                         _______ _______ _______ _____ _____    ______ ____

>  <TORSDO>
F 9

>  <vina_score>
3.2

$$$$
ZINC15636405
 OpenBabel01091702143D

 36 39  0  0  1  0  0  0  0  0999 V2000
  -28.2770   12.8460  -18.8540 C   0  0  0  0  0  0  0  0  0  0  0  0
  -29.2400   11.9770  -18.9000 N   0  0  0  0  0  0  0  0  0  0  0  0
  -28.5940   16.2360  -16.3210 C   0  0  0  0  0  0  0  0  0  0  0  0
  -27.9030   16.3320  -17.5150 C   0  0  0  0  0  0  0  0  0  0  0  0
  -27.7950   15.2340  -18.3440 C   0  0  0  0  0  0  0  0  0  0  0  0
  -28.3870   14.0240  -17.9740 C   0  0  0  0  0  0  0  0  0  0  0  0
  -29.0900   13.9360  -16.7700 C   0  0  0  0  0  0  0  0  0  0  0  0
  -29.1840   15.0400  -15.9490 C   0  0  0  0  0  0  0  0  0  0  0  0
  -30.3240   12.0850  -18.0200 N   0  0  0  0  0  0  0  0  0  0  0  0
  -30.2130   12.5470  -17.1580 H   0  0  0  0  0  0  0  0  0  0  0  0
  -31.5180   11.5580  -18.3530 C   0  0  0  0  0  0  0  0  0  0  0  0
  -31.6550   10.9870  -19.4180 O   0  0  0  0  0  0  0  0  0  0  0  0
  -32.6620   11.6730  -17.4240 C   0  0  0  0  0  0  0  0  0  0  0  0
  -33.7480   10.8030  -17.5380 C   0  0  0  0  0  0  0  0  0  0  0  0
  -34.8110   10.9130  -16.6650 C   0  0  0  0  0  0  0  0  0  0  0  0
  -34.8070   11.8910  -15.6860 C   0  0  0  0  0  0  0  0  0  0  0  0
  -33.7340   12.7570  -15.5680 C   0  0  0  0  0  0  0  0  0  0  0  0
  -32.6620   12.6540  -16.4320 C   0  0  0  0  0  0  0  0  0  0  0  0
  -33.7360   13.7960  -14.5150 N   0  0  0  0  0  0  0  0  0  0  0  0
  -32.8710   14.6540  -14.5030 O   0  0  0  0  0  0  0  0  0  0  0  0
  -34.6020   13.7930  -13.6570 O   0  0  0  0  0  0  0  0  0  0  0  0
  -27.0450   12.6510  -19.7010 C   0  0  0  0  0  0  0  0  0  0  0  0
  -27.3970   12.8800  -21.1720 C   0  0  1  0  0  0  0  0  0  0  0  0
  -28.8780   12.6870  -21.3700 C   0  0  1  0  0  0  0  0  0  0  0  0
  -29.4730   11.7800  -22.1540 C   0  0  0  0  0  0  0  0  0  0  0  0
  -30.8510   11.9260  -22.1110 N   0  0  0  0  0  0  0  0  0  0  0  0
  -31.5260   11.2240  -22.2570 H   0  0  0  0  0  0  0  0  0  0  0  0
  -31.0950   13.3090  -21.8100 C   0  0  1  0  0  0  0  0  0  0  0  0
  -32.3700   13.7380  -21.1670 C   0  0  0  0  0  0  0  0  0  0  0  0
  -32.2690   14.8710  -20.4220 C   0  0  0  0  0  0  0  0  0  0  0  0
  -30.9870   15.6040  -20.3640 C   0  0  0  0  0  0  0  0  0  0  0  0
  -29.8260   14.9300  -20.5010 C   0  0  0  0  0  0  0  0  0  0  0  0
  -29.9780   13.4660  -20.7240 C   0  0  2  0  0  0  0  0  0  0  0  0
  -27.0150   14.2830  -21.5680 C   0  0  0  0  0  0  0  0  0  0  0  0
  -25.9560   14.8760  -20.9960 O   0  0  0  0  0  0  0  0  0  0  0  0
  -27.6610   14.8730  -22.4010 O   0  0  0  0  0  0  0  0  0  0  0  0
  1  6  1  0  0  0  0
  2  1  2  0  0  0  0
  2  9  1  0  0  0  0
  3  8  1  0  0  0  0
  4  3  2  0  0  0  0
  5  6  2  0  0  0  0
  5  4  1  0  0  0  0
  6  7  1  0  0  0  0
  7  8  2  0  0  0  0
  9 10  1  0  0  0  0
 11  9  1  0  0  0  0
 11 13  1  0  0  0  0
 12 11  2  0  0  0  0
 13 18  1  0  0  0  0
 14 13  2  0  0  0  0
 14 15  1  0  0  0  0
 15 16  2  0  0  0  0
 16 17  1  0  0  0  0
 17 19  1  0  0  0  0
 18 17  2  0  0  0  0
 19 20  2  0  0  0  0
 19 21  2  0  0  0  0
 22  1  1  0  0  0  0
 23 34  1  1  0  0  0
 23 22  1  0  0  0  0
 24 25  1  1  0  0  0
 24 23  1  0  0  0  0
 24 33  1  0  0  0  0
 25 26  1  0  0  0  0
 27 26  1  0  0  0  0
 28 26  1  1  0  0  0
 28 29  1  0  0  0  0
 28 33  1  0  0  0  0
 29 30  1  0  0  0  0
 30 31  1  0  0  0  0
 32 31  1  0  0  0  0
 33 32  1  6  0  0  0
 34 35  1  0  0  0  0
 36 34  2  0  0  0  0
M  END
>  <MODEL>
1

>  <REMARK>
 VINA RESULT:       6.0      0.000      0.000
  Name = ZINC15636405
                            x       y       z     vdW  Elec       q    Type
                         _______ _______ _______ _____ _____    ______ ____

>  <TORSDO>
F 8

>  <vina_score>
6.0

$$$$
ZINC23476760
 OpenBabel01091702013D

 36 39  0  0  1  0  0  0  0  0999 V2000
  -34.4590   14.2970  -19.2610 C   0  0  0  0  0  0  0  0  0  0  0  0
  -33.9030   12.8730  -19.3240 C   0  0  2  0  0  0  0  0  0  0  0  0
  -32.6040   12.8380  -20.1030 C   0  0  0  0  0  0  0  0  0  0  0  0
  -32.8340   12.0330  -21.1600 N   0  0  0  0  0  0  0  0  0  0  0  0
  -34.0850   11.5590  -21.1550 C   0  0  0  0  0  0  0  0  0  0  0  0
  -34.5270   10.8090  -22.0040 O   0  0  0  0  0  0  0  0  0  0  0  0
  -31.5720   13.4140  -19.8330 O   0  0  0  0  0  0  0  0  0  0  0  0
  -34.7990   12.0020  -20.1040 N   0  0  0  0  0  0  0  0  0  0  0  0
  -33.7030   12.3220  -17.9360 C   0  0  0  0  0  0  0  0  0  0  0  0
  -32.5020   11.7310  -17.5940 C   0  0  0  0  0  0  0  0  0  0  0  0
  -32.3150   11.2300  -16.3190 C   0  0  0  0  0  0  0  0  0  0  0  0
  -33.3390   11.3100  -15.3870 C   0  0  0  0  0  0  0  0  0  0  0  0
  -34.5450   11.8990  -15.7350 C   0  0  0  0  0  0  0  0  0  0  0  0
  -34.7260   12.4040  -17.0080 C   0  0  0  0  0  0  0  0  0  0  0  0
  -33.1590   10.8130  -14.1340 O   0  0  0  0  0  0  0  0  0  0  0  0
  -34.2880   10.8370  -13.2590 C   0  0  0  0  0  0  0  0  0  0  0  0
  -35.0350   12.1340  -13.4370 C   0  0  0  0  0  0  0  0  0  0  0  0
  -34.3560   13.2950  -13.5200 N   0  0  0  0  0  0  0  0  0  0  0  0
  -34.8430   14.1420  -13.6380 H   0  0  0  0  0  0  0  0  0  0  0  0
  -33.3730   13.2960  -13.4640 H   0  0  0  0  0  0  0  0  0  0  0  0
  -36.2450   12.1320  -13.5060 O   0  0  0  0  0  0  0  0  0  0  0  0
  -31.8370   11.7150  -22.1840 C   0  0  0  0  0  0  0  0  0  0  0  0
  -30.5210   12.2040  -21.7550 N   0  0  0  0  0  0  0  0  0  0  0  0
  -30.3580   11.8730  -20.8050 H   0  0  0  0  0  0  0  0  0  0  0  0
  -30.4870   13.6730  -21.7360 C   0  0  0  0  0  0  0  0  0  0  0  0
  -29.1280   14.1430  -21.2090 C   0  0  0  0  0  0  0  0  0  0  0  0
  -28.0620   13.6060  -22.0660 N   0  0  0  0  0  0  0  0  0  0  0  0
  -28.2240   13.9380  -23.0160 H   0  0  0  0  0  0  0  0  0  0  0  0
  -28.0960   12.1370  -22.0860 C   0  0  0  0  0  0  0  0  0  0  0  0
  -29.4540   11.6680  -22.6120 C   0  0  0  0  0  0  0  0  0  0  0  0
  -26.7450   14.0970  -21.6370 C   0  0  0  0  0  0  0  0  0  0  0  0
  -26.6050   13.9220  -20.1470 C   0  0  0  0  0  0  0  0  0  0  0  0
  -27.4670   14.5700  -19.2810 C   0  0  0  0  0  0  0  0  0  0  0  0
  -27.3170   14.3880  -17.9470 C   0  0  0  0  0  0  0  0  0  0  0  0
  -25.9160   13.2820  -17.8800 S   0  0  0  0  0  0  0  0  0  0  0  0
  -25.6300   13.1320  -19.6360 C   0  0  0  0  0  0  0  0  0  0  0  0
  2  1  1  1  0  0  0
  2  9  1  0  0  0  0
  3  7  2  0  0  0  0
  3  2  1  0  0  0  0
  4  5  1  0  0  0  0
  4  3  1  0  0  0  0
  5  8  1  0  0  0  0
  6  5  2  0  0  0  0
  8  2  1  0  0  0  0
  9 10  2  0  0  0  0
  9 14  1  0  0  0  0
 10 11  1  0  0  0  0
 11 12  2  0  0  0  0
 12 15  1  0  0  0  0
 13 12  1  0  0  0  0
 14 13  2  0  0  0  0
 15 16  1  0  0  0  0
 17 16  1  0  0  0  0
 18 20  1  0  0  0  0
 18 17  1  0  0  0  0
 19 18  1  0  0  0  0
 21 17  2  0  0  0  0
 22 23  1  0  0  0  0
 22  4  1  0  0  0  0
 23 25  1  0  0  0  0
 23 24  1  0  0  0  0
 25 26  1  0  0  0  0
 27 31  1  0  0  0  0
 27 26  1  0  0  0  0
 28 27  1  0  0  0  0
 29 27  1  0  0  0  0
 30 29  1  0  0  0  0
 30 23  1  0  0  0  0
 31 32  1  0  0  0  0
 32 36  2  0  0  0  0
 32 33  1  0  0  0  0
 33 34  2  0  0  0  0
 34 35  1  0  0  0  0
 36 35  1  0  0  0  0
M  END
>  <MODEL>
1

>  <REMARK>
 VINA RESULT:       6.2      0.000      0.000
  Name = ZINC23476760
                            x       y       z     vdW  Elec       q    Type
                         _______ _______ _______ _____ _____    ______ ____

>  <TORSDO>
F 8

>  <vina_score>
6.2

$$$$
ZINC11190076
 OpenBabel01091702063D

 36 38  0  0  1  0  0  0  0  0999 V2000
  -28.6340   14.8540  -21.7360 C   0  0  0  0  0  0  0  0  0  0  0  0
  -29.3190   13.7550  -22.1080 N   0  0  0  0  0  0  0  0  0  0  0  0
  -29.1020   13.3030  -22.9560 H   0  0  0  0  0  0  0  0  0  0  0  0
  -28.9560   15.4580  -20.7350 O   0  0  0  0  0  0  0  0  0  0  0  0
  -30.3400   13.2550  -21.2890 C   0  0  0  0  0  0  0  0  0  0  0  0
  -31.2990   14.1160  -20.7710 C   0  0  0  0  0  0  0  0  0  0  0  0
  -32.3050   13.6230  -19.9630 C   0  0  0  0  0  0  0  0  0  0  0  0
  -32.3560   12.2660  -19.6690 C   0  0  0  0  0  0  0  0  0  0  0  0
  -31.3930   11.4070  -20.1810 C   0  0  0  0  0  0  0  0  0  0  0  0
  -30.3920   11.8990  -20.9940 C   0  0  0  0  0  0  0  0  0  0  0  0
  -33.3760   11.7670  -18.8500 N   0  0  0  0  0  0  0  0  0  0  0  0
  -34.3110   11.7880  -19.1590 H   0  0  0  0  0  0  0  0  0  0  0  0
  -33.0790   11.2590  -17.6370 C   0  0  0  0  0  0  0  0  0  0  0  0
  -31.9220   11.1610  -17.2880 O   0  0  0  0  0  0  0  0  0  0  0  0
  -34.1850   10.8120  -16.7160 C   0  0  0  0  0  0  0  0  0  0  0  0
  -34.0720   11.5510  -15.4400 N   0  0  0  0  0  0  0  0  0  0  0  0
  -33.2060   11.2760  -14.9750 H   0  0  0  0  0  0  0  0  0  0  0  0
  -34.0390   13.0060  -15.6980 C   0  0  0  0  0  0  0  0  0  0  0  0
  -33.8850   13.7380  -14.3630 C   0  0  0  0  0  0  0  0  0  0  0  0
  -34.9660   13.3760  -13.4980 O   0  0  0  0  0  0  0  0  0  0  0  0
  -35.0490   11.9730  -13.2380 C   0  0  0  0  0  0  0  0  0  0  0  0
  -35.2150   11.2210  -14.5620 C   0  0  0  0  0  0  0  0  0  0  0  0
  -27.4680   15.3320  -22.5630 C   0  0  0  0  0  0  0  0  0  0  0  0
  -25.9290   14.6510  -21.8890 S   0  0  0  0  0  0  0  0  0  0  0  0
  -26.4750   13.2380  -20.8890 C   0  0  1  0  0  0  0  0  0  0  0  0
  -25.2680   12.3610  -20.5460 C   0  0  0  0  0  0  0  0  0  0  0  0
  -28.0450   12.9920  -18.9940 N   0  0  0  0  0  0  0  0  0  0  0  0
  -28.3100   12.1210  -19.3690 H   0  0  0  0  0  0  0  0  0  0  0  0
  -27.1120   13.7370  -19.6190 C   0  0  0  0  0  0  0  0  0  0  0  0
  -26.7850   14.8100  -19.1580 O   0  0  0  0  0  0  0  0  0  0  0  0
  -29.5270   15.8190  -15.1660 C   0  0  0  0  0  0  0  0  0  0  0  0
  -29.2790   14.6990  -16.1430 C   0  0  0  0  0  0  0  0  0  0  0  0
  -28.5430   14.7630  -17.2760 C   0  0  0  0  0  0  0  0  0  0  0  0
  -28.6340   13.4540  -17.8170 C   0  0  0  0  0  0  0  0  0  0  0  0
  -29.3860   12.7700  -16.9960 N   0  0  0  0  0  0  0  0  0  0  0  0
  -29.7470   13.4450  -16.0600 O   0  0  0  0  0  0  0  0  0  0  0  0
  1  4  2  0  0  0  0
  2  1  1  0  0  0  0
  2  5  1  0  0  0  0
  3  2  1  0  0  0  0
  5 10  2  0  0  0  0
  5  6  1  0  0  0  0
  6  7  2  0  0  0  0
  7  8  1  0  0  0  0
  8 11  1  0  0  0  0
  9  8  2  0  0  0  0
 10  9  1  0  0  0  0
 11 13  1  0  0  0  0
 12 11  1  0  0  0  0
 13 14  2  0  0  0  0
 13 15  1  0  0  0  0
 15 16  1  0  0  0  0
 16 17  1  0  0  0  0
 16 22  1  0  0  0  0
 18 16  1  0  0  0  0
 18 19  1  0  0  0  0
 19 20  1  0  0  0  0
 20 21  1  0  0  0  0
 22 21  1  0  0  0  0
 23 24  1  0  0  0  0
 23  1  1  0  0  0  0
 25 24  1  6  0  0  0
 25 26  1  0  0  0  0
 25 29  1  0  0  0  0
 27 34  1  0  0  0  0
 28 27  1  0  0  0  0
 29 30  2  0  0  0  0
 29 27  1  0  0  0  0
 32 36  1  0  0  0  0
 32 31  1  0  0  0  0
 33 32  2  0  0  0  0
 34 33  1  0  0  0  0
 34 35  2  0  0  0  0
 35 36  1  0  0  0  0
M  END
>  <MODEL>
1

>  <REMARK>
 VINA RESULT:       7.0      0.000      0.000
  Name = ZINC11190076
                            x       y       z     vdW  Elec       q    Type
                         _______ _______ _______ _____ _____    ______ ____

>  <TORSDO>
F 9

>  <vina_score>
7.0

$$$$
ZINC19925920
 OpenBabel01091702023D

 37 40  0  0  0  0  0  0  0  0999 V2000
  -33.4580   11.4520  -18.6620 C   0  0  0  0  0  0  0  0  0  0  0  0
  -34.0440   11.1040  -19.8520 C   0  0  0  0  0  0  0  0  0  0  0  0
  -35.3150   10.8130  -19.5750 N   0  0  0  0  0  0  0  0  0  0  0  0
  -35.5240   10.9620  -18.3160 N   0  0  0  0  0  0  0  0  0  0  0  0
  -34.4490   11.3380  -17.7170 N   0  0  0  0  0  0  0  0  0  0  0  0
  -34.3140   11.5890  -16.3490 C   0  0  0  0  0  0  0  0  0  0  0  0
  -33.7060   12.7820  -15.7520 C   0  0  0  0  0  0  0  0  0  0  0  0
  -33.7610   12.6630  -14.4540 N   0  0  0  0  0  0  0  0  0  0  0  0
  -34.3860   11.4280  -14.1560 O   0  0  0  0  0  0  0  0  0  0  0  0
  -34.7130   10.8060  -15.3860 N   0  0  0  0  0  0  0  0  0  0  0  0
  -33.1630   13.8540  -16.4490 N   0  0  0  0  0  0  0  0  0  0  0  0
  -32.6710   14.5570  -15.9670 H   0  0  0  0  0  0  0  0  0  0  0  0
  -33.2710   13.9120  -17.4260 H   0  0  0  0  0  0  0  0  0  0  0  0
  -31.0740   10.9460  -18.5350 N   0  0  0  0  0  0  0  0  0  0  0  0
  -31.2900    9.9970  -18.6860 H   0  0  0  0  0  0  0  0  0  0  0  0
  -32.0620   11.8580  -18.4430 C   0  0  0  0  0  0  0  0  0  0  0  0
  -31.7990   13.0150  -18.1780 O   0  0  0  0  0  0  0  0  0  0  0  0
  -29.3050   12.3750  -19.0810 C   0  0  0  0  0  0  0  0  0  0  0  0
  -29.7370   11.3480  -18.4150 N   0  0  0  0  0  0  0  0  0  0  0  0
  -25.8880   13.7090  -19.9200 C   0  0  0  0  0  0  0  0  0  0  0  0
  -25.2550   13.6030  -18.6920 C   0  0  0  0  0  0  0  0  0  0  0  0
  -25.9350   13.1010  -17.5960 C   0  0  0  0  0  0  0  0  0  0  0  0
  -27.2490   12.7010  -17.7160 C   0  0  0  0  0  0  0  0  0  0  0  0
  -27.9000   12.8020  -18.9490 C   0  0  0  0  0  0  0  0  0  0  0  0
  -27.2100   13.3040  -20.0580 C   0  0  0  0  0  0  0  0  0  0  0  0
  -25.9210   15.1050  -21.8460 C   0  0  0  0  0  0  0  0  0  0  0  0
  -25.2130   14.2040  -20.9920 O   0  0  0  0  0  0  0  0  0  0  0  0
  -27.8320   13.4000  -21.2630 O   0  0  0  0  0  0  0  0  0  0  0  0
  -27.7700   12.2570  -22.1180 C   0  0  0  0  0  0  0  0  0  0  0  0
  -33.3800   11.0580  -21.2050 C   0  0  0  0  0  0  0  0  0  0  0  0
  -32.7730   12.3630  -21.4980 N   0  0  0  0  0  0  0  0  0  0  0  0
  -33.0240   12.6150  -22.4540 H   0  0  0  0  0  0  0  0  0  0  0  0
  -31.3070   12.2920  -21.4160 C   0  0  0  0  0  0  0  0  0  0  0  0
  -30.7140   13.6540  -21.7850 C   0  0  0  0  0  0  0  0  0  0  0  0
  -31.2570   14.6550  -20.9210 O   0  0  0  0  0  0  0  0  0  0  0  0
  -32.6830   14.7520  -20.9760 C   0  0  0  0  0  0  0  0  0  0  0  0
  -33.2960   13.4010  -20.5990 C   0  0  0  0  0  0  0  0  0  0  0  0
  1 16  1  0  0  0  0
  1  5  1  0  0  0  0
  2  3  1  0  0  0  0
  2  1  2  0  0  0  0
  3  4  2  0  0  0  0
  4  5  1  0  0  0  0
  5  6  1  0  0  0  0
  6  7  1  0  0  0  0
  6 10  2  0  0  0  0
  7  8  2  0  0  0  0
  8  9  1  0  0  0  0
 10  9  1  0  0  0  0
 11 12  1  0  0  0  0
 11  7  1  0  0  0  0
 13 11  1  0  0  0  0
 14 16  1  0  0  0  0
 14 19  1  0  0  0  0
 15 14  1  0  0  0  0
 16 17  2  0  0  0  0
 18 24  1  0  0  0  0
 18 19  2  0  0  0  0
 20 21  1  0  0  0  0
 21 22  2  0  0  0  0
 23 22  1  0  0  0  0
 24 23  2  0  0  0  0
 25 20  2  0  0  0  0
 25 24  1  0  0  0  0
 26 27  1  0  0  0  0
 27 20  1  0  0  0  0
 28 25  1  0  0  0  0
 29 28  1  0  0  0  0
 30  2  1  0  0  0  0
 31 33  1  0  0  0  0
 31 30  1  0  0  0  0
 31 37  1  0  0  0  0
 32 31  1  0  0  0  0
 34 33  1  0  0  0  0
 34 35  1  0  0  0  0
 36 35  1  0  0  0  0
 36 37  1  0  0  0  0
M  END
>  <MODEL>
1

>  <REMARK>
 VINA RESULT:       8.4      0.000      0.000
  Name = ZINC19925920
                            x       y       z     vdW  Elec       q    Type
                         _______ _______ _______ _____ _____    ______ ____

>  <TORSDO>
F 9

>  <vina_score>
8.4

$$$$
ZINC13216929
 OpenBabel01091702043D

 29 30  0  0  0  0  0  0  0  0999 V2000
  -31.2700   12.6370  -18.1770 C   0  0  0  0  0  0  0  0  0  0  0  0
  -32.3490   11.8120  -18.4800 C   0  0  0  0  0  0  0  0  0  0  0  0
  -33.1740   11.3590  -17.4770 C   0  0  0  0  0  0  0  0  0  0  0  0
  -32.9270   11.7270  -16.1510 C   0  0  0  0  0  0  0  0  0  0  0  0
  -31.8460   12.5600  -15.8500 C   0  0  0  0  0  0  0  0  0  0  0  0
  -31.0210   13.0050  -16.8580 C   0  0  0  0  0  0  0  0  0  0  0  0
  -29.2420   12.5040  -19.4050 C   0  0  0  0  0  0  0  0  0  0  0  0
  -30.4360   13.0930  -19.1960 N   0  0  0  0  0  0  0  0  0  0  0  0
  -30.7200   13.8450  -19.7640 H   0  0  0  0  0  0  0  0  0  0  0  0
  -28.9330   11.5150  -18.7690 O   0  0  0  0  0  0  0  0  0  0  0  0
  -29.0220   11.6430  -22.3740 C   0  0  0  0  0  0  0  0  0  0  0  0
  -28.2200   12.6750  -21.7130 N   0  0  0  0  0  0  0  0  0  0  0  0
  -27.2490   13.4270  -22.2810 C   0  0  0  0  0  0  0  0  0  0  0  0
  -26.7670   14.2520  -21.3200 C   0  0  0  0  0  0  0  0  0  0  0  0
  -27.4310   14.0130  -20.1920 N   0  0  0  0  0  0  0  0  0  0  0  0
  -28.3120   13.0580  -20.4040 C   0  0  0  0  0  0  0  0  0  0  0  0
  -25.6890   15.2520  -21.4960 N   0  0  0  0  0  0  0  0  0  0  0  0
  -25.2150   15.8130  -20.5250 O   0  0  0  0  0  0  0  0  0  0  0  0
  -25.2770   15.5120  -22.6120 O   0  0  0  0  0  0  0  0  0  0  0  0
  -33.8100   11.2420  -15.0720 C   0  0  0  0  0  0  0  0  0  0  0  0
  -35.1480   11.2870  -15.2250 N   0  0  0  0  0  0  0  0  0  0  0  0
  -35.5360   11.6390  -16.0580 H   0  0  0  0  0  0  0  0  0  0  0  0
  -33.3290   10.8080  -14.0430 O   0  0  0  0  0  0  0  0  0  0  0  0
  -36.0240   10.8100  -14.1520 C   0  0  0  0  0  0  0  0  0  0  0  0
  -36.3960   11.9800  -13.2390 C   0  0  0  0  0  0  0  0  0  0  0  0
  -35.5160   13.1260  -13.5470 N   0  0  0  0  0  0  0  0  0  0  0  0
  -35.7920   13.9210  -12.9710 H   0  0  0  0  0  0  0  0  0  0  0  0
  -35.6490   13.4970  -14.9720 C   0  0  0  0  0  0  0  0  0  0  0  0
  -34.1110   12.7790  -13.2440 C   0  0  0  0  0  0  0  0  0  0  0  0
  1  6  1  0  0  0  0
  2  1  2  0  0  0  0
  2  3  1  0  0  0  0
  3  4  2  0  0  0  0
  4  5  1  0  0  0  0
  4 20  1  0  0  0  0
  6  5  2  0  0  0  0
  7  8  1  0  0  0  0
  7 10  2  0  0  0  0
  8  1  1  0  0  0  0
  9  8  1  0  0  0  0
 11 12  1  0  0  0  0
 12 16  1  0  0  0  0
 13 12  1  0  0  0  0
 13 14  2  0  0  0  0
 14 15  1  0  0  0  0
 16 15  2  0  0  0  0
 16  7  1  0  0  0  0
 17 14  1  0  0  0  0
 17 18  2  0  0  0  0
 19 17  2  0  0  0  0
 20 23  2  0  0  0  0
 21 20  1  0  0  0  0
 21 24  1  0  0  0  0
 22 21  1  0  0  0  0
 24 25  1  0  0  0  0
 26 29  1  0  0  0  0
 26 25  1  0  0  0  0
 26 27  1  0  0  0  0
 28 26  1  0  0  0  0
M  END
>  <MODEL>
1

>  <REMARK>
 VINA RESULT:      10.2      0.000      0.000
  Name = ZINC13216929
                            x       y       z     vdW  Elec       q    Type
                         _______ _______ _______ _____ _____    ______ ____

>  <TORSDO>
F 7

>  <vina_score>
10.2

$$$$
ZINC20573659
 OpenBabel01091701533D

 37 40  0  0  0  0  0  0  0  0999 V2000
  -32.8750   11.5270  -20.3770 C   0  0  0  0  0  0  0  0  0  0  0  0
  -33.3280   11.3710  -19.1170 N   0  0  0  0  0  0  0  0  0  0  0  0
  -32.4580   10.8110  -18.0730 C   0  0  0  0  0  0  0  0  0  0  0  0
  -32.4280   11.7760  -16.8840 C   0  0  0  0  0  0  0  0  0  0  0  0
  -33.8580   12.0630  -16.4280 C   0  0  0  0  0  0  0  0  0  0  0  0
  -33.8340   12.9840  -15.2340 C   0  0  0  0  0  0  0  0  0  0  0  0
  -34.6100   12.8000  -14.1410 C   0  0  0  0  0  0  0  0  0  0  0  0
  -35.5860   11.6590  -13.9970 C   0  0  0  0  0  0  0  0  0  0  0  0
  -35.8100   11.0520  -15.3890 C   0  0  0  0  0  0  0  0  0  0  0  0
  -34.3250   13.8050  -13.2730 N   0  0  0  0  0  0  0  0  0  0  0  0
  -34.7280   13.9440  -12.3860 H   0  0  0  0  0  0  0  0  0  0  0  0
  -33.3830   14.5790  -13.8600 C   0  0  0  0  0  0  0  0  0  0  0  0
  -33.0970   14.0780  -15.0350 N   0  0  0  0  0  0  0  0  0  0  0  0
  -34.6440   12.7170  -17.5650 C   0  0  0  0  0  0  0  0  0  0  0  0
  -34.5120   10.8060  -16.0350 N   0  0  0  0  0  0  0  0  0  0  0  0
  -34.6740   10.2530  -16.8760 H   0  0  0  0  0  0  0  0  0  0  0  0
  -33.9070   10.3070  -15.3830 H   0  0  0  0  0  0  0  0  0  0  0  0
  -34.6990   11.7590  -18.7600 C   0  0  0  0  0  0  0  0  0  0  0  0
  -31.7410   11.2010  -20.6590 O   0  0  0  0  0  0  0  0  0  0  0  0
  -33.7800   12.1030  -21.4360 C   0  0  0  0  0  0  0  0  0  0  0  0
  -33.2340   13.4580  -21.8900 C   0  0  0  0  0  0  0  0  0  0  0  0
  -31.5670   14.3630  -20.3600 C   0  0  0  0  0  0  0  0  0  0  0  0
  -31.8480   13.6030  -21.4360 N   0  0  0  0  0  0  0  0  0  0  0  0
  -31.1220   13.1440  -21.9180 H   0  0  0  0  0  0  0  0  0  0  0  0
  -32.4640   14.9290  -19.7650 O   0  0  0  0  0  0  0  0  0  0  0  0
  -28.5940   15.1170  -18.1900 C   0  0  0  0  0  0  0  0  0  0  0  0
  -29.9020   14.9810  -18.6160 C   0  0  0  0  0  0  0  0  0  0  0  0
  -30.1710   14.5090  -19.9020 C   0  0  0  0  0  0  0  0  0  0  0  0
  -29.1170   14.1690  -20.7540 C   0  0  0  0  0  0  0  0  0  0  0  0
  -27.8110   14.3120  -20.3250 C   0  0  0  0  0  0  0  0  0  0  0  0
  -27.5440   14.7820  -19.0430 C   0  0  0  0  0  0  0  0  0  0  0  0
  -29.2220   15.1720  -15.8970 C   0  0  0  0  0  0  0  0  0  0  0  0
  -28.3310   15.5770  -16.9380 O   0  0  0  0  0  0  0  0  0  0  0  0
  -26.7840   13.9860  -21.1570 O   0  0  0  0  0  0  0  0  0  0  0  0
  -26.3660   12.6200  -21.1690 C   0  0  0  0  0  0  0  0  0  0  0  0
  -26.2600   14.9150  -18.6220 O   0  0  0  0  0  0  0  0  0  0  0  0
  -25.6970   13.8200  -17.8960 C   0  0  0  0  0  0  0  0  0  0  0  0
  1  2  1  0  0  0  0
  2 18  1  0  0  0  0
  2  3  1  0  0  0  0
  3  4  1  0  0  0  0
  4  5  1  0  0  0  0
  5 15  1  0  0  0  0
  5  6  1  0  0  0  0
  6 13  1  0  0  0  0
  6  7  2  0  0  0  0
  7  8  1  0  0  0  0
  7 10  1  0  0  0  0
  9  8  1  0  0  0  0
 10 11  1  0  0  0  0
 12 10  1  0  0  0  0
 13 12  2  0  0  0  0
 14  5  1  0  0  0  0
 15  9  1  0  0  0  0
 15 17  1  0  0  0  0
 16 15  1  0  0  0  0
 18 14  1  0  0  0  0
 19  1  2  0  0  0  0
 20  1  1  0  0  0  0
 21 23  1  0  0  0  0
 21 20  1  0  0  0  0
 22 28  1  0  0  0  0
 22 25  2  0  0  0  0
 23 22  1  0  0  0  0
 24 23  1  0  0  0  0
 26 33  1  0  0  0  0
 27 26  1  0  0  0  0
 28 27  2  0  0  0  0
 29 30  2  0  0  0  0
 29 28  1  0  0  0  0
 30 31  1  0  0  0  0
 31 36  1  0  0  0  0
 31 26  2  0  0  0  0
 33 32  1  0  0  0  0
 34 30  1  0  0  0  0
 35 34  1  0  0  0  0
 36 37  1  0  0  0  0
M  END
>  <MODEL>
1

>  <REMARK>
 VINA RESULT:      11.2      0.000      0.000
  Name = ZINC20573659
                            x       y       z     vdW  Elec       q    Type
                         _______ _______ _______ _____ _____    ______ ____

>  <TORSDO>
F 7

>  <vina_score>
11.2

$$$$
