ZINC32067408
 OpenBabel01091701463D

 30 32  0  0  1  0  0  0  0  0999 V2000
    9.3980   11.7960    1.3460 C   0  0  0  0  0  0  0  0  0  0  0  0
    8.4330   11.8900    0.3840 C   0  0  0  0  0  0  0  0  0  0  0  0
    8.9340   12.8520   -0.6040 C   0  0  0  0  0  0  0  0  0  0  0  0
    8.4220   13.4120   -1.8560 C   0  0  0  0  0  0  0  0  0  0  0  0
    9.2260   14.3250   -2.5140 N   0  0  0  0  0  0  0  0  0  0  0  0
   10.4330   14.6590   -1.9870 C   0  0  0  0  0  0  0  0  0  0  0  0
   10.8830   14.1600   -0.8750 N   0  0  0  0  0  0  0  0  0  0  0  0
    7.2510   13.0620   -2.3320 N   0  0  0  0  0  0  0  0  0  0  0  0
    6.6950   12.4100   -1.8460 H   0  0  0  0  0  0  0  0  0  0  0  0
   10.1870   13.2650   -0.1510 C   0  0  2  0  0  0  0  0  0  0  0  0
   10.4370   12.6080    1.0230 N   0  0  0  0  0  0  0  0  0  0  0  0
    7.1480   11.1740    0.3470 C   0  0  0  0  0  0  0  0  0  0  0  0
    6.8320   10.4120   -0.7180 N   0  0  0  0  0  0  0  0  0  0  0  0
    5.9700    9.9350   -0.7430 H   0  0  0  0  0  0  0  0  0  0  0  0
    7.4620   10.3290   -1.4690 H   0  0  0  0  0  0  0  0  0  0  0  0
    6.3690   11.2770    1.2760 O   0  0  0  0  0  0  0  0  0  0  0  0
   11.6540   12.7620    1.8230 C   0  0  1  0  0  0  0  0  0  0  0  0
   11.3030   12.9050    3.3270 C   0  0  1  0  0  0  0  0  0  0  0  0
   12.6060   12.4210    4.0090 C   0  0  1  0  0  0  0  0  0  0  0  0
   13.3100   11.5790    2.9270 C   0  0  2  0  0  0  0  0  0  0  0  0
   12.4530   11.5610    1.7720 O   0  0  0  0  0  0  0  0  0  0  0  0
   11.0300   14.2670    3.6600 O   0  0  0  0  0  0  0  0  0  0  0  0
   10.7440   14.3230    4.5850 H   0  0  0  0  0  0  0  0  0  0  0  0
   13.4190   13.5350    4.3840 O   0  0  0  0  0  0  0  0  0  0  0  0
   14.0400   13.7370    3.6670 H   0  0  0  0  0  0  0  0  0  0  0  0
   13.5300   10.1540    3.4370 C   0  0  0  0  0  0  0  0  0  0  0  0
   14.1700   10.1980    4.7140 O   0  0  0  0  0  0  0  0  0  0  0  0
   14.6920   11.0140    4.7870 H   0  0  0  0  0  0  0  0  0  0  0  0
    8.7950   14.9080   -3.7310 O   0  0  0  0  0  0  0  0  0  0  0  0
    9.0520   14.5280   -4.5490 H   0  0  0  0  0  0  0  0  0  0  0  0
  2  1  2  0  0  0  0
  3 10  1  0  0  0  0
  3  2  1  0  0  0  0
  4  3  2  0  0  0  0
  5  6  1  0  0  0  0
  5  4  1  0  0  0  0
  6  7  2  0  0  0  0
  8  4  1  0  0  0  0
  8  9  1  0  0  0  0
 10  7  1  6  0  0  0
 10 11  1  0  0  0  0
 11  1  1  0  0  0  0
 12  2  1  0  0  0  0
 12 16  2  0  0  0  0
 13 12  1  0  0  0  0
 14 13  1  0  0  0  0
 15 13  1  0  0  0  0
 17 11  1  6  0  0  0
 17 18  1  0  0  0  0
 18 22  1  6  0  0  0
 18 19  1  0  0  0  0
 19 24  1  6  0  0  0
 20 26  1  1  0  0  0
 20 19  1  0  0  0  0
 21 17  1  0  0  0  0
 21 20  1  0  0  0  0
 22 23  1  0  0  0  0
 25 24  1  0  0  0  0
 26 27  1  0  0  0  0
 27 28  1  0  0  0  0
 29  5  1  0  0  0  0
 30 29  1  0  0  0  0
M  END
>  <MODEL>
1

>  <REMARK>
 VINA RESULT:      -7.6      0.000      0.000
  Name = ZINC32067408
                            x       y       z     vdW  Elec       q    Type
                         _______ _______ _______ _____ _____    ______ ____

>  <TORSDO>
F 7

>  <vina_score>
-7.6

$$$$
ZINC03627636
 OpenBabel01091701453D

 29 30  0  0  0  0  0  0  0  0999 V2000
    8.7940   12.8420    0.0650 C   0  0  0  0  0  0  0  0  0  0  0  0
    8.1090   12.6740   -1.1050 C   0  0  0  0  0  0  0  0  0  0  0  0
    7.1090   11.8010   -0.8920 N   0  0  0  0  0  0  0  0  0  0  0  0
    7.1300   11.4120    0.3350 N   0  0  0  0  0  0  0  0  0  0  0  0
    8.1960   12.0520    0.9840 N   0  0  0  0  0  0  0  0  0  0  0  0
    8.5660   11.9040    2.3250 C   0  0  0  0  0  0  0  0  0  0  0  0
    8.5660   12.9640    3.3370 C   0  0  0  0  0  0  0  0  0  0  0  0
    8.9640   12.4530    4.4690 N   0  0  0  0  0  0  0  0  0  0  0  0
    9.2390   11.0790    4.2500 O   0  0  0  0  0  0  0  0  0  0  0  0
    8.9730   10.8010    2.8870 N   0  0  0  0  0  0  0  0  0  0  0  0
    8.1990   14.2890    3.1280 N   0  0  0  0  0  0  0  0  0  0  0  0
    8.0890   14.8960    3.8950 H   0  0  0  0  0  0  0  0  0  0  0  0
    8.0490   14.6200    2.2130 H   0  0  0  0  0  0  0  0  0  0  0  0
    8.4130   13.3430   -2.3850 C   0  0  0  0  0  0  0  0  0  0  0  0
    8.9350   12.6360   -3.4070 N   0  0  0  0  0  0  0  0  0  0  0  0
    9.1130   11.6730   -3.2990 H   0  0  0  0  0  0  0  0  0  0  0  0
    8.1930   14.5310   -2.5170 O   0  0  0  0  0  0  0  0  0  0  0  0
    9.2170   13.2540   -4.5920 N   0  0  0  0  0  0  0  0  0  0  0  0
    8.3640   13.3330   -5.1450 H   0  0  0  0  0  0  0  0  0  0  0  0
    9.5910   14.1860   -4.4080 H   0  0  0  0  0  0  0  0  0  0  0  0
    9.9870   13.7350    0.2880 C   0  0  0  0  0  0  0  0  0  0  0  0
   11.2200   12.9500    0.1400 N   0  0  0  0  0  0  0  0  0  0  0  0
   10.9810   11.9660    0.2620 H   0  0  0  0  0  0  0  0  0  0  0  0
   11.7890   13.1140   -1.2040 C   0  0  0  0  0  0  0  0  0  0  0  0
   11.6560   15.3450   -2.3200 C   0  0  0  0  0  0  0  0  0  0  0  0
   12.4380   14.4950   -1.3180 C   0  0  0  0  0  0  0  0  0  0  0  0
   12.2000   13.3090    1.1740 C   0  0  0  0  0  0  0  0  0  0  0  0
   12.2730   12.1920    2.2170 C   0  0  0  0  0  0  0  0  0  0  0  0
   12.5260   12.8000    3.5980 C   0  0  0  0  0  0  0  0  0  0  0  0
  1 21  1  0  0  0  0
  1  5  1  0  0  0  0
  2  3  1  0  0  0  0
  2  1  2  0  0  0  0
  3  4  2  0  0  0  0
  4  5  1  0  0  0  0
  5  6  1  0  0  0  0
  6 10  2  0  0  0  0
  6  7  1  0  0  0  0
  7  8  2  0  0  0  0
  9  8  1  0  0  0  0
 10  9  1  0  0  0  0
 11  7  1  0  0  0  0
 11 12  1  0  0  0  0
 13 11  1  0  0  0  0
 14  2  1  0  0  0  0
 15 16  1  0  0  0  0
 15 14  1  0  0  0  0
 17 14  2  0  0  0  0
 18 20  1  0  0  0  0
 18 15  1  0  0  0  0
 19 18  1  0  0  0  0
 22 23  1  0  0  0  0
 22 21  1  0  0  0  0
 22 27  1  0  0  0  0
 24 22  1  0  0  0  0
 25 26  1  0  0  0  0
 26 24  1  0  0  0  0
 27 28  1  0  0  0  0
 28 29  1  0  0  0  0
M  END
>  <MODEL>
1

>  <REMARK>
 VINA RESULT:      -7.3      0.000      0.000
  Name = ZINC03627636
                            x       y       z     vdW  Elec       q    Type
                         _______ _______ _______ _____ _____    ______ ____

>  <TORSDO>
F 10

>  <vina_score>
-7.3

$$$$
ZINC09287414
 OpenBabel01091701443D

 27 28  0  0  1  0  0  0  0  0999 V2000
   10.4820   10.9440    3.4010 C   0  0  1  0  0  0  0  0  0  0  0  0
    9.0760   11.5050    3.5680 C   0  0  0  0  0  0  0  0  0  0  0  0
    8.3160   11.3620    2.5130 N   0  0  0  0  0  0  0  0  0  0  0  0
    8.7050   10.7860    1.3880 C   0  0  0  0  0  0  0  0  0  0  0  0
    8.6940   12.0390    4.5900 O   0  0  0  0  0  0  0  0  0  0  0  0
   10.3500   10.3100    1.6810 S   0  0  0  0  0  0  0  0  0  0  0  0
    7.9710   10.5990    0.2470 N   0  0  0  0  0  0  0  0  0  0  0  0
    7.7770    9.6870   -0.0690 H   0  0  0  0  0  0  0  0  0  0  0  0
    7.5050   11.6900   -0.4600 C   0  0  0  0  0  0  0  0  0  0  0  0
    7.7930   12.8880    0.0230 N   0  0  0  0  0  0  0  0  0  0  0  0
    7.4820   13.6950   -0.4460 H   0  0  0  0  0  0  0  0  0  0  0  0
    8.3190   12.9720    0.8510 H   0  0  0  0  0  0  0  0  0  0  0  0
    6.7750   11.5020   -1.6090 N   0  0  0  0  0  0  0  0  0  0  0  0
    7.0670   11.9220   -2.4510 H   0  0  0  0  0  0  0  0  0  0  0  0
    5.9630   10.9470   -1.5920 H   0  0  0  0  0  0  0  0  0  0  0  0
   11.5410   12.0430    3.5160 C   0  0  0  0  0  0  0  0  0  0  0  0
   10.8540   13.4150    1.5760 N   0  0  0  0  0  0  0  0  0  0  0  0
    9.9730   13.5230    2.0030 H   0  0  0  0  0  0  0  0  0  0  0  0
   11.7930   12.6410    2.1560 C   0  0  0  0  0  0  0  0  0  0  0  0
   12.8400   12.4280    1.5830 O   0  0  0  0  0  0  0  0  0  0  0  0
    9.7280   15.9930    1.1470 C   0  0  0  0  0  0  0  0  0  0  0  0
   10.6010   15.3230    0.1180 C   0  0  0  0  0  0  0  0  0  0  0  0
   10.8810   15.9640   -1.0740 C   0  0  0  0  0  0  0  0  0  0  0  0
   11.6780   15.3470   -2.0220 C   0  0  0  0  0  0  0  0  0  0  0  0
   12.2020   14.0910   -1.7770 C   0  0  0  0  0  0  0  0  0  0  0  0
   11.9300   13.4480   -0.5850 C   0  0  0  0  0  0  0  0  0  0  0  0
   11.1310   14.0650    0.3670 C   0  0  0  0  0  0  0  0  0  0  0  0
  1 16  1  6  0  0  0
  1  2  1  0  0  0  0
  2  5  2  0  0  0  0
  3  2  1  0  0  0  0
  4  6  1  0  0  0  0
  4  3  2  0  0  0  0
  6  1  1  0  0  0  0
  7  4  1  0  0  0  0
  8  7  1  0  0  0  0
  9 10  1  0  0  0  0
  9  7  1  0  0  0  0
 10 12  1  0  0  0  0
 11 10  1  0  0  0  0
 13 15  1  0  0  0  0
 13  9  2  0  0  0  0
 14 13  1  0  0  0  0
 17 18  1  0  0  0  0
 17 19  1  0  0  0  0
 19 16  1  0  0  0  0
 20 19  2  0  0  0  0
 22 27  1  0  0  0  0
 22 21  1  0  0  0  0
 23 22  2  0  0  0  0
 24 25  2  0  0  0  0
 24 23  1  0  0  0  0
 25 26  1  0  0  0  0
 26 27  2  0  0  0  0
 27 17  1  0  0  0  0
M  END
>  <MODEL>
1

>  <REMARK>
 VINA RESULT:      -7.3      0.000      0.000
  Name = ZINC09287414
                            x       y       z     vdW  Elec       q    Type
                         _______ _______ _______ _____ _____    ______ ____

>  <TORSDO>
F 6

>  <vina_score>
-7.3

$$$$
ZINC27646493
 OpenBabel01091701323D

 28 29  0  0  1  0  0  0  0  0999 V2000
   10.1660   13.1530   -3.2720 C   0  0  0  0  0  0  0  0  0  0  0  0
   11.3510   13.5250   -2.3770 C   0  0  0  0  0  0  0  0  0  0  0  0
   11.2360   12.7850   -1.0430 C   0  0  0  0  0  0  0  0  0  0  0  0
    9.7330   16.1580    0.7190 C   0  0  0  0  0  0  0  0  0  0  0  0
    9.7110   14.9990    1.6820 C   0  0  2  0  0  0  0  0  0  0  0  0
    9.8430   13.6740    0.8690 C   0  0  2  0  0  0  0  0  0  0  0  0
    9.6760   12.7400    1.9600 N   0  0  0  0  0  0  0  0  0  0  0  0
   10.1090   11.8610    2.0560 H   0  0  0  0  0  0  0  0  0  0  0  0
    8.8040   13.3170    2.8200 C   0  0  0  0  0  0  0  0  0  0  0  0
    8.2350   12.7200    3.7130 O   0  0  0  0  0  0  0  0  0  0  0  0
   11.1550   13.8000    0.0980 C   0  0  2  0  0  0  0  0  0  0  0  0
    8.6500   14.6560    2.5830 N   0  0  0  0  0  0  0  0  0  0  0  0
    7.9600   15.2540    2.9520 H   0  0  0  0  0  0  0  0  0  0  0  0
   10.9390   15.5290   -0.5420 S   0  0  0  0  0  0  0  0  0  0  0  0
    9.0550   14.1900   -3.1040 C   0  0  0  0  0  0  0  0  0  0  0  0
    7.9060   13.5780   -2.3450 C   0  0  0  0  0  0  0  0  0  0  0  0
    7.7640   12.2390   -2.3010 N   0  0  0  0  0  0  0  0  0  0  0  0
    8.4120   11.6600   -2.7650 H   0  0  0  0  0  0  0  0  0  0  0  0
    7.1080   14.2910   -1.7730 O   0  0  0  0  0  0  0  0  0  0  0  0
    6.6960   11.6700   -1.5950 N   0  0  0  0  0  0  0  0  0  0  0  0
    5.7780   11.7530   -1.9390 H   0  0  0  0  0  0  0  0  0  0  0  0
    6.9260   11.0090   -0.4420 C   0  0  0  0  0  0  0  0  0  0  0  0
    8.0580   10.9070   -0.0170 O   0  0  0  0  0  0  0  0  0  0  0  0
    5.7780   10.3980    0.3170 C   0  0  0  0  0  0  0  0  0  0  0  0
    5.7840   10.8820    1.6620 O   0  0  0  0  0  0  0  0  0  0  0  0
    6.8230   10.2890    2.5050 N   0  0  0  0  0  0  0  0  0  0  0  0
    7.6070    9.9980    1.9210 H   0  0  0  0  0  0  0  0  0  0  0  0
    7.1420   10.9770    3.1860 H   0  0  0  0  0  0  0  0  0  0  0  0
  1 15  1  0  0  0  0
  1  2  1  0  0  0  0
  2  3  1  0  0  0  0
  5  4  1  6  0  0  0
  5 12  1  0  0  0  0
  6  5  1  0  0  0  0
  6  7  1  1  0  0  0
  7  8  1  0  0  0  0
  7  9  1  0  0  0  0
  9 10  2  0  0  0  0
 11  3  1  6  0  0  0
 11  6  1  0  0  0  0
 12  9  1  0  0  0  0
 12 13  1  0  0  0  0
 14 11  1  0  0  0  0
 14  4  1  0  0  0  0
 15 16  1  0  0  0  0
 16 17  1  0  0  0  0
 16 19  2  0  0  0  0
 17 20  1  0  0  0  0
 18 17  1  0  0  0  0
 20 22  1  0  0  0  0
 21 20  1  0  0  0  0
 22 23  2  0  0  0  0
 22 24  1  0  0  0  0
 24 25  1  0  0  0  0
 25 26  1  0  0  0  0
 26 28  1  0  0  0  0
 27 26  1  0  0  0  0
M  END
>  <MODEL>
1

>  <REMARK>
 VINA RESULT:      -7.3      0.000      0.000
  Name = ZINC27646493
                            x       y       z     vdW  Elec       q    Type
                         _______ _______ _______ _____ _____    ______ ____

>  <TORSDO>
F 9

>  <vina_score>
-7.3

$$$$
ZINC04226596
 OpenBabel01091701413D

 23 24  0  0  1  0  0  0  0  0999 V2000
    9.8660   12.2120    1.0300 C   0  0  1  0  0  0  0  0  0  0  0  0
    8.6600   11.5380    0.9010 C   0  0  0  0  0  0  0  0  0  0  0  0
    7.9780   11.5780   -0.3060 C   0  0  0  0  0  0  0  0  0  0  0  0
    8.3990   12.2420   -1.4090 N   0  0  0  0  0  0  0  0  0  0  0  0
    7.8830   12.2440   -2.2480 H   0  0  0  0  0  0  0  0  0  0  0  0
    9.5920   12.9140   -1.2860 C   0  0  0  0  0  0  0  0  0  0  0  0
   10.0770   13.6250   -2.4150 C   0  0  0  0  0  0  0  0  0  0  0  0
   11.2800   14.3130   -2.3190 C   0  0  0  0  0  0  0  0  0  0  0  0
   12.0050   14.3100   -1.1370 C   0  0  0  0  0  0  0  0  0  0  0  0
   11.5580   13.6330   -0.0390 C   0  0  0  0  0  0  0  0  0  0  0  0
    6.6720   10.8390   -0.4340 C   0  0  0  0  0  0  0  0  0  0  0  0
   10.3490   12.9260   -0.0920 C   0  0  0  0  0  0  0  0  0  0  0  0
    9.3120   13.6340   -3.6730 C   0  0  0  0  0  0  0  0  0  0  0  0
    9.2400   12.5170   -4.4240 O   0  0  0  0  0  0  0  0  0  0  0  0
    8.7470   14.6470   -4.0340 O   0  0  0  0  0  0  0  0  0  0  0  0
   10.5710   12.1910    2.2230 N   0  0  0  0  0  0  0  0  0  0  0  0
   11.3100   11.5520    2.3470 H   0  0  0  0  0  0  0  0  0  0  0  0
   10.2180   13.1210    3.2990 C   0  0  1  0  0  0  0  0  0  0  0  0
    9.4410   15.3660    2.5310 C   0  0  0  0  0  0  0  0  0  0  0  0
    8.9990   13.9450    2.8810 C   0  0  0  0  0  0  0  0  0  0  0  0
    9.8900   12.3310    4.5670 C   0  0  0  0  0  0  0  0  0  0  0  0
    8.5020   12.4730    4.8720 O   0  0  0  0  0  0  0  0  0  0  0  0
    8.2230   11.7490    5.4540 H   0  0  0  0  0  0  0  0  0  0  0  0
  1 16  1  1  0  0  0
  2  1  1  0  0  0  0
  3  2  2  0  0  0  0
  4  6  1  0  0  0  0
  4  3  1  0  0  0  0
  5  4  1  0  0  0  0
  6 12  2  0  0  0  0
  7  8  2  0  0  0  0
  7  6  1  0  0  0  0
  8  9  1  0  0  0  0
  9 10  2  0  0  0  0
 11  3  1  0  0  0  0
 12 10  1  0  0  0  0
 12  1  1  0  0  0  0
 13  7  1  0  0  0  0
 14 13  2  0  0  0  0
 15 13  1  0  0  0  0
 16 17  1  0  0  0  0
 18 16  1  6  0  0  0
 18 21  1  0  0  0  0
 19 20  1  0  0  0  0
 20 18  1  0  0  0  0
 21 22  1  0  0  0  0
 22 23  1  0  0  0  0
M  END
>  <MODEL>
1

>  <REMARK>
 VINA RESULT:      -7.2      0.000      0.000
  Name = ZINC04226596
                            x       y       z     vdW  Elec       q    Type
                         _______ _______ _______ _____ _____    ______ ____

>  <TORSDO>
F 6

>  <vina_score>
-7.2

$$$$
ZINC05114539
 OpenBabel01091701413D

 30 32  0  0  1  0  0  0  0  0999 V2000
   10.2290   15.3870   -2.1320 C   0  0  0  0  0  0  0  0  0  0  0  0
   10.5920   13.9330   -2.4370 C   0  0  1  0  0  0  0  0  0  0  0  0
   11.5100   13.3980   -1.3510 C   0  0  0  0  0  0  0  0  0  0  0  0
   10.8850   12.9720   -0.0960 C   0  0  0  0  0  0  0  0  0  0  0  0
    9.5040   12.7210    0.0020 C   0  0  0  0  0  0  0  0  0  0  0  0
    8.6110   12.8830   -1.1680 C   0  0  0  0  0  0  0  0  0  0  0  0
    7.4000   12.8530   -1.0820 O   0  0  0  0  0  0  0  0  0  0  0  0
    9.2530   12.3360    1.3150 C   0  0  0  0  0  0  0  0  0  0  0  0
   10.4420   12.3670    1.9810 C   0  0  0  0  0  0  0  0  0  0  0  0
   11.0140   12.1180    3.3630 C   0  0  2  0  0  0  0  0  0  0  0  0
   12.3970   12.8060    3.3320 C   0  0  2  0  0  0  0  0  0  0  0  0
   12.7320   12.7700    1.8240 C   0  0  0  0  0  0  0  0  0  0  0  0
   11.4320   12.7420    1.1290 N   0  0  0  0  0  0  0  0  0  0  0  0
   12.7100   13.3270   -1.5160 O   0  0  0  0  0  0  0  0  0  0  0  0
    9.3310   13.0890   -2.4700 C   0  0  0  0  0  0  0  0  0  0  0  0
    8.8990   12.5760   -3.5600 N   0  0  0  0  0  0  0  0  0  0  0  0
    9.3880   12.7250   -4.4020 H   0  0  0  0  0  0  0  0  0  0  0  0
   13.3830   12.0160    4.0900 N   0  0  0  0  0  0  0  0  0  0  0  0
   13.4420   11.0770    3.6960 H   0  0  0  0  0  0  0  0  0  0  0  0
   14.2970   12.4670    4.0330 H   0  0  0  0  0  0  0  0  0  0  0  0
   13.0930   11.9580    5.0670 H   0  0  0  0  0  0  0  0  0  0  0  0
   11.1570   10.7150    3.5980 O   0  0  0  0  0  0  0  0  0  0  0  0
   12.0310   10.4240    3.2960 H   0  0  0  0  0  0  0  0  0  0  0  0
    7.9150   11.9620    1.8960 C   0  0  0  0  0  0  0  0  0  0  0  0
    7.4850   10.6890    1.3430 O   0  0  0  0  0  0  0  0  0  0  0  0
    6.1600   10.4970    1.2090 C   0  0  0  0  0  0  0  0  0  0  0  0
    5.5860   10.5800   -0.0080 N   0  0  0  0  0  0  0  0  0  0  0  0
    4.6180   10.4350   -0.1070 H   0  0  0  0  0  0  0  0  0  0  0  0
    6.1370   10.7840   -0.7980 H   0  0  0  0  0  0  0  0  0  0  0  0
    5.4810   10.2440    2.1840 O   0  0  0  0  0  0  0  0  0  0  0  0
  2  1  1  1  0  0  0
  2  3  1  0  0  0  0
  3  4  1  0  0  0  0
  4  5  2  0  0  0  0
  4 13  1  0  0  0  0
  5  8  1  0  0  0  0
  6  7  2  0  0  0  0
  6  5  1  0  0  0  0
  8 24  1  0  0  0  0
  8  9  2  0  0  0  0
  9 10  1  0  0  0  0
 10 22  1  6  0  0  0
 11 10  1  0  0  0  0
 11 18  1  1  0  0  0
 12 11  1  0  0  0  0
 13 12  1  0  0  0  0
 13  9  1  0  0  0  0
 14  3  2  0  0  0  0
 15  2  1  0  0  0  0
 15  6  1  0  0  0  0
 16 15  2  0  0  0  0
 17 16  1  0  0  0  0
 18 21  1  0  0  0  0
 19 18  1  0  0  0  0
 20 18  1  0  0  0  0
 23 22  1  0  0  0  0
 25 24  1  0  0  0  0
 26 25  1  0  0  0  0
 26 30  2  0  0  0  0
 27 26  1  0  0  0  0
 28 27  1  0  0  0  0
 29 27  1  0  0  0  0
M  END
>  <MODEL>
1

>  <REMARK>
 VINA RESULT:      -7.2      0.000      0.000
  Name = ZINC05114539
                            x       y       z     vdW  Elec       q    Type
                         _______ _______ _______ _____ _____    ______ ____

>  <TORSDO>
F 5

>  <vina_score>
-7.2

$$$$
ZINC30924904
 OpenBabel01091701343D

 35 36  0  0  0  0  0  0  0  0999 V2000
    8.8550   14.3320   -2.9730 C   0  0  0  0  0  0  0  0  0  0  0  0
   11.1640   14.0990   -2.2300 C   0  0  0  0  0  0  0  0  0  0  0  0
   10.0150   14.8050   -2.2140 N   0  0  0  0  0  0  0  0  0  0  0  0
    9.9570   15.6370   -1.6920 H   0  0  0  0  0  0  0  0  0  0  0  0
   11.2370   13.0740   -2.8730 O   0  0  0  0  0  0  0  0  0  0  0  0
   12.3570   14.5860   -1.4490 C   0  0  0  0  0  0  0  0  0  0  0  0
   12.7760   13.5500   -0.5010 N   0  0  0  0  0  0  0  0  0  0  0  0
   13.1100   12.7610   -1.0550 H   0  0  0  0  0  0  0  0  0  0  0  0
   11.6910   12.9410    0.5930 S   0  0  0  0  0  0  0  0  0  0  0  0
   11.0860   11.8110   -0.0210 O   0  0  0  0  0  0  0  0  0  0  0  0
   10.9350   14.0440    1.0720 O   0  0  0  0  0  0  0  0  0  0  0  0
   14.8670   10.8620    5.2830 C   0  0  0  0  0  0  0  0  0  0  0  0
   14.0740   11.3820    4.1120 C   0  0  0  0  0  0  0  0  0  0  0  0
   13.8620   12.7400    3.9670 C   0  0  0  0  0  0  0  0  0  0  0  0
   13.1350   13.2160    2.8940 C   0  0  0  0  0  0  0  0  0  0  0  0
   12.6190   12.3330    1.9630 C   0  0  0  0  0  0  0  0  0  0  0  0
   12.8260   10.9750    2.1090 C   0  0  0  0  0  0  0  0  0  0  0  0
   13.5570   10.5000    3.1810 C   0  0  0  0  0  0  0  0  0  0  0  0
    7.9750   13.4970   -2.0770 C   0  0  0  0  0  0  0  0  0  0  0  0
    8.4510   12.3580   -1.5380 N   0  0  0  0  0  0  0  0  0  0  0  0
    9.3490   12.0350   -1.7810 H   0  0  0  0  0  0  0  0  0  0  0  0
    6.8390   13.8520   -1.8440 O   0  0  0  0  0  0  0  0  0  0  0  0
    7.6700   11.6350   -0.6300 C   0  0  0  0  0  0  0  0  0  0  0  0
    6.5150   10.9940   -1.0620 C   0  0  0  0  0  0  0  0  0  0  0  0
    5.7460   10.2750   -0.1670 C   0  0  0  0  0  0  0  0  0  0  0  0
    6.1180   10.2000    1.1620 C   0  0  0  0  0  0  0  0  0  0  0  0
    7.2680   10.8420    1.6000 C   0  0  0  0  0  0  0  0  0  0  0  0
    8.0440   11.5600    0.7040 C   0  0  0  0  0  0  0  0  0  0  0  0
    7.6310   10.7680    2.9070 O   0  0  0  0  0  0  0  0  0  0  0  0
    9.0170   10.9380    3.2070 C   0  0  0  0  0  0  0  0  0  0  0  0
    9.2020   12.1780    4.0430 C   0  0  0  0  0  0  0  0  0  0  0  0
    9.1020   13.3960    3.4730 N   0  0  0  0  0  0  0  0  0  0  0  0
    9.2230   14.2060    4.0190 H   0  0  0  0  0  0  0  0  0  0  0  0
    8.9080   13.4750    2.5120 H   0  0  0  0  0  0  0  0  0  0  0  0
    9.4410   12.0810    5.2280 O   0  0  0  0  0  0  0  0  0  0  0  0
  1  3  1  0  0  0  0
  1 19  1  0  0  0  0
  2  3  1  0  0  0  0
  2  6  1  0  0  0  0
  3  4  1  0  0  0  0
  5  2  2  0  0  0  0
  6  7  1  0  0  0  0
  7  9  1  0  0  0  0
  8  7  1  0  0  0  0
  9 11  2  0  0  0  0
  9 16  1  0  0  0  0
 10  9  2  0  0  0  0
 13 12  1  0  0  0  0
 14 13  1  0  0  0  0
 15 14  2  0  0  0  0
 16 17  2  0  0  0  0
 16 15  1  0  0  0  0
 17 18  1  0  0  0  0
 18 13  2  0  0  0  0
 19 22  2  0  0  0  0
 19 20  1  0  0  0  0
 20 23  1  0  0  0  0
 21 20  1  0  0  0  0
 23 28  1  0  0  0  0
 24 23  2  0  0  0  0
 24 25  1  0  0  0  0
 25 26  2  0  0  0  0
 26 27  1  0  0  0  0
 27 29  1  0  0  0  0
 28 27  2  0  0  0  0
 29 30  1  0  0  0  0
 30 31  1  0  0  0  0
 31 35  2  0  0  0  0
 32 33  1  0  0  0  0
 32 31  1  0  0  0  0
 34 32  1  0  0  0  0
M  END
>  <MODEL>
1

>  <REMARK>
 VINA RESULT:      -7.2      0.000      0.000
  Name = ZINC30924904
                            x       y       z     vdW  Elec       q    Type
                         _______ _______ _______ _____ _____    ______ ____

>  <TORSDO>
F 10

>  <vina_score>
-7.2

$$$$
ZINC17969353
 OpenBabel01091701413D

 23 24  0  0  1  0  0  0  0  0999 V2000
   12.1010   14.2380    0.3470 N   0  0  0  0  0  0  0  0  0  0  0  0
   11.4390   13.2770    0.9530 C   0  0  0  0  0  0  0  0  0  0  0  0
   11.2810   13.3840    2.4480 C   0  0  2  0  0  0  0  0  0  0  0  0
   11.6290   12.0380    3.0570 C   0  0  0  0  0  0  0  0  0  0  0  0
   12.8330   11.4760    2.8660 O   0  0  0  0  0  0  0  0  0  0  0  0
   10.7070   11.4450    3.7770 N   0  0  0  0  0  0  0  0  0  0  0  0
    9.5050   11.9830    3.9810 C   0  0  0  0  0  0  0  0  0  0  0  0
    9.0970   13.1390    3.4980 N   0  0  0  0  0  0  0  0  0  0  0  0
    9.8860   13.9050    2.7410 C   0  0  0  0  0  0  0  0  0  0  0  0
    9.5030   14.9720    2.3030 O   0  0  0  0  0  0  0  0  0  0  0  0
    8.6340   11.2860    4.7390 O   0  0  0  0  0  0  0  0  0  0  0  0
    8.8620   11.0480    5.6150 H   0  0  0  0  0  0  0  0  0  0  0  0
   12.2930   14.1930   -1.1430 C   0  0  0  0  0  0  0  0  0  0  0  0
   11.4890   15.3320   -1.7710 C   0  0  0  0  0  0  0  0  0  0  0  0
    7.9560   14.1180   -2.2600 C   0  0  0  0  0  0  0  0  0  0  0  0
    8.2700   12.7990   -2.8440 N   0  0  0  0  0  0  0  0  0  0  0  0
    8.5170   12.1530   -2.0940 H   0  0  0  0  0  0  0  0  0  0  0  0
    7.4560   12.4520   -3.3490 H   0  0  0  0  0  0  0  0  0  0  0  0
    9.4100   12.9130   -3.7740 C   0  0  0  0  0  0  0  0  0  0  0  0
   10.6330   13.4440   -3.0240 C   0  0  0  0  0  0  0  0  0  0  0  0
   10.3050   14.7700   -2.4580 N   0  0  0  0  0  0  0  0  0  0  0  0
   10.0360   15.3960   -3.2170 H   0  0  0  0  0  0  0  0  0  0  0  0
    9.1800   14.6490   -1.5090 C   0  0  0  0  0  0  0  0  0  0  0  0
  1  2  2  0  0  0  0
  3  2  1  6  0  0  0
  3  9  1  0  0  0  0
  3  4  1  0  0  0  0
  4  6  1  0  0  0  0
  5  4  2  0  0  0  0
  6  7  1  0  0  0  0
  7 11  1  0  0  0  0
  8  7  2  0  0  0  0
  9  8  1  0  0  0  0
 10  9  2  0  0  0  0
 11 12  1  0  0  0  0
 13  1  1  0  0  0  0
 14 13  1  0  0  0  0
 15 23  1  0  0  0  0
 16 15  1  0  0  0  0
 16 17  1  0  0  0  0
 18 16  1  0  0  0  0
 19 20  1  0  0  0  0
 19 16  1  0  0  0  0
 20 21  1  0  0  0  0
 21 14  1  0  0  0  0
 21 23  1  0  0  0  0
 22 21  1  0  0  0  0
M  END
>  <MODEL>
1

>  <REMARK>
 VINA RESULT:      -7.1      0.000      0.000
  Name = ZINC17969353
                            x       y       z     vdW  Elec       q    Type
                         _______ _______ _______ _____ _____    ______ ____

>  <TORSDO>
F 5

>  <vina_score>
-7.1

$$$$
ZINC02275272
 OpenBabel01091701423D

 29 29  0  0  0  0  0  0  0  0999 V2000
   10.1080   14.8370   -0.0290 C   0  0  0  0  0  0  0  0  0  0  0  0
    9.2740   14.2840   -1.0080 C   0  0  0  0  0  0  0  0  0  0  0  0
    9.6340   14.4470   -2.3450 C   0  0  0  0  0  0  0  0  0  0  0  0
   10.7440   15.1180   -2.6370 N   0  0  0  0  0  0  0  0  0  0  0  0
   11.5020   15.6250   -1.6860 C   0  0  0  0  0  0  0  0  0  0  0  0
   11.2010   15.4940   -0.4100 N   0  0  0  0  0  0  0  0  0  0  0  0
    8.1140   13.5840   -0.6550 N   0  0  0  0  0  0  0  0  0  0  0  0
    7.2530   14.0570   -0.5980 H   0  0  0  0  0  0  0  0  0  0  0  0
    8.1760   12.2630   -0.3930 C   0  0  0  0  0  0  0  0  0  0  0  0
    9.2470   11.6910   -0.4090 O   0  0  0  0  0  0  0  0  0  0  0  0
    6.9290   11.5060   -0.0810 C   0  0  0  0  0  0  0  0  0  0  0  0
    6.5930   11.2600    1.2010 N   0  0  0  0  0  0  0  0  0  0  0  0
    7.1700   11.5810    1.9310 H   0  0  0  0  0  0  0  0  0  0  0  0
    6.2180   11.1100   -0.9820 O   0  0  0  0  0  0  0  0  0  0  0  0
    5.4520   10.5660    1.4870 N   0  0  0  0  0  0  0  0  0  0  0  0
    4.6400   11.1150    1.2070 H   0  0  0  0  0  0  0  0  0  0  0  0
    5.4550    9.6800    0.9780 H   0  0  0  0  0  0  0  0  0  0  0  0
    8.8620   13.9310   -3.3340 O   0  0  0  0  0  0  0  0  0  0  0  0
    9.4020   12.8350   -4.0740 C   0  0  0  0  0  0  0  0  0  0  0  0
    9.7140   14.6670    1.6810 S   0  0  0  0  0  0  0  0  0  0  0  0
   10.8760   12.9320    3.3660 C   0  0  0  0  0  0  0  0  0  0  0  0
   10.9130   13.4660    2.1520 C   0  0  0  0  0  0  0  0  0  0  0  0
   13.3250   12.7560    3.7090 C   0  0  0  0  0  0  0  0  0  0  0  0
   11.9870   12.0230    3.8230 C   0  0  0  0  0  0  0  0  0  0  0  0
    9.8040   13.2130    4.2200 N   0  0  0  0  0  0  0  0  0  0  0  0
    9.6180   14.1420    4.4870 H   0  0  0  0  0  0  0  0  0  0  0  0
    9.0150   12.1980    4.6840 N   0  0  0  0  0  0  0  0  0  0  0  0
    9.4640   11.7580    5.4860 H   0  0  0  0  0  0  0  0  0  0  0  0
    8.1090   12.5740    4.9640 H   0  0  0  0  0  0  0  0  0  0  0  0
  1 20  1  0  0  0  0
  2  7  1  0  0  0  0
  2  1  2  0  0  0  0
  3  2  1  0  0  0  0
  4  3  2  0  0  0  0
  4  5  1  0  0  0  0
  5  6  2  0  0  0  0
  6  1  1  0  0  0  0
  7  8  1  0  0  0  0
  7  9  1  0  0  0  0
  9 11  1  0  0  0  0
 10  9  2  0  0  0  0
 11 12  1  0  0  0  0
 12 15  1  0  0  0  0
 12 13  1  0  0  0  0
 14 11  2  0  0  0  0
 16 15  1  0  0  0  0
 17 15  1  0  0  0  0
 18  3  1  0  0  0  0
 19 18  1  0  0  0  0
 20 22  1  0  0  0  0
 21 24  1  0  0  0  0
 21 25  1  0  0  0  0
 22 21  2  0  0  0  0
 23 24  1  0  0  0  0
 25 26  1  0  0  0  0
 25 27  1  0  0  0  0
 27 29  1  0  0  0  0
 27 28  1  0  0  0  0
M  END
>  <MODEL>
1

>  <REMARK>
 VINA RESULT:      -7.1      0.000      0.000
  Name = ZINC02275272
                            x       y       z     vdW  Elec       q    Type
                         _______ _______ _______ _____ _____    ______ ____

>  <TORSDO>
F 9

>  <vina_score>
-7.1

$$$$
ZINC25269233
 OpenBabel01091701453D

 24 25  0  0  0  0  0  0  0  0999 V2000
   11.9320   14.1460   -2.3500 C   0  0  0  0  0  0  0  0  0  0  0  0
   11.2320   14.3820   -1.0370 C   0  0  0  0  0  0  0  0  0  0  0  0
   10.6280   15.5800   -0.8320 N   0  0  0  0  0  0  0  0  0  0  0  0
   10.6560   16.2690   -1.5350 H   0  0  0  0  0  0  0  0  0  0  0  0
    9.9900   15.8330    0.3340 C   0  0  0  0  0  0  0  0  0  0  0  0
    9.9810   14.7730    1.3430 C   0  0  0  0  0  0  0  0  0  0  0  0
    9.4450   14.6450    2.6380 C   0  0  0  0  0  0  0  0  0  0  0  0
    9.7450   13.4580    3.0910 N   0  0  0  0  0  0  0  0  0  0  0  0
   10.4810   12.7610    2.1250 N   0  0  0  0  0  0  0  0  0  0  0  0
   11.0000   11.3980    2.2590 C   0  0  0  0  0  0  0  0  0  0  0  0
   10.6320   13.5660    1.0400 C   0  0  0  0  0  0  0  0  0  0  0  0
    9.4420   16.9010    0.5370 O   0  0  0  0  0  0  0  0  0  0  0  0
   11.2340   13.4290   -0.1510 N   0  0  0  0  0  0  0  0  0  0  0  0
   11.0980   13.1890   -3.2060 C   0  0  0  0  0  0  0  0  0  0  0  0
    8.9430   12.5930   -2.1500 N   0  0  0  0  0  0  0  0  0  0  0  0
    9.3950   11.8220   -1.7370 H   0  0  0  0  0  0  0  0  0  0  0  0
    9.6340   13.4310   -2.9480 C   0  0  0  0  0  0  0  0  0  0  0  0
    9.0760   14.3810   -3.4560 O   0  0  0  0  0  0  0  0  0  0  0  0
    7.5190   12.8280   -1.8980 C   0  0  0  0  0  0  0  0  0  0  0  0
    7.1160   10.8550    1.3580 C   0  0  0  0  0  0  0  0  0  0  0  0
    7.5960   11.8070    0.3540 N   0  0  0  0  0  0  0  0  0  0  0  0
    8.3380   12.4180    0.5690 H   0  0  0  0  0  0  0  0  0  0  0  0
    7.0230   11.8470   -0.8660 C   0  0  0  0  0  0  0  0  0  0  0  0
    6.1100   11.0960   -1.1310 O   0  0  0  0  0  0  0  0  0  0  0  0
  1  2  1  0  0  0  0
  2  3  1  0  0  0  0
  2 13  2  0  0  0  0
  3  5  1  0  0  0  0
  4  3  1  0  0  0  0
  5 12  2  0  0  0  0
  5  6  1  0  0  0  0
  6  7  1  0  0  0  0
  7  8  2  0  0  0  0
  9 10  1  0  0  0  0
  9  8  1  0  0  0  0
 11  6  2  0  0  0  0
 11  9  1  0  0  0  0
 13 11  1  0  0  0  0
 14 17  1  0  0  0  0
 14  1  1  0  0  0  0
 15 19  1  0  0  0  0
 15 16  1  0  0  0  0
 17 15  1  0  0  0  0
 18 17  2  0  0  0  0
 19 23  1  0  0  0  0
 21 22  1  0  0  0  0
 21 20  1  0  0  0  0
 23 21  1  0  0  0  0
 24 23  2  0  0  0  0
M  END
>  <MODEL>
1

>  <REMARK>
 VINA RESULT:      -7.1      0.000      0.000
  Name = ZINC25269233
                            x       y       z     vdW  Elec       q    Type
                         _______ _______ _______ _____ _____    ______ ____

>  <TORSDO>
F 5

>  <vina_score>
-7.1

$$$$
ZINC04642041
 OpenBabel01091701283D

 25 26  0  0  1  0  0  0  0  0999 V2000
   10.3050   12.1650    2.5230 C   0  0  1  0  0  0  0  0  0  0  0  0
    9.3430   13.0060    3.3420 C   0  0  0  0  0  0  0  0  0  0  0  0
    9.1120   14.2700    2.9290 N   0  0  0  0  0  0  0  0  0  0  0  0
    8.4910   14.8350    3.4450 H   0  0  0  0  0  0  0  0  0  0  0  0
    9.7000   14.7790    1.8410 C   0  0  0  0  0  0  0  0  0  0  0  0
   10.5600   14.1160    1.0580 N   0  0  0  0  0  0  0  0  0  0  0  0
    9.4340   15.9260    1.5410 O   0  0  0  0  0  0  0  0  0  0  0  0
    8.8030   12.5590    4.3310 O   0  0  0  0  0  0  0  0  0  0  0  0
   10.9130   12.8370    1.3060 C   0  0  0  0  0  0  0  0  0  0  0  0
   11.6890   12.2470    0.5850 O   0  0  0  0  0  0  0  0  0  0  0  0
   11.7040   10.4370    3.5500 C   0  0  0  0  0  0  0  0  0  0  0  0
   11.4260   11.7210    3.4270 C   0  0  0  0  0  0  0  0  0  0  0  0
   12.1500   12.7340    4.1230 N   0  0  0  0  0  0  0  0  0  0  0  0
   11.7610   13.2420    4.8720 H   0  0  0  0  0  0  0  0  0  0  0  0
   13.5510   12.9670    3.6290 C   0  0  0  0  0  0  0  0  0  0  0  0
   14.5000   12.4420    4.7090 C   0  0  0  0  0  0  0  0  0  0  0  0
   14.9910   13.5360    5.4850 O   0  0  0  0  0  0  0  0  0  0  0  0
   14.2430   14.0240    5.8640 H   0  0  0  0  0  0  0  0  0  0  0  0
   11.1300   14.7980   -0.1070 C   0  0  0  0  0  0  0  0  0  0  0  0
   10.4580   14.2990   -1.3600 C   0  0  0  0  0  0  0  0  0  0  0  0
   11.1940   13.6330   -2.3210 C   0  0  0  0  0  0  0  0  0  0  0  0
   10.5760   13.1760   -3.4710 C   0  0  0  0  0  0  0  0  0  0  0  0
    9.2230   13.3860   -3.6590 C   0  0  0  0  0  0  0  0  0  0  0  0
    8.4870   14.0530   -2.6980 C   0  0  0  0  0  0  0  0  0  0  0  0
    9.1050   14.5100   -1.5480 C   0  0  0  0  0  0  0  0  0  0  0  0
  1  2  1  0  0  0  0
  1 12  1  1  0  0  0
  2  8  2  0  0  0  0
  3  2  1  0  0  0  0
  3  4  1  0  0  0  0
  5  3  1  0  0  0  0
  6  9  1  0  0  0  0
  6  5  1  0  0  0  0
  7  5  2  0  0  0  0
  9  1  1  0  0  0  0
 10  9  2  0  0  0  0
 12 11  1  0  0  0  0
 12 13  2  0  0  0  0
 13 14  1  0  0  0  0
 15 13  1  0  0  0  0
 15 16  1  0  0  0  0
 16 17  1  0  0  0  0
 17 18  1  0  0  0  0
 19  6  1  0  0  0  0
 20 19  1  0  0  0  0
 21 20  2  0  0  0  0
 22 21  1  0  0  0  0
 23 22  2  0  0  0  0
 23 24  1  0  0  0  0
 24 25  2  0  0  0  0
 25 20  1  0  0  0  0
M  END
>  <MODEL>
1

>  <REMARK>
 VINA RESULT:      -7.1      0.000      0.000
  Name = ZINC04642041
                            x       y       z     vdW  Elec       q    Type
                         _______ _______ _______ _____ _____    ______ ____

>  <TORSDO>
F 7

>  <vina_score>
-7.1

$$$$
ZINC06315906
 OpenBabel01091701383D

 28 30  0  0  0  0  0  0  0  0999 V2000
   11.3220   13.3750    1.7910 C   0  0  0  0  0  0  0  0  0  0  0  0
   11.4280   13.5090    0.4090 C   0  0  0  0  0  0  0  0  0  0  0  0
   10.3280   14.1050   -0.1210 N   0  0  0  0  0  0  0  0  0  0  0  0
    9.4000   14.4070    0.9770 C   0  0  0  0  0  0  0  0  0  0  0  0
   10.0930   13.9030    2.2250 C   0  0  0  0  0  0  0  0  0  0  0  0
    9.6760   13.9490    3.3670 O   0  0  0  0  0  0  0  0  0  0  0  0
   15.2620   10.3640    5.1750 C   0  0  0  0  0  0  0  0  0  0  0  0
   15.6750   11.6430    5.5160 C   0  0  0  0  0  0  0  0  0  0  0  0
   15.0520   12.7460    4.9760 C   0  0  0  0  0  0  0  0  0  0  0  0
   13.9950   12.5750    4.0760 C   0  0  0  0  0  0  0  0  0  0  0  0
   13.5810   11.2760    3.7340 C   0  0  0  0  0  0  0  0  0  0  0  0
   12.5320   11.4260    2.8450 N   0  0  0  0  0  0  0  0  0  0  0  0
   12.0170   10.7020    2.4210 H   0  0  0  0  0  0  0  0  0  0  0  0
   12.3410   12.7720    2.6650 C   0  0  0  0  0  0  0  0  0  0  0  0
   13.2040   13.4420    3.3950 N   0  0  0  0  0  0  0  0  0  0  0  0
   14.2210   10.1780    4.2890 C   0  0  0  0  0  0  0  0  0  0  0  0
   10.1190   14.3870   -1.4770 N   0  0  0  0  0  0  0  0  0  0  0  0
   10.4650   15.2220   -1.8650 H   0  0  0  0  0  0  0  0  0  0  0  0
    9.4400   13.5150   -2.2500 C   0  0  0  0  0  0  0  0  0  0  0  0
    9.0120   12.4860   -1.7710 O   0  0  0  0  0  0  0  0  0  0  0  0
    9.2170   13.8160   -3.6970 C   0  0  0  0  0  0  0  0  0  0  0  0
    8.9620   15.0800   -4.0910 N   0  0  0  0  0  0  0  0  0  0  0  0
    8.8150   15.2770   -5.0440 H   0  0  0  0  0  0  0  0  0  0  0  0
    8.9230   15.8040   -3.4260 H   0  0  0  0  0  0  0  0  0  0  0  0
    9.2660   12.9230   -4.5160 O   0  0  0  0  0  0  0  0  0  0  0  0
   12.5020   13.0940   -0.3210 N   0  0  0  0  0  0  0  0  0  0  0  0
   13.2780   13.6870   -0.4370 H   0  0  0  0  0  0  0  0  0  0  0  0
   12.5000   12.1990   -0.7330 H   0  0  0  0  0  0  0  0  0  0  0  0
  1  5  1  0  0  0  0
  1 14  1  0  0  0  0
  2  1  2  0  0  0  0
  3  2  1  0  0  0  0
  3  4  1  0  0  0  0
  4  5  1  0  0  0  0
  5  6  2  0  0  0  0
  7  8  1  0  0  0  0
  9  8  2  0  0  0  0
 10  9  1  0  0  0  0
 11 10  2  0  0  0  0
 11 16  1  0  0  0  0
 12 11  1  0  0  0  0
 13 12  1  0  0  0  0
 14 12  1  0  0  0  0
 14 15  2  0  0  0  0
 15 10  1  0  0  0  0
 16  7  2  0  0  0  0
 17  3  1  0  0  0  0
 18 17  1  0  0  0  0
 19 20  2  0  0  0  0
 19 17  1  0  0  0  0
 21 19  1  0  0  0  0
 22 21  1  0  0  0  0
 22 24  1  0  0  0  0
 23 22  1  0  0  0  0
 25 21  2  0  0  0  0
 26  2  1  0  0  0  0
 27 26  1  0  0  0  0
 28 26  1  0  0  0  0
M  END
>  <MODEL>
1

>  <REMARK>
 VINA RESULT:      -7.0      0.000      0.000
  Name = ZINC06315906
                            x       y       z     vdW  Elec       q    Type
                         _______ _______ _______ _____ _____    ______ ____

>  <TORSDO>
F 4

>  <vina_score>
-7.0

$$$$
ZINC01646936
 OpenBabel01091701393D

 26 27  0  0  1  0  0  0  0  0999 V2000
    7.6370   11.9580   -0.5300 C   0  0  0  0  0  0  0  0  0  0  0  0
    7.3600   12.6500   -1.6040 N   0  0  0  0  0  0  0  0  0  0  0  0
    8.2520   13.6360   -1.7510 C   0  0  0  0  0  0  0  0  0  0  0  0
    9.1390   13.5530   -0.6890 C   0  0  0  0  0  0  0  0  0  0  0  0
    8.7220   12.4730    0.0740 N   0  0  0  0  0  0  0  0  0  0  0  0
    9.3460   11.9850    1.3060 C   0  0  2  0  0  0  0  0  0  0  0  0
    8.5720   12.5150    2.5160 C   0  0  1  0  0  0  0  0  0  0  0  0
    9.2660   12.0500    3.8000 C   0  0  1  0  0  0  0  0  0  0  0  0
   10.7200   12.5320    3.7840 C   0  0  1  0  0  0  0  0  0  0  0  0
   11.4120   12.0020    2.5240 C   0  0  0  0  0  0  0  0  0  0  0  0
   10.6980   12.4450    1.3680 O   0  0  0  0  0  0  0  0  0  0  0  0
    8.5440   13.9420    2.4780 O   0  0  0  0  0  0  0  0  0  0  0  0
    9.0420   14.2950    3.2320 H   0  0  0  0  0  0  0  0  0  0  0  0
    8.5920   12.6000    4.9330 O   0  0  0  0  0  0  0  0  0  0  0  0
    7.7440   12.1470    5.0570 H   0  0  0  0  0  0  0  0  0  0  0  0
   10.7490   13.9610    3.7790 O   0  0  0  0  0  0  0  0  0  0  0  0
   11.0120   14.2820    4.6550 H   0  0  0  0  0  0  0  0  0  0  0  0
   10.2800   14.4270   -0.4270 C   0  0  0  0  0  0  0  0  0  0  0  0
   10.3020   15.1930    0.6820 N   0  0  0  0  0  0  0  0  0  0  0  0
   11.0710   15.7820    0.8580 H   0  0  0  0  0  0  0  0  0  0  0  0
    9.5490   15.1650    1.3150 H   0  0  0  0  0  0  0  0  0  0  0  0
   11.2120   14.4630   -1.2100 O   0  0  0  0  0  0  0  0  0  0  0  0
    8.2810   14.5750   -2.7790 N   0  0  0  0  0  0  0  0  0  0  0  0
    7.8370   15.4470   -2.6620 H   0  0  0  0  0  0  0  0  0  0  0  0
    8.9160   14.2920   -3.9340 C   0  0  0  0  0  0  0  0  0  0  0  0
    9.4570   13.2170   -4.0790 O   0  0  0  0  0  0  0  0  0  0  0  0
  1  5  1  0  0  0  0
  2  1  2  0  0  0  0
  3  2  1  0  0  0  0
  3  4  2  0  0  0  0
  4 18  1  0  0  0  0
  4  5  1  0  0  0  0
  6  5  1  6  0  0  0
  6 11  1  0  0  0  0
  6  7  1  0  0  0  0
  7 12  1  6  0  0  0
  7  8  1  0  0  0  0
  8 14  1  1  0  0  0
  9 16  1  6  0  0  0
  9  8  1  0  0  0  0
 10  9  1  0  0  0  0
 11 10  1  0  0  0  0
 12 13  1  0  0  0  0
 14 15  1  0  0  0  0
 16 17  1  0  0  0  0
 18 19  1  0  0  0  0
 19 20  1  0  0  0  0
 19 21  1  0  0  0  0
 22 18  2  0  0  0  0
 23 24  1  0  0  0  0
 23  3  1  0  0  0  0
 25 23  1  0  0  0  0
 26 25  2  0  0  0  0
M  END
>  <MODEL>
1

>  <REMARK>
 VINA RESULT:      -7.0      0.000      0.000
  Name = ZINC01646936
                            x       y       z     vdW  Elec       q    Type
                         _______ _______ _______ _____ _____    ______ ____

>  <TORSDO>
F 6

>  <vina_score>
-7.0

$$$$
ZINC04096406
 OpenBabel01091701243D

 28 30  0  0  1  0  0  0  0  0999 V2000
   10.2100   14.3900    1.6320 C   0  0  0  0  0  0  0  0  0  0  0  0
   10.6520   13.3040    0.6520 C   0  0  2  0  0  0  0  0  0  0  0  0
   11.6000   12.4460    1.2730 O   0  0  0  0  0  0  0  0  0  0  0  0
   11.1620   11.8170    2.4670 C   0  0  1  0  0  0  0  0  0  0  0  0
   12.4340   11.3630    3.2340 C   0  0  1  0  0  0  0  0  0  0  0  0
   12.7190   12.5220    4.2100 C   0  0  2  0  0  0  0  0  0  0  0  0
   11.7240   13.5170    3.9790 O   0  0  0  0  0  0  0  0  0  0  0  0
   10.5690   12.8520    3.4460 C   0  0  1  0  0  0  0  0  0  0  0  0
   11.2570   13.9490   -0.6100 C   0  0  2  0  0  0  0  0  0  0  0  0
   10.0750   13.9970   -1.6050 C   0  0  1  0  0  0  0  0  0  0  0  0
    8.8950   13.3840   -0.8170 C   0  0  2  0  0  0  0  0  0  0  0  0
    9.5130   12.5560    0.1930 O   0  0  0  0  0  0  0  0  0  0  0  0
    9.6880   13.7530    2.8020 O   0  0  0  0  0  0  0  0  0  0  0  0
   12.1810   10.1540    3.9520 O   0  0  0  0  0  0  0  0  0  0  0  0
   12.6790   10.1630    4.7850 H   0  0  0  0  0  0  0  0  0  0  0  0
   12.3140   13.1390   -1.1280 O   0  0  0  0  0  0  0  0  0  0  0  0
   12.6610   13.5400   -1.9400 H   0  0  0  0  0  0  0  0  0  0  0  0
    9.7820   15.3470   -1.9720 O   0  0  0  0  0  0  0  0  0  0  0  0
    9.3050   15.3560   -2.8170 H   0  0  0  0  0  0  0  0  0  0  0  0
   14.1080   13.1010    3.9390 C   0  0  0  0  0  0  0  0  0  0  0  0
   14.7510   13.3980    5.1800 O   0  0  0  0  0  0  0  0  0  0  0  0
   14.9390   12.5720    5.6520 H   0  0  0  0  0  0  0  0  0  0  0  0
    9.8280   12.1280    4.5720 C   0  0  0  0  0  0  0  0  0  0  0  0
    8.5540   12.7410    4.7760 O   0  0  0  0  0  0  0  0  0  0  0  0
    8.6460   13.7050    4.7190 H   0  0  0  0  0  0  0  0  0  0  0  0
    8.0230   12.5330   -1.7420 C   0  0  0  0  0  0  0  0  0  0  0  0
    8.5250   12.6130   -3.0780 O   0  0  0  0  0  0  0  0  0  0  0  0
    7.7870   12.7570   -3.6910 H   0  0  0  0  0  0  0  0  0  0  0  0
  1 13  1  0  0  0  0
  2 12  1  6  0  0  0
  2  3  1  0  0  0  0
  2  1  1  0  0  0  0
  4  3  1  6  0  0  0
  4  5  1  0  0  0  0
  4  8  1  0  0  0  0
  5 14  1  1  0  0  0
  5  6  1  0  0  0  0
  6 20  1  6  0  0  0
  7  6  1  0  0  0  0
  8  7  1  0  0  0  0
  8 23  1  1  0  0  0
  9 16  1  6  0  0  0
  9  2  1  0  0  0  0
 10 18  1  1  0  0  0
 10 11  1  0  0  0  0
 10  9  1  0  0  0  0
 11 26  1  6  0  0  0
 11 12  1  0  0  0  0
 13  8  1  0  0  0  0
 14 15  1  0  0  0  0
 17 16  1  0  0  0  0
 19 18  1  0  0  0  0
 20 21  1  0  0  0  0
 21 22  1  0  0  0  0
 23 24  1  0  0  0  0
 25 24  1  0  0  0  0
 27 26  1  0  0  0  0
 28 27  1  0  0  0  0
M  END
>  <MODEL>
1

>  <REMARK>
 VINA RESULT:      -7.0      0.000      0.000
  Name = ZINC04096406
                            x       y       z     vdW  Elec       q    Type
                         _______ _______ _______ _____ _____    ______ ____

>  <TORSDO>
F 9

>  <vina_score>
-7.0

$$$$
ZINC13551153
 OpenBabel01091701463D

 27 29  0  0  0  0  0  0  0  0999 V2000
    7.7640   11.9630    0.5440 C   0  0  0  0  0  0  0  0  0  0  0  0
    6.8110   11.1190    0.1800 N   0  0  0  0  0  0  0  0  0  0  0  0
    6.7000   10.2650    0.6570 H   0  0  0  0  0  0  0  0  0  0  0  0
    6.2130   11.3450   -0.5690 H   0  0  0  0  0  0  0  0  0  0  0  0
    8.5640   11.5860    1.5960 N   0  0  0  0  0  0  0  0  0  0  0  0
    9.3540   10.3450    1.5380 C   0  0  0  0  0  0  0  0  0  0  0  0
   10.8060   10.6710    1.9010 C   0  0  0  0  0  0  0  0  0  0  0  0
   10.8400   11.3690    3.1950 N   0  0  0  0  0  0  0  0  0  0  0  0
   10.1390   12.6570    3.1230 C   0  0  0  0  0  0  0  0  0  0  0  0
    8.6590   12.4130    2.8100 C   0  0  0  0  0  0  0  0  0  0  0  0
   12.1410   11.5360    3.6340 C   0  0  0  0  0  0  0  0  0  0  0  0
   12.8510   10.4690    3.9740 N   0  0  0  0  0  0  0  0  0  0  0  0
   14.0990   10.5940    4.3940 C   0  0  0  0  0  0  0  0  0  0  0  0
   14.6590   11.8580    4.4860 C   0  0  0  0  0  0  0  0  0  0  0  0
   13.8860   12.9520    4.1280 C   0  0  0  0  0  0  0  0  0  0  0  0
   12.6460   12.7580    3.7110 N   0  0  0  0  0  0  0  0  0  0  0  0
    7.9760   13.1710   -0.0840 N   0  0  0  0  0  0  0  0  0  0  0  0
    7.4850   13.9710    0.2100 H   0  0  0  0  0  0  0  0  0  0  0  0
   12.3170   14.5030   -1.6220 C   0  0  0  0  0  0  0  0  0  0  0  0
   10.9650   13.8930   -1.8860 C   0  0  0  0  0  0  0  0  0  0  0  0
   10.6400   13.4320   -3.1480 C   0  0  0  0  0  0  0  0  0  0  0  0
    9.3770   12.8760   -3.3490 C   0  0  0  0  0  0  0  0  0  0  0  0
    8.5340   12.8070   -2.3260 N   0  0  0  0  0  0  0  0  0  0  0  0
    8.8830   13.2590   -1.1320 C   0  0  0  0  0  0  0  0  0  0  0  0
   10.0720   13.7980   -0.9130 N   0  0  0  0  0  0  0  0  0  0  0  0
    9.0180   12.4130   -4.5700 O   0  0  0  0  0  0  0  0  0  0  0  0
    8.1170   12.2440   -4.7600 H   0  0  0  0  0  0  0  0  0  0  0  0
  1  5  1  0  0  0  0
  2  1  2  0  0  0  0
  2  3  1  0  0  0  0
  4  2  1  0  0  0  0
  5 10  1  0  0  0  0
  6  5  1  0  0  0  0
  6  7  1  0  0  0  0
  7  8  1  0  0  0  0
  8 11  1  0  0  0  0
  9  8  1  0  0  0  0
 10  9  1  0  0  0  0
 11 16  2  0  0  0  0
 11 12  1  0  0  0  0
 12 13  2  0  0  0  0
 13 14  1  0  0  0  0
 15 14  2  0  0  0  0
 16 15  1  0  0  0  0
 17 18  1  0  0  0  0
 17  1  1  0  0  0  0
 20 19  1  0  0  0  0
 20 25  2  0  0  0  0
 21 20  1  0  0  0  0
 22 21  2  0  0  0  0
 22 23  1  0  0  0  0
 23 24  2  0  0  0  0
 24 25  1  0  0  0  0
 24 17  1  0  0  0  0
 26 22  1  0  0  0  0
 27 26  1  0  0  0  0
M  END
>  <MODEL>
1

>  <REMARK>
 VINA RESULT:      -7.0      0.000      0.000
  Name = ZINC13551153
                            x       y       z     vdW  Elec       q    Type
                         _______ _______ _______ _____ _____    ______ ____

>  <TORSDO>
F 5

>  <vina_score>
-7.0

$$$$
ZINC05500274
 OpenBabel01091701503D

 22 22  0  0  0  0  0  0  0  0999 V2000
    7.6830   11.0210    1.9690 C   0  0  0  0  0  0  0  0  0  0  0  0
    8.4790   11.5090    0.7860 C   0  0  0  0  0  0  0  0  0  0  0  0
    7.8760   11.9740   -0.2430 N   0  0  0  0  0  0  0  0  0  0  0  0
    8.6090   12.3170   -1.3880 N   0  0  0  0  0  0  0  0  0  0  0  0
    9.4470   11.8470   -1.5950 H   0  0  0  0  0  0  0  0  0  0  0  0
    8.1650   13.2940   -2.2030 C   0  0  0  0  0  0  0  0  0  0  0  0
    7.1300   13.8750   -1.9480 O   0  0  0  0  0  0  0  0  0  0  0  0
    8.9450   13.6610   -3.4220 C   0  0  0  0  0  0  0  0  0  0  0  0
    9.1740   14.9580   -3.7110 N   0  0  0  0  0  0  0  0  0  0  0  0
    9.6880   15.1990   -4.5150 H   0  0  0  0  0  0  0  0  0  0  0  0
    8.8260   15.6630   -3.1180 H   0  0  0  0  0  0  0  0  0  0  0  0
    9.3730   12.7920   -4.1530 O   0  0  0  0  0  0  0  0  0  0  0  0
    9.9850   11.4500    0.8150 C   0  0  0  0  0  0  0  0  0  0  0  0
   10.5190   12.5290    1.7590 C   0  0  0  0  0  0  0  0  0  0  0  0
   10.4260   13.8370    1.1070 N   0  0  0  0  0  0  0  0  0  0  0  0
    9.7240   14.8240    1.6960 C   0  0  0  0  0  0  0  0  0  0  0  0
    9.6190   16.1470    1.0440 C   0  0  0  0  0  0  0  0  0  0  0  0
   10.2410   16.3470   -0.1310 C   0  0  0  0  0  0  0  0  0  0  0  0
   11.0050   15.2380   -0.7390 C   0  0  0  0  0  0  0  0  0  0  0  0
   11.5720   15.4010   -1.8020 O   0  0  0  0  0  0  0  0  0  0  0  0
    9.1750   14.6260    2.7620 O   0  0  0  0  0  0  0  0  0  0  0  0
   11.0720   14.0460   -0.1160 N   0  0  0  0  0  0  0  0  0  0  0  0
  2 13  1  0  0  0  0
  2  1  1  0  0  0  0
  3  2  2  0  0  0  0
  4  3  1  0  0  0  0
  5  4  1  0  0  0  0
  6  7  2  0  0  0  0
  6  4  1  0  0  0  0
  8  6  1  0  0  0  0
  9  8  1  0  0  0  0
  9 11  1  0  0  0  0
 10  9  1  0  0  0  0
 12  8  2  0  0  0  0
 13 14  1  0  0  0  0
 15 16  1  0  0  0  0
 15 14  1  0  0  0  0
 16 21  2  0  0  0  0
 17 16  1  0  0  0  0
 18 17  2  0  0  0  0
 19 18  1  0  0  0  0
 19 22  1  0  0  0  0
 20 19  2  0  0  0  0
 22 15  1  0  0  0  0
M  END
>  <MODEL>
1

>  <REMARK>
 VINA RESULT:      -7.0      0.000      0.000
  Name = ZINC05500274
                            x       y       z     vdW  Elec       q    Type
                         _______ _______ _______ _____ _____    ______ ____

>  <TORSDO>
F 5

>  <vina_score>
-7.0

$$$$
ZINC06536724
 OpenBabel01091701253D

 22 24  0  0  1  0  0  0  0  0999 V2000
    9.1730   13.3990   -0.6970 C   0  0  0  0  0  0  0  0  0  0  0  0
    9.1250   13.0030   -1.9530 N   0  0  0  0  0  0  0  0  0  0  0  0
   10.1610   13.0880   -2.7950 C   0  0  0  0  0  0  0  0  0  0  0  0
   11.4110   13.2770   -2.3650 N   0  0  0  0  0  0  0  0  0  0  0  0
   11.5660   13.5850   -1.0870 C   0  0  2  0  0  0  0  0  0  0  0  0
   12.5340   13.3500   -0.2410 N   0  0  0  0  0  0  0  0  0  0  0  0
   12.1010   13.4190    1.0230 C   0  0  0  0  0  0  0  0  0  0  0  0
   10.8570   13.7950    1.1230 N   0  0  0  0  0  0  0  0  0  0  0  0
   10.4170   14.0890   -0.2320 C   0  0  2  0  0  0  0  0  0  0  0  0
    8.1390   13.1830    0.1430 N   0  0  0  0  0  0  0  0  0  0  0  0
    7.5400   13.9250    0.3890 H   0  0  0  0  0  0  0  0  0  0  0  0
    7.9060   11.8430    0.6880 C   0  0  0  0  0  0  0  0  0  0  0  0
    9.6310   11.1110    3.8610 C   0  0  0  0  0  0  0  0  0  0  0  0
    9.3450   10.8120    2.5100 C   0  0  0  0  0  0  0  0  0  0  0  0
    8.4910   11.7560    2.0750 C   0  0  0  0  0  0  0  0  0  0  0  0
    8.2550   12.6110    3.0830 O   0  0  0  0  0  0  0  0  0  0  0  0
    8.9440   12.2260    4.1690 C   0  0  0  0  0  0  0  0  0  0  0  0
    9.9340   12.9740   -4.1410 N   0  0  0  0  0  0  0  0  0  0  0  0
   10.5250   13.4320   -4.7810 H   0  0  0  0  0  0  0  0  0  0  0  0
    8.8870   12.2220   -4.5950 N   0  0  0  0  0  0  0  0  0  0  0  0
    9.1670   11.7260   -5.4410 H   0  0  0  0  0  0  0  0  0  0  0  0
    8.6170   11.5480   -3.8780 H   0  0  0  0  0  0  0  0  0  0  0  0
  1 10  1  0  0  0  0
  2  1  2  0  0  0  0
  3  4  2  0  0  0  0
  3  2  1  0  0  0  0
  5  4  1  1  0  0  0
  5  6  1  0  0  0  0
  5  9  1  0  0  0  0
  6  7  1  0  0  0  0
  7  8  1  0  0  0  0
  9  1  1  6  0  0  0
  9  8  1  0  0  0  0
 10 11  1  0  0  0  0
 10 12  1  0  0  0  0
 12 15  1  0  0  0  0
 13 17  2  0  0  0  0
 14 13  1  0  0  0  0
 15 14  2  0  0  0  0
 15 16  1  0  0  0  0
 16 17  1  0  0  0  0
 18  3  1  0  0  0  0
 19 18  1  0  0  0  0
 20 18  1  0  0  0  0
 20 22  1  0  0  0  0
 21 20  1  0  0  0  0
M  END
>  <MODEL>
1

>  <REMARK>
 VINA RESULT:      -7.0      0.000      0.000
  Name = ZINC06536724
                            x       y       z     vdW  Elec       q    Type
                         _______ _______ _______ _____ _____    ______ ____

>  <TORSDO>
F 5

>  <vina_score>
-7.0

$$$$
ZINC19996022
 OpenBabel01091701333D

 27 28  0  0  0  0  0  0  0  0999 V2000
   11.4280   13.4360    1.6570 N   0  0  0  0  0  0  0  0  0  0  0  0
   11.6570   13.4500    0.3260 C   0  0  0  0  0  0  0  0  0  0  0  0
   10.8280   14.3330   -0.5130 C   0  0  0  0  0  0  0  0  0  0  0  0
    9.8030   15.1420    0.1700 C   0  0  0  0  0  0  0  0  0  0  0  0
    9.6870   15.0250    1.5090 N   0  0  0  0  0  0  0  0  0  0  0  0
    9.0070   15.5570    1.9810 H   0  0  0  0  0  0  0  0  0  0  0  0
    9.0830   15.8970   -0.4550 O   0  0  0  0  0  0  0  0  0  0  0  0
   11.0050   14.4000   -1.8830 C   0  0  0  0  0  0  0  0  0  0  0  0
   12.5230   12.7520   -0.1660 O   0  0  0  0  0  0  0  0  0  0  0  0
   10.4760   14.2000    2.2120 C   0  0  0  0  0  0  0  0  0  0  0  0
   10.3220   14.1410    3.4160 O   0  0  0  0  0  0  0  0  0  0  0  0
   15.0660   12.9140    4.9240 C   0  0  0  0  0  0  0  0  0  0  0  0
   13.9730   12.3250    4.0690 C   0  0  0  0  0  0  0  0  0  0  0  0
   13.7350   10.9630    4.0920 C   0  0  0  0  0  0  0  0  0  0  0  0
   12.7330   10.4200    3.3100 C   0  0  0  0  0  0  0  0  0  0  0  0
   11.9630   11.2380    2.5050 C   0  0  0  0  0  0  0  0  0  0  0  0
   12.2040   12.6050    2.4760 C   0  0  0  0  0  0  0  0  0  0  0  0
   13.2110   13.1470    3.2630 C   0  0  0  0  0  0  0  0  0  0  0  0
   10.2060   15.1900   -2.6270 N   0  0  0  0  0  0  0  0  0  0  0  0
   10.3820   16.1580   -2.6810 H   0  0  0  0  0  0  0  0  0  0  0  0
    9.0760   14.6100   -3.3580 C   0  0  0  0  0  0  0  0  0  0  0  0
    8.8750   13.1590   -2.9180 C   0  0  0  0  0  0  0  0  0  0  0  0
    7.7000   13.0800   -1.9420 C   0  0  0  0  0  0  0  0  0  0  0  0
    7.7240   11.7840   -1.2500 N   0  0  0  0  0  0  0  0  0  0  0  0
    8.3740   11.1750   -1.7480 H   0  0  0  0  0  0  0  0  0  0  0  0
    6.4000   11.1490   -1.2760 C   0  0  0  0  0  0  0  0  0  0  0  0
    8.2110   11.9320    0.1280 C   0  0  0  0  0  0  0  0  0  0  0  0
  1 10  1  0  0  0  0
  1 17  1  0  0  0  0
  2  1  1  0  0  0  0
  3  4  1  0  0  0  0
  3  2  1  0  0  0  0
  4  5  1  0  0  0  0
  5  6  1  0  0  0  0
  5 10  1  0  0  0  0
  7  4  2  0  0  0  0
  8  3  2  0  0  0  0
  9  2  2  0  0  0  0
 10 11  2  0  0  0  0
 13 14  1  0  0  0  0
 13 12  1  0  0  0  0
 15 14  2  0  0  0  0
 16 15  1  0  0  0  0
 17 16  2  0  0  0  0
 17 18  1  0  0  0  0
 18 13  2  0  0  0  0
 19  8  1  0  0  0  0
 20 19  1  0  0  0  0
 21 22  1  0  0  0  0
 21 19  1  0  0  0  0
 22 23  1  0  0  0  0
 23 24  1  0  0  0  0
 24 27  1  0  0  0  0
 25 24  1  0  0  0  0
 26 24  1  0  0  0  0
M  END
>  <MODEL>
1

>  <REMARK>
 VINA RESULT:      -6.9      0.000      0.000
  Name = ZINC19996022
                            x       y       z     vdW  Elec       q    Type
                         _______ _______ _______ _____ _____    ______ ____

>  <TORSDO>
F 6

>  <vina_score>
-6.9

$$$$
ZINC12362881
 OpenBabel01091701383D

 22 23  0  0  1  0  0  0  0  0999 V2000
   10.7820   14.0860    1.8740 C   0  0  0  0  0  0  0  0  0  0  0  0
   11.3670   12.6770    2.0800 C   0  0  0  0  0  0  0  0  0  0  0  0
   10.8970   11.8610    1.1140 C   0  0  0  0  0  0  0  0  0  0  0  0
   11.2380   10.5260    0.9350 N   0  0  0  0  0  0  0  0  0  0  0  0
   11.8790   10.0960    1.5470 H   0  0  0  0  0  0  0  0  0  0  0  0
    9.9610   12.6300    0.2870 C   0  0  2  0  0  0  0  0  0  0  0  0
    9.7760   12.6210   -1.2070 C   0  0  0  0  0  0  0  0  0  0  0  0
    9.1980   14.0320   -1.4200 C   0  0  0  0  0  0  0  0  0  0  0  0
    9.6640   14.8470   -0.4540 C   0  0  0  0  0  0  0  0  0  0  0  0
    9.3240   16.1830   -0.2770 N   0  0  0  0  0  0  0  0  0  0  0  0
    9.7200   16.6980    0.4620 H   0  0  0  0  0  0  0  0  0  0  0  0
   10.5940   14.0780    0.3770 C   0  0  1  0  0  0  0  0  0  0  0  0
    8.2780   14.4290   -2.5100 N   0  0  0  0  0  0  0  0  0  0  0  0
    7.1210   14.7140   -2.2570 O   0  0  0  0  0  0  0  0  0  0  0  0
    8.6780   14.4710   -3.6600 O   0  0  0  0  0  0  0  0  0  0  0  0
   12.2920   12.2800    3.1650 N   0  0  0  0  0  0  0  0  0  0  0  0
   13.0150   13.1110    3.6830 O   0  0  0  0  0  0  0  0  0  0  0  0
   12.3320   11.1210    3.5370 O   0  0  0  0  0  0  0  0  0  0  0  0
    8.6400   12.6490    0.9350 C   0  0  0  0  0  0  0  0  0  0  0  0
    7.6200   12.6650    1.4350 N   0  0  0  0  0  0  0  0  0  0  0  0
   11.9150   14.0520   -0.2710 C   0  0  0  0  0  0  0  0  0  0  0  0
   12.9350   14.0320   -0.7720 N   0  0  0  0  0  0  0  0  0  0  0  0
  1  2  1  0  0  0  0
  2 16  1  0  0  0  0
  3  2  2  0  0  0  0
  4  3  1  0  0  0  0
  4  5  1  0  0  0  0
  6 12  1  0  0  0  0
  6 19  1  1  0  0  0
  6  3  1  0  0  0  0
  7  6  1  0  0  0  0
  8  7  1  0  0  0  0
  8  9  2  0  0  0  0
  9 10  1  0  0  0  0
  9 12  1  0  0  0  0
 10 11  1  0  0  0  0
 12 21  1  6  0  0  0
 12  1  1  0  0  0  0
 13 14  2  0  0  0  0
 13  8  1  0  0  0  0
 15 13  2  0  0  0  0
 16 18  2  0  0  0  0
 16 17  2  0  0  0  0
 19 20  3  0  0  0  0
 22 21  3  0  0  0  0
M  END
>  <MODEL>
1

>  <REMARK>
 VINA RESULT:      -6.9      0.000      0.000
  Name = ZINC12362881
                            x       y       z     vdW  Elec       q    Type
                         _______ _______ _______ _____ _____    ______ ____

>  <TORSDO>
F 4

>  <vina_score>
-6.9

$$$$
ZINC16955860
 OpenBabel01091701443D

 28 29  0  0  1  0  0  0  0  0999 V2000
    8.8760   12.1390    1.1620 C   0  0  0  0  0  0  0  0  0  0  0  0
    9.7350   12.5180    0.1190 C   0  0  0  0  0  0  0  0  0  0  0  0
    8.8950   12.8900   -0.9280 C   0  0  0  0  0  0  0  0  0  0  0  0
    7.6130   12.7080   -0.4680 N   0  0  0  0  0  0  0  0  0  0  0  0
    6.7950   12.8840   -0.9840 H   0  0  0  0  0  0  0  0  0  0  0  0
    7.6470   12.2750    0.7410 N   0  0  0  0  0  0  0  0  0  0  0  0
   11.2740   11.1810    3.6350 C   0  0  1  0  0  0  0  0  0  0  0  0
   11.0290   12.6880    3.8940 C   0  0  2  0  0  0  0  0  0  0  0  0
    9.5540   12.8590    3.4540 C   0  0  1  0  0  0  0  0  0  0  0  0
    9.2970   11.6550    2.5260 C   0  0  2  0  0  0  0  0  0  0  0  0
   10.5280   10.9190    2.4250 O   0  0  0  0  0  0  0  0  0  0  0  0
   11.8970   13.4920    3.0920 O   0  0  0  0  0  0  0  0  0  0  0  0
   12.5030   12.9180    2.5980 H   0  0  0  0  0  0  0  0  0  0  0  0
    8.6850   12.8120    4.5860 O   0  0  0  0  0  0  0  0  0  0  0  0
    7.7630   12.7880    4.2860 H   0  0  0  0  0  0  0  0  0  0  0  0
   12.7640   10.9060    3.4180 C   0  0  0  0  0  0  0  0  0  0  0  0
   13.0740   11.0220    2.0290 O   0  0  0  0  0  0  0  0  0  0  0  0
   13.2540   10.1430    1.6620 H   0  0  0  0  0  0  0  0  0  0  0  0
    9.2950   13.3700   -2.2530 C   0  0  0  0  0  0  0  0  0  0  0  0
    8.8860   12.7160   -3.3570 N   0  0  0  0  0  0  0  0  0  0  0  0
    8.3140   11.9190   -3.2750 H   0  0  0  0  0  0  0  0  0  0  0  0
   10.0030   14.3550   -2.3540 O   0  0  0  0  0  0  0  0  0  0  0  0
    9.2640   13.1600   -4.5930 N   0  0  0  0  0  0  0  0  0  0  0  0
   10.0070   13.8520   -4.4930 H   0  0  0  0  0  0  0  0  0  0  0  0
    9.6050   12.3740   -5.1470 H   0  0  0  0  0  0  0  0  0  0  0  0
   11.1280   12.5250    0.1280 N   0  0  0  0  0  0  0  0  0  0  0  0
   11.6160   12.4800    0.9820 H   0  0  0  0  0  0  0  0  0  0  0  0
   11.6260   12.5770   -0.7200 H   0  0  0  0  0  0  0  0  0  0  0  0
  2 26  1  0  0  0  0
  2  1  1  0  0  0  0
  3  4  1  0  0  0  0
  3  2  2  0  0  0  0
  4  6  1  0  0  0  0
  5  4  1  0  0  0  0
  6  1  2  0  0  0  0
  7 16  1  6  0  0  0
  7  8  1  0  0  0  0
  8 12  1  6  0  0  0
  9  8  1  0  0  0  0
  9 14  1  1  0  0  0
 10  1  1  6  0  0  0
 10  9  1  0  0  0  0
 11 10  1  0  0  0  0
 11  7  1  0  0  0  0
 13 12  1  0  0  0  0
 15 14  1  0  0  0  0
 17 16  1  0  0  0  0
 18 17  1  0  0  0  0
 19  3  1  0  0  0  0
 20 21  1  0  0  0  0
 20 19  1  0  0  0  0
 22 19  2  0  0  0  0
 23 24  1  0  0  0  0
 23 20  1  0  0  0  0
 25 23  1  0  0  0  0
 26 27  1  0  0  0  0
 28 26  1  0  0  0  0
M  END
>  <MODEL>
1

>  <REMARK>
 VINA RESULT:      -6.9      0.000      0.000
  Name = ZINC16955860
                            x       y       z     vdW  Elec       q    Type
                         _______ _______ _______ _____ _____    ______ ____

>  <TORSDO>
F 8

>  <vina_score>
-6.9

$$$$
ZINC01871948
 OpenBabel01091701493D

 24 25  0  0  1  0  0  0  0  0999 V2000
    9.8670   12.9370   -3.4520 C   0  0  0  0  0  0  0  0  0  0  0  0
    9.9340   13.9360   -2.3240 C   0  0  0  0  0  0  0  0  0  0  0  0
    9.5160   13.5880   -1.0900 N   0  0  0  0  0  0  0  0  0  0  0  0
    9.0120   12.3580   -0.7430 C   0  0  0  0  0  0  0  0  0  0  0  0
    8.6920   12.3470    0.5590 C   0  0  0  0  0  0  0  0  0  0  0  0
    9.0160   13.6740    1.0950 C   0  0  0  0  0  0  0  0  0  0  0  0
    8.9090   14.2600    2.3560 C   0  0  0  0  0  0  0  0  0  0  0  0
    9.3110   15.5650    2.5380 C   0  0  0  0  0  0  0  0  0  0  0  0
    9.8130   16.2980    1.4740 C   0  0  0  0  0  0  0  0  0  0  0  0
    9.9290   15.7300    0.2220 C   0  0  0  0  0  0  0  0  0  0  0  0
    9.5300   14.4160    0.0180 C   0  0  0  0  0  0  0  0  0  0  0  0
   10.3640   15.0500   -2.5270 O   0  0  0  0  0  0  0  0  0  0  0  0
    8.1100   11.1890    1.3280 C   0  0  2  0  0  0  0  0  0  0  0  0
    9.4510   10.2360    2.0910 S   0  0  0  0  0  0  0  0  0  0  0  0
    9.2090   10.4880    3.8720 C   0  0  0  0  0  0  0  0  0  0  0  0
   10.2840   11.4390    4.4020 C   0  0  0  0  0  0  0  0  0  0  0  0
    9.6320   12.6360    4.9610 N   0  0  0  0  0  0  0  0  0  0  0  0
    9.4130   12.4760    5.9450 H   0  0  0  0  0  0  0  0  0  0  0  0
   10.2590   13.4360    4.8790 H   0  0  0  0  0  0  0  0  0  0  0  0
    8.7710   12.8250    4.4490 H   0  0  0  0  0  0  0  0  0  0  0  0
    7.3220   10.2880    0.3750 C   0  0  0  0  0  0  0  0  0  0  0  0
    5.8960   10.6130    0.4630 N   0  0  0  0  0  0  0  0  0  0  0  0
    5.3740   10.7720    1.5520 O   0  0  0  0  0  0  0  0  0  0  0  0
    5.2330   10.7250   -0.5530 O   0  0  0  0  0  0  0  0  0  0  0  0
  1  2  1  0  0  0  0
  2  3  1  0  0  0  0
  3  4  1  0  0  0  0
  3 11  1  0  0  0  0
  4  5  2  0  0  0  0
  5  6  1  0  0  0  0
  5 13  1  0  0  0  0
  6  7  2  0  0  0  0
  7  8  1  0  0  0  0
  9  8  2  0  0  0  0
 10  9  1  0  0  0  0
 11 10  2  0  0  0  0
 11  6  1  0  0  0  0
 12  2  2  0  0  0  0
 13 21  1  6  0  0  0
 13 14  1  0  0  0  0
 14 15  1  0  0  0  0
 15 16  1  0  0  0  0
 16 17  1  0  0  0  0
 17 18  1  0  0  0  0
 19 17  1  0  0  0  0
 20 17  1  0  0  0  0
 21 22  1  0  0  0  0
 22 23  2  0  0  0  0
 24 22  2  0  0  0  0
M  END
>  <MODEL>
1

>  <REMARK>
 VINA RESULT:      -6.9      0.000      0.000
  Name = ZINC01871948
                            x       y       z     vdW  Elec       q    Type
                         _______ _______ _______ _____ _____    ______ ____

>  <TORSDO>
F 7

>  <vina_score>
-6.9

$$$$
ZINC05998325
 OpenBabel01091701343D

 25 26  0  0  1  0  0  0  0  0999 V2000
   10.6990   14.4240    0.5040 O   0  0  0  0  0  0  0  0  0  0  0  0
   11.2960   11.4310    3.3550 C   0  0  1  0  0  0  0  0  0  0  0  0
   10.8790   12.8040    3.8880 C   0  0  1  0  0  0  0  0  0  0  0  0
   10.2660   13.6230    2.7440 C   0  0  2  0  0  0  0  0  0  0  0  0
   11.2840   13.7250    1.6050 C   0  0  1  0  0  0  0  0  0  0  0  0
   11.6860   12.3160    1.1610 C   0  0  0  0  0  0  0  0  0  0  0  0
   12.2180   11.6000    2.2760 O   0  0  0  0  0  0  0  0  0  0  0  0
   13.2000   10.1540    4.0540 C   0  0  0  0  0  0  0  0  0  0  0  0
   11.9200   10.6830    4.4010 O   0  0  0  0  0  0  0  0  0  0  0  0
    9.9140   12.6390    4.9280 O   0  0  0  0  0  0  0  0  0  0  0  0
    9.0780   13.0540    4.6630 H   0  0  0  0  0  0  0  0  0  0  0  0
    9.9400   14.9330    3.2140 O   0  0  0  0  0  0  0  0  0  0  0  0
   10.7210   15.5040    3.1450 H   0  0  0  0  0  0  0  0  0  0  0  0
   10.2790   13.5750   -0.5670 C   0  0  1  0  0  0  0  0  0  0  0  0
    8.7690   13.7140   -0.7680 C   0  0  1  0  0  0  0  0  0  0  0  0
    8.3370   12.8480   -1.9560 C   0  0  2  0  0  0  0  0  0  0  0  0
    9.1310   13.2700   -3.1960 C   0  0  1  0  0  0  0  0  0  0  0  0
   10.6280   13.1480   -2.9010 C   0  0  0  0  0  0  0  0  0  0  0  0
   10.9560   13.9540   -1.7680 O   0  0  0  0  0  0  0  0  0  0  0  0
    8.0880   13.2820    0.4110 O   0  0  0  0  0  0  0  0  0  0  0  0
    8.6380   12.6370    0.8830 H   0  0  0  0  0  0  0  0  0  0  0  0
    6.9410   13.0300   -2.1970 O   0  0  0  0  0  0  0  0  0  0  0  0
    6.6880   13.9390   -1.9720 H   0  0  0  0  0  0  0  0  0  0  0  0
    8.7880   12.4230   -4.2940 O   0  0  0  0  0  0  0  0  0  0  0  0
    9.5550   12.3290   -4.8810 H   0  0  0  0  0  0  0  0  0  0  0  0
  2  3  1  0  0  0  0
  2  9  1  1  0  0  0
  3 10  1  1  0  0  0
  4 12  1  1  0  0  0
  4  3  1  0  0  0  0
  5  1  1  6  0  0  0
  5  4  1  0  0  0  0
  6  5  1  0  0  0  0
  6  7  1  0  0  0  0
  7  2  1  0  0  0  0
  8  9  1  0  0  0  0
 11 10  1  0  0  0  0
 13 12  1  0  0  0  0
 14  1  1  1  0  0  0
 15 14  1  0  0  0  0
 15 20  1  1  0  0  0
 16 22  1  6  0  0  0
 16 15  1  0  0  0  0
 17 24  1  6  0  0  0
 17 18  1  0  0  0  0
 17 16  1  0  0  0  0
 18 19  1  0  0  0  0
 19 14  1  0  0  0  0
 20 21  1  0  0  0  0
 22 23  1  0  0  0  0
 25 24  1  0  0  0  0
M  END
>  <MODEL>
1

>  <REMARK>
 VINA RESULT:      -6.8      0.000      0.000
  Name = ZINC05998325
                            x       y       z     vdW  Elec       q    Type
                         _______ _______ _______ _____ _____    ______ ____

>  <TORSDO>
F 8

>  <vina_score>
-6.8

$$$$
ZINC20189813
 OpenBabel01091701243D

 25 26  0  0  0  0  0  0  0  0999 V2000
    9.3260   13.0400    0.1510 C   0  0  0  0  0  0  0  0  0  0  0  0
    9.8550   12.7150   -1.0830 C   0  0  0  0  0  0  0  0  0  0  0  0
   10.5860   13.6500   -1.7910 C   0  0  0  0  0  0  0  0  0  0  0  0
   10.7940   14.9120   -1.2640 C   0  0  0  0  0  0  0  0  0  0  0  0
   10.2640   15.2430   -0.0330 C   0  0  0  0  0  0  0  0  0  0  0  0
    9.5290   14.3060    0.6800 C   0  0  0  0  0  0  0  0  0  0  0  0
    8.3930   11.8470    1.0530 S   0  0  0  0  0  0  0  0  0  0  0  0
    7.9020   10.9120    0.1010 O   0  0  0  0  0  0  0  0  0  0  0  0
    7.5340   12.5750    1.9190 O   0  0  0  0  0  0  0  0  0  0  0  0
    9.4550   11.0240    2.0200 N   0  0  0  0  0  0  0  0  0  0  0  0
   12.9050   12.9090    3.4080 C   0  0  0  0  0  0  0  0  0  0  0  0
   11.7010   13.0910    4.0730 C   0  0  0  0  0  0  0  0  0  0  0  0
   10.5570   12.4670    3.6140 C   0  0  0  0  0  0  0  0  0  0  0  0
   10.6140   11.6580    2.4860 C   0  0  0  0  0  0  0  0  0  0  0  0
   11.8200   11.4710    1.8250 C   0  0  0  0  0  0  0  0  0  0  0  0
   12.9610   12.1020    2.2820 C   0  0  0  0  0  0  0  0  0  0  0  0
   14.7820   12.8400    4.8670 C   0  0  0  0  0  0  0  0  0  0  0  0
   14.0300   13.5240    3.8610 O   0  0  0  0  0  0  0  0  0  0  0  0
    9.0100   14.6280    1.8940 O   0  0  0  0  0  0  0  0  0  0  0  0
    9.3990   15.8840    2.4540 C   0  0  0  0  0  0  0  0  0  0  0  0
   11.1620   13.2940   -3.1370 C   0  0  0  0  0  0  0  0  0  0  0  0
   10.0690   13.0830   -4.0970 N   0  0  0  0  0  0  0  0  0  0  0  0
    9.3460   12.5070   -3.6670 H   0  0  0  0  0  0  0  0  0  0  0  0
    9.6730   13.9840   -4.3640 H   0  0  0  0  0  0  0  0  0  0  0  0
   10.4320   12.6120   -4.9260 H   0  0  0  0  0  0  0  0  0  0  0  0
  1  6  1  0  0  0  0
  1  7  1  0  0  0  0
  2  1  2  0  0  0  0
  3  4  2  0  0  0  0
  3  2  1  0  0  0  0
  4  5  1  0  0  0  0
  5  6  2  0  0  0  0
  6 19  1  0  0  0  0
  7  9  2  0  0  0  0
  7 10  1  0  0  0  0
  8  7  2  0  0  0  0
 10 14  1  0  0  0  0
 11 18  1  0  0  0  0
 11 12  2  0  0  0  0
 13 12  1  0  0  0  0
 14 13  2  0  0  0  0
 15 16  2  0  0  0  0
 15 14  1  0  0  0  0
 16 11  1  0  0  0  0
 18 17  1  0  0  0  0
 19 20  1  0  0  0  0
 21  3  1  0  0  0  0
 22 23  1  0  0  0  0
 22 21  1  0  0  0  0
 24 22  1  0  0  0  0
 25 22  1  0  0  0  0
M  END
>  <MODEL>
1

>  <REMARK>
 VINA RESULT:      -6.8      0.000      0.000
  Name = ZINC20189813
                            x       y       z     vdW  Elec       q    Type
                         _______ _______ _______ _____ _____    ______ ____

>  <TORSDO>
F 7

>  <vina_score>
-6.8

$$$$
ZINC04504181
 OpenBabel01091701273D

 24 25  0  0  1  0  0  0  0  0999 V2000
   10.7160   15.2010   -2.7330 N   0  0  0  0  0  0  0  0  0  0  0  0
   10.9120   15.7620   -3.5620 H   0  0  0  0  0  0  0  0  0  0  0  0
    9.8210   15.4780   -2.3280 H   0  0  0  0  0  0  0  0  0  0  0  0
   10.6570   13.7790   -3.1190 C   0  0  0  0  0  0  0  0  0  0  0  0
    9.1930   13.3640   -3.2840 C   0  0  2  0  0  0  0  0  0  0  0  0
    8.9260   10.9840    1.0250 C   0  0  0  0  0  0  0  0  0  0  0  0
    8.5670   11.7920   -0.1440 N   0  0  0  0  0  0  0  0  0  0  0  0
    9.3470   12.0640   -1.1330 N   0  0  0  0  0  0  0  0  0  0  0  0
    8.6790   12.8050   -1.9820 C   0  0  0  0  0  0  0  0  0  0  0  0
    7.4590   12.9740   -1.4720 N   0  0  0  0  0  0  0  0  0  0  0  0
    7.4210   12.3430   -0.3480 N   0  0  0  0  0  0  0  0  0  0  0  0
    9.0910   12.3680   -4.3040 O   0  0  0  0  0  0  0  0  0  0  0  0
    8.2820   11.8510   -4.1710 H   0  0  0  0  0  0  0  0  0  0  0  0
   11.7860   15.4190   -1.7420 C   0  0  0  0  0  0  0  0  0  0  0  0
   11.3140   14.9430   -0.3920 C   0  0  0  0  0  0  0  0  0  0  0  0
   10.1780   15.4920    0.1730 C   0  0  0  0  0  0  0  0  0  0  0  0
    9.7370   15.0540    1.4080 C   0  0  0  0  0  0  0  0  0  0  0  0
   10.4420   14.0730    2.0880 C   0  0  0  0  0  0  0  0  0  0  0  0
   11.5890   13.5260    1.5210 C   0  0  0  0  0  0  0  0  0  0  0  0
   12.0210   13.9640    0.2800 C   0  0  0  0  0  0  0  0  0  0  0  0
   10.0130   13.6460    3.3050 O   0  0  0  0  0  0  0  0  0  0  0  0
    8.6360   13.2760    3.4160 C   0  0  0  0  0  0  0  0  0  0  0  0
   12.2820   12.5610    2.1840 O   0  0  0  0  0  0  0  0  0  0  0  0
   13.2890   12.9990    3.0980 C   0  0  0  0  0  0  0  0  0  0  0  0
  1  3  1  0  0  0  0
  1 14  1  0  0  0  0
  2  1  1  0  0  0  0
  4  1  1  0  0  0  0
  5 12  1  6  0  0  0
  5  4  1  0  0  0  0
  5  9  1  0  0  0  0
  7  6  1  0  0  0  0
  8  7  1  0  0  0  0
  9 10  1  0  0  0  0
  9  8  2  0  0  0  0
 10 11  2  0  0  0  0
 11  7  1  0  0  0  0
 12 13  1  0  0  0  0
 14 15  1  0  0  0  0
 15 16  2  0  0  0  0
 15 20  1  0  0  0  0
 16 17  1  0  0  0  0
 17 18  2  0  0  0  0
 18 21  1  0  0  0  0
 19 18  1  0  0  0  0
 19 23  1  0  0  0  0
 20 19  2  0  0  0  0
 21 22  1  0  0  0  0
 23 24  1  0  0  0  0
M  END
>  <MODEL>
1

>  <REMARK>
 VINA RESULT:      -6.8      0.000      0.000
  Name = ZINC04504181
                            x       y       z     vdW  Elec       q    Type
                         _______ _______ _______ _____ _____    ______ ____

>  <TORSDO>
F 8

>  <vina_score>
-6.8

$$$$
ZINC08554408
 OpenBabel01091701173D

 23 25  0  0  1  0  0  0  0  0999 V2000
    8.6920   12.5490    2.3820 C   0  0  1  0  0  0  0  0  0  0  0  0
    8.6820   11.6150    3.5610 C   0  0  0  0  0  0  0  0  0  0  0  0
    7.9060   10.5580    3.3640 O   0  0  0  0  0  0  0  0  0  0  0  0
    7.1270   10.5130    1.8590 P   0  0  0  0  0  0  0  0  0  0  0  0
    7.7610   10.1540    0.2930 O   0  0  0  0  0  0  0  0  0  0  0  0
    6.7400   10.6290   -0.6100 C   0  0  0  0  0  0  0  0  0  0  0  0
    5.3670   10.5260    0.0590 C   0  0  0  0  0  0  0  0  0  0  0  0
    5.4670   10.7820    1.4710 O   0  0  0  0  0  0  0  0  0  0  0  0
    9.3170   11.8080    4.5840 O   0  0  0  0  0  0  0  0  0  0  0  0
    7.4680   12.2740    1.6090 N   0  0  0  0  0  0  0  0  0  0  0  0
    6.6890   12.8580    1.9120 H   0  0  0  0  0  0  0  0  0  0  0  0
    7.6200   12.4710    0.6200 H   0  0  0  0  0  0  0  0  0  0  0  0
    8.6850   13.9990    2.8680 C   0  0  0  0  0  0  0  0  0  0  0  0
   10.0160   14.6630    2.5090 C   0  0  0  0  0  0  0  0  0  0  0  0
   10.2370   14.3310    0.0670 N   0  0  0  0  0  0  0  0  0  0  0  0
   10.4760   13.3940    0.2490 H   0  0  0  0  0  0  0  0  0  0  0  0
    9.9590   15.1660    1.0890 C   0  0  0  0  0  0  0  0  0  0  0  0
    9.6650   16.3210    0.8650 O   0  0  0  0  0  0  0  0  0  0  0  0
    8.8700   14.0860   -3.3350 C   0  0  0  0  0  0  0  0  0  0  0  0
   10.0950   13.1580   -3.1990 C   0  0  0  0  0  0  0  0  0  0  0  0
   11.0560   13.8530   -2.3800 O   0  0  0  0  0  0  0  0  0  0  0  0
   10.1760   14.8780   -1.4780 P   0  0  0  0  0  0  0  0  0  0  0  0
    8.6560   14.6320   -2.0100 O   0  0  0  0  0  0  0  0  0  0  0  0
  1 13  1  1  0  0  0
  1  2  1  0  0  0  0
  2  9  2  0  0  0  0
  3  2  1  0  0  0  0
  4  3  1  0  0  0  0
  5  4  1  0  0  0  0
  6  7  1  0  0  0  0
  6  5  1  0  0  0  0
  7  8  1  0  0  0  0
  8  4  1  0  0  0  0
 10  4  1  0  0  0  0
 10 11  1  0  0  0  0
 10  1  1  0  0  0  0
 12 10  1  0  0  0  0
 14 13  1  0  0  0  0
 15 16  1  0  0  0  0
 15 17  1  0  0  0  0
 17 14  1  0  0  0  0
 18 17  2  0  0  0  0
 19 20  1  0  0  0  0
 19 23  1  0  0  0  0
 20 21  1  0  0  0  0
 21 22  1  0  0  0  0
 22 15  1  0  0  0  0
 23 22  1  0  0  0  0
M  END
>  <MODEL>
1

>  <REMARK>
 VINA RESULT:      -6.8      0.000      0.000
  Name = ZINC08554408
                            x       y       z     vdW  Elec       q    Type
                         _______ _______ _______ _____ _____    ______ ____

>  <TORSDO>
F 4

>  <vina_score>
-6.8

$$$$
ZINC06094146
 OpenBabel01091701313D

 28 29  0  0  1  0  0  0  0  0999 V2000
    8.9020   11.6610    3.4810 C   0  0  0  0  0  0  0  0  0  0  0  0
    8.9190   11.4350    2.0330 N   0  0  0  0  0  0  0  0  0  0  0  0
    9.7760   11.3030    1.5660 H   0  0  0  0  0  0  0  0  0  0  0  0
    7.7630   11.4080    1.3410 C   0  0  0  0  0  0  0  0  0  0  0  0
    6.7080   11.5700    1.9170 O   0  0  0  0  0  0  0  0  0  0  0  0
    7.7810   11.1750   -0.1480 C   0  0  1  0  0  0  0  0  0  0  0  0
    6.3990   11.2250   -0.6570 N   0  0  0  0  0  0  0  0  0  0  0  0
    5.8480   10.4870   -0.2170 H   0  0  0  0  0  0  0  0  0  0  0  0
    5.9890   12.1330   -0.4380 H   0  0  0  0  0  0  0  0  0  0  0  0
    6.4040   11.0890   -1.6680 H   0  0  0  0  0  0  0  0  0  0  0  0
    8.6380   12.2490   -0.8210 C   0  0  0  0  0  0  0  0  0  0  0  0
    7.7740   13.0520   -1.7970 C   0  0  0  0  0  0  0  0  0  0  0  0
    8.6370   13.5800   -2.9140 C   0  0  0  0  0  0  0  0  0  0  0  0
    9.2990   12.7270   -3.7110 O   0  0  0  0  0  0  0  0  0  0  0  0
    8.7340   14.7720   -3.0910 O   0  0  0  0  0  0  0  0  0  0  0  0
    9.8480   12.8120    3.8280 C   0  0  0  0  0  0  0  0  0  0  0  0
   11.2190   15.3480   -0.7290 C   0  0  0  0  0  0  0  0  0  0  0  0
   12.1590   14.4280   -0.3220 C   0  0  0  0  0  0  0  0  0  0  0  0
   11.9520   13.6890    0.8370 C   0  0  0  0  0  0  0  0  0  0  0  0
   10.7800   13.8890    1.5880 C   0  0  0  0  0  0  0  0  0  0  0  0
   10.8670   12.9740    2.7280 C   0  0  0  0  0  0  0  0  0  0  0  0
   12.0250   12.3070    2.6100 C   0  0  0  0  0  0  0  0  0  0  0  0
    9.8320   14.8240    1.1660 C   0  0  0  0  0  0  0  0  0  0  0  0
   12.6880   12.7200    1.4870 N   0  0  0  0  0  0  0  0  0  0  0  0
   13.5610   12.3760    1.1860 H   0  0  0  0  0  0  0  0  0  0  0  0
   10.0560   15.5490    0.0120 C   0  0  0  0  0  0  0  0  0  0  0  0
    9.1380   16.4610   -0.4050 O   0  0  0  0  0  0  0  0  0  0  0  0
    9.2000   16.8310   -1.2630 H   0  0  0  0  0  0  0  0  0  0  0  0
  1 16  1  0  0  0  0
  2  1  1  0  0  0  0
  3  2  1  0  0  0  0
  4  5  2  0  0  0  0
  4  2  1  0  0  0  0
  6 11  1  6  0  0  0
  6  4  1  0  0  0  0
  7  9  1  0  0  0  0
  7  8  1  0  0  0  0
  7  6  1  0  0  0  0
 10  7  1  0  0  0  0
 12 11  1  0  0  0  0
 13 12  1  0  0  0  0
 14 13  2  0  0  0  0
 15 13  1  0  0  0  0
 17 18  2  0  0  0  0
 17 26  1  0  0  0  0
 18 19  1  0  0  0  0
 19 24  1  0  0  0  0
 19 20  2  0  0  0  0
 20 21  1  0  0  0  0
 21 16  1  0  0  0  0
 22 21  2  0  0  0  0
 23 20  1  0  0  0  0
 24 22  1  0  0  0  0
 25 24  1  0  0  0  0
 26 23  2  0  0  0  0
 27 26  1  0  0  0  0
 28 27  1  0  0  0  0
M  END
>  <MODEL>
1

>  <REMARK>
 VINA RESULT:      -6.8      0.000      0.000
  Name = ZINC06094146
                            x       y       z     vdW  Elec       q    Type
                         _______ _______ _______ _____ _____    ______ ____

>  <TORSDO>
F 9

>  <vina_score>
-6.8

$$$$
ZINC13354670
 OpenBabel01091701363D

 27 28  0  0  1  0  0  0  0  0999 V2000
    9.4700   12.0990    3.1220 C   0  0  0  0  0  0  0  0  0  0  0  0
    9.5490   11.4080    1.9670 N   0  0  0  0  0  0  0  0  0  0  0  0
   10.2150   11.6580    1.2870 H   0  0  0  0  0  0  0  0  0  0  0  0
    8.6490   11.7900    3.9590 O   0  0  0  0  0  0  0  0  0  0  0  0
   10.4020   13.2570    3.3710 C   0  0  0  0  0  0  0  0  0  0  0  0
   12.3440   13.8610   -0.8520 C   0  0  0  0  0  0  0  0  0  0  0  0
   11.8590   14.9790   -1.5160 C   0  0  0  0  0  0  0  0  0  0  0  0
   10.9050   15.7830   -0.9320 C   0  0  0  0  0  0  0  0  0  0  0  0
   10.4210   15.4740    0.3350 C   0  0  0  0  0  0  0  0  0  0  0  0
   10.9170   14.3390    1.0040 C   0  0  0  0  0  0  0  0  0  0  0  0
   10.2200   14.2920    2.2910 C   0  0  0  0  0  0  0  0  0  0  0  0
    9.3830   15.3410    2.3240 C   0  0  0  0  0  0  0  0  0  0  0  0
    9.4940   16.0620    1.1660 N   0  0  0  0  0  0  0  0  0  0  0  0
    8.9870   16.8790    0.9580 H   0  0  0  0  0  0  0  0  0  0  0  0
   11.8840   13.5380    0.3930 C   0  0  0  0  0  0  0  0  0  0  0  0
    8.6420   10.2830    1.7250 C   0  0  0  0  0  0  0  0  0  0  0  0
    7.8040   10.5630    0.4760 C   0  0  0  0  0  0  0  0  0  0  0  0
    7.8680   12.0540    0.1410 C   0  0  0  0  0  0  0  0  0  0  0  0
    8.7930   12.2680   -1.0590 C   0  0  0  0  0  0  0  0  0  0  0  0
    8.0160   12.9540   -2.1860 C   0  0  1  0  0  0  0  0  0  0  0  0
    7.2200   14.0740   -1.6520 N   0  0  0  0  0  0  0  0  0  0  0  0
    7.8450   14.8270   -1.3640 H   0  0  0  0  0  0  0  0  0  0  0  0
    6.5870   14.4160   -2.3750 H   0  0  0  0  0  0  0  0  0  0  0  0
    6.6790   13.7550   -0.8490 H   0  0  0  0  0  0  0  0  0  0  0  0
    8.9830   13.4850   -3.2120 C   0  0  0  0  0  0  0  0  0  0  0  0
    8.8000   14.7070   -3.7360 O   0  0  0  0  0  0  0  0  0  0  0  0
    9.9190   12.8090   -3.5670 O   0  0  0  0  0  0  0  0  0  0  0  0
  1  5  1  0  0  0  0
  1  4  2  0  0  0  0
  2  1  1  0  0  0  0
  3  2  1  0  0  0  0
  6 15  2  0  0  0  0
  7  8  2  0  0  0  0
  7  6  1  0  0  0  0
  8  9  1  0  0  0  0
  9 10  2  0  0  0  0
  9 13  1  0  0  0  0
 10 11  1  0  0  0  0
 11 12  2  0  0  0  0
 11  5  1  0  0  0  0
 13 12  1  0  0  0  0
 14 13  1  0  0  0  0
 15 10  1  0  0  0  0
 16  2  1  0  0  0  0
 17 16  1  0  0  0  0
 18 17  1  0  0  0  0
 19 18  1  0  0  0  0
 20 25  1  6  0  0  0
 20 21  1  0  0  0  0
 20 19  1  0  0  0  0
 21 22  1  0  0  0  0
 21 24  1  0  0  0  0
 23 21  1  0  0  0  0
 26 25  2  0  0  0  0
 27 25  1  0  0  0  0
M  END
>  <MODEL>
1

>  <REMARK>
 VINA RESULT:      -6.7      0.000      0.000
  Name = ZINC13354670
                            x       y       z     vdW  Elec       q    Type
                         _______ _______ _______ _____ _____    ______ ____

>  <TORSDO>
F 9

>  <vina_score>
-6.7

$$$$
ZINC06030283
 OpenBabel01091701393D

 30 30  0  0  1  0  0  0  0  0999 V2000
   10.0430   13.2360   -0.0270 C   0  0  2  0  0  0  0  0  0  0  0  0
   10.0060   14.4190   -0.9980 C   0  0  1  0  0  0  0  0  0  0  0  0
    9.4910   13.9360   -2.3580 C   0  0  1  0  0  0  0  0  0  0  0  0
    8.1130   13.2940   -2.1710 C   0  0  1  0  0  0  0  0  0  0  0  0
    8.2230   12.1550   -1.1540 C   0  0  1  0  0  0  0  0  0  0  0  0
    8.7370   12.6650    0.0770 O   0  0  0  0  0  0  0  0  0  0  0  0
    9.0980   15.4580   -0.4760 N   0  0  0  0  0  0  0  0  0  0  0  0
    8.3780   15.6490   -1.1720 H   0  0  0  0  0  0  0  0  0  0  0  0
    8.6700   15.1280    0.3890 H   0  0  0  0  0  0  0  0  0  0  0  0
    9.8460   16.7000   -0.2060 C   0  0  0  0  0  0  0  0  0  0  0  0
    9.3830   15.0480   -3.2500 O   0  0  0  0  0  0  0  0  0  0  0  0
    9.7670   15.8360   -2.8340 H   0  0  0  0  0  0  0  0  0  0  0  0
    7.1900   14.2740   -1.6910 O   0  0  0  0  0  0  0  0  0  0  0  0
    7.5380   14.6760   -0.8800 H   0  0  0  0  0  0  0  0  0  0  0  0
   10.4700   13.6890    1.2590 O   0  0  0  0  0  0  0  0  0  0  0  0
    9.6200   13.2770    2.3320 C   0  0  2  0  0  0  0  0  0  0  0  0
    8.8180   14.4560    2.8190 C   0  0  0  0  0  0  0  0  0  0  0  0
    9.2770   15.5690    2.7480 O   0  0  0  0  0  0  0  0  0  0  0  0
   10.4750   12.7330    3.4790 C   0  0  1  0  0  0  0  0  0  0  0  0
   12.5610   11.7670    2.4980 C   0  0  0  0  0  0  0  0  0  0  0  0
   11.1640   11.4410    3.0310 C   0  0  2  0  0  0  0  0  0  0  0  0
   10.3920   10.8230    1.9990 O   0  0  0  0  0  0  0  0  0  0  0  0
   10.7760    9.9590    1.7820 H   0  0  0  0  0  0  0  0  0  0  0  0
   11.4630   13.7000    3.8370 O   0  0  0  0  0  0  0  0  0  0  0  0
   11.6960   14.2280    3.0570 H   0  0  0  0  0  0  0  0  0  0  0  0
    9.5970   12.4470    4.6690 C   0  0  0  0  0  0  0  0  0  0  0  0
    8.8590   11.4910    4.6610 O   0  0  0  0  0  0  0  0  0  0  0  0
    6.8390   11.5460   -0.9170 C   0  0  0  0  0  0  0  0  0  0  0  0
    5.9780   11.8820   -2.0070 O   0  0  0  0  0  0  0  0  0  0  0  0
    5.0710   11.9880   -1.6820 H   0  0  0  0  0  0  0  0  0  0  0  0
  1  6  1  0  0  0  0
  1 15  1  1  0  0  0
  2  7  1  1  0  0  0
  2  1  1  0  0  0  0
  3 11  1  6  0  0  0
  3  4  1  0  0  0  0
  3  2  1  0  0  0  0
  4 13  1  1  0  0  0
  4  5  1  0  0  0  0
  5 28  1  1  0  0  0
  5  6  1  0  0  0  0
  7 10  1  0  0  0  0
  7  9  1  0  0  0  0
  8  7  1  0  0  0  0
 11 12  1  0  0  0  0
 13 14  1  0  0  0  0
 16 15  1  6  0  0  0
 16 17  1  0  0  0  0
 16 19  1  0  0  0  0
 18 17  2  0  0  0  0
 19 24  1  1  0  0  0
 19 26  1  0  0  0  0
 20 21  1  0  0  0  0
 21 22  1  6  0  0  0
 21 19  1  0  0  0  0
 23 22  1  0  0  0  0
 25 24  1  0  0  0  0
 27 26  2  0  0  0  0
 29 30  1  0  0  0  0
 29 28  1  0  0  0  0
M  END
>  <MODEL>
1

>  <REMARK>
 VINA RESULT:      -6.7      0.000      0.000
  Name = ZINC06030283
                            x       y       z     vdW  Elec       q    Type
                         _______ _______ _______ _____ _____    ______ ____

>  <TORSDO>
F 13

>  <vina_score>
-6.7

$$$$
ZINC21063225
 OpenBabel01091701443D

 22 23  0  0  0  0  0  0  0  0999 V2000
   11.6750   15.0030   -2.0300 C   0  0  0  0  0  0  0  0  0  0  0  0
   12.3180   14.6800   -0.8490 C   0  0  0  0  0  0  0  0  0  0  0  0
   11.7190   13.8170    0.0490 C   0  0  0  0  0  0  0  0  0  0  0  0
   10.4830   13.2700   -0.2380 C   0  0  0  0  0  0  0  0  0  0  0  0
    9.8400   13.5930   -1.4180 C   0  0  0  0  0  0  0  0  0  0  0  0
   10.4370   14.4610   -2.3140 C   0  0  0  0  0  0  0  0  0  0  0  0
    9.8320   12.3250    0.7400 C   0  0  0  0  0  0  0  0  0  0  0  0
    8.8850   13.2750    1.9610 S   0  0  0  0  0  0  0  0  0  0  0  0
    9.1780   14.6600    1.8360 O   0  0  0  0  0  0  0  0  0  0  0  0
    7.5400   12.8190    1.9980 O   0  0  0  0  0  0  0  0  0  0  0  0
    9.5200   12.8390    3.4260 N   0  0  0  0  0  0  0  0  0  0  0  0
   10.8340   12.4130    3.5110 C   0  0  0  0  0  0  0  0  0  0  0  0
   11.8060   13.3130    3.5340 N   0  0  0  0  0  0  0  0  0  0  0  0
   13.0720   12.9400    3.6160 C   0  0  0  0  0  0  0  0  0  0  0  0
   13.3760   11.5890    3.6770 C   0  0  0  0  0  0  0  0  0  0  0  0
   12.3350   10.6740    3.6500 C   0  0  0  0  0  0  0  0  0  0  0  0
   11.0900   11.1140    3.5680 N   0  0  0  0  0  0  0  0  0  0  0  0
    8.4890   13.0010   -1.7280 C   0  0  0  0  0  0  0  0  0  0  0  0
    7.4610   14.0450   -1.6150 N   0  0  0  0  0  0  0  0  0  0  0  0
    7.8910   14.9610   -1.7390 H   0  0  0  0  0  0  0  0  0  0  0  0
    6.7520   13.9020   -2.3360 H   0  0  0  0  0  0  0  0  0  0  0  0
    7.0240   13.9950   -0.6940 H   0  0  0  0  0  0  0  0  0  0  0  0
  1  2  1  0  0  0  0
  2  3  2  0  0  0  0
  4  3  1  0  0  0  0
  4  7  1  0  0  0  0
  5  4  2  0  0  0  0
  6  1  2  0  0  0  0
  6  5  1  0  0  0  0
  7  8  1  0  0  0  0
  8 10  2  0  0  0  0
  8 11  1  0  0  0  0
  9  8  2  0  0  0  0
 11 12  1  0  0  0  0
 12 13  2  0  0  0  0
 12 17  1  0  0  0  0
 13 14  1  0  0  0  0
 14 15  2  0  0  0  0
 16 15  1  0  0  0  0
 17 16  2  0  0  0  0
 18 19  1  0  0  0  0
 18  5  1  0  0  0  0
 19 22  1  0  0  0  0
 20 19  1  0  0  0  0
 21 19  1  0  0  0  0
M  END
>  <MODEL>
1

>  <REMARK>
 VINA RESULT:      -6.7      0.000      0.000
  Name = ZINC21063225
                            x       y       z     vdW  Elec       q    Type
                         _______ _______ _______ _____ _____    ______ ____

>  <TORSDO>
F 6

>  <vina_score>
-6.7

$$$$
ZINC03978077
 OpenBabel01091701243D

 23 24  0  0  1  0  0  0  0  0999 V2000
    9.6460   13.0970    1.6450 C   0  0  2  0  0  0  0  0  0  0  0  0
    9.2290   13.6800    3.0200 C   0  0  2  0  0  0  0  0  0  0  0  0
    9.1190   12.4060    3.8920 C   0  0  1  0  0  0  0  0  0  0  0  0
    9.9670   11.3610    3.1430 C   0  0  2  0  0  0  0  0  0  0  0  0
   10.5360   12.0110    1.9940 O   0  0  0  0  0  0  0  0  0  0  0  0
    7.9680   14.3470    2.9290 O   0  0  0  0  0  0  0  0  0  0  0  0
    7.8280   14.8850    3.7230 H   0  0  0  0  0  0  0  0  0  0  0  0
    9.6540   12.6450    5.1950 O   0  0  0  0  0  0  0  0  0  0  0  0
   10.0140   13.5450    5.2370 H   0  0  0  0  0  0  0  0  0  0  0  0
   10.3820   14.1500    0.8140 C   0  0  0  0  0  0  0  0  0  0  0  0
    9.0060   13.9680   -1.1950 C   0  0  0  0  0  0  0  0  0  0  0  0
    8.8660   13.7050   -2.4690 N   0  0  0  0  0  0  0  0  0  0  0  0
    9.9160   13.3100   -3.2020 C   0  0  0  0  0  0  0  0  0  0  0  0
   11.1130   13.1850   -2.6450 N   0  0  0  0  0  0  0  0  0  0  0  0
   11.2770   13.4530   -1.3470 C   0  0  0  0  0  0  0  0  0  0  0  0
   12.3760   13.3390   -0.8300 O   0  0  0  0  0  0  0  0  0  0  0  0
   10.2190   13.8510   -0.6110 N   0  0  0  0  0  0  0  0  0  0  0  0
    9.7530   13.0330   -4.5360 N   0  0  0  0  0  0  0  0  0  0  0  0
    8.9020   13.2480   -4.9830 H   0  0  0  0  0  0  0  0  0  0  0  0
   10.4850   12.6170   -5.0460 H   0  0  0  0  0  0  0  0  0  0  0  0
    9.0820   10.1960    2.6950 C   0  0  0  0  0  0  0  0  0  0  0  0
    7.7320   10.4420    3.0920 O   0  0  0  0  0  0  0  0  0  0  0  0
    7.2150    9.6270    3.0040 H   0  0  0  0  0  0  0  0  0  0  0  0
  1 10  1  6  0  0  0
  1  5  1  0  0  0  0
  1  2  1  0  0  0  0
  2  6  1  6  0  0  0
  2  3  1  0  0  0  0
  3  8  1  1  0  0  0
  4 21  1  6  0  0  0
  4  3  1  0  0  0  0
  5  4  1  0  0  0  0
  6  7  1  0  0  0  0
  8  9  1  0  0  0  0
 11 17  1  0  0  0  0
 12 11  2  0  0  0  0
 13 14  2  0  0  0  0
 13 12  1  0  0  0  0
 14 15  1  0  0  0  0
 15 16  2  0  0  0  0
 15 17  1  0  0  0  0
 17 10  1  0  0  0  0
 18 13  1  0  0  0  0
 19 18  1  0  0  0  0
 20 18  1  0  0  0  0
 21 22  1  0  0  0  0
 23 22  1  0  0  0  0
M  END
>  <MODEL>
1

>  <REMARK>
 VINA RESULT:      -6.7      0.000      0.000
  Name = ZINC03978077
                            x       y       z     vdW  Elec       q    Type
                         _______ _______ _______ _____ _____    ______ ____

>  <TORSDO>
F 7

>  <vina_score>
-6.7

$$$$
ZINC27239387
 OpenBabel01091701273D

 25 26  0  0  0  0  0  0  0  0999 V2000
    8.4970   12.2430    1.2990 C   0  0  0  0  0  0  0  0  0  0  0  0
    7.4870   12.7820    1.6980 O   0  0  0  0  0  0  0  0  0  0  0  0
   11.8810   13.8180   -2.0220 C   0  0  0  0  0  0  0  0  0  0  0  0
   10.6160   13.3830   -1.4230 N   0  0  0  0  0  0  0  0  0  0  0  0
   10.4460   13.0360   -0.1390 C   0  0  0  0  0  0  0  0  0  0  0  0
    9.1170   12.6850    0.0460 C   0  0  0  0  0  0  0  0  0  0  0  0
    8.4740   12.8310   -1.2070 C   0  0  0  0  0  0  0  0  0  0  0  0
    9.4160   13.2660   -2.0890 C   0  0  0  0  0  0  0  0  0  0  0  0
    9.1920   13.5540   -3.5120 C   0  0  0  0  0  0  0  0  0  0  0  0
    8.9090   14.8110   -3.9080 N   0  0  0  0  0  0  0  0  0  0  0  0
    8.7600   15.0050   -4.8610 H   0  0  0  0  0  0  0  0  0  0  0  0
    8.8530   15.5350   -3.2440 H   0  0  0  0  0  0  0  0  0  0  0  0
    9.2630   12.6590   -4.3340 O   0  0  0  0  0  0  0  0  0  0  0  0
    9.1150   11.1190    2.0900 C   0  0  0  0  0  0  0  0  0  0  0  0
   10.0070   11.6760    3.1160 N   0  0  0  0  0  0  0  0  0  0  0  0
   10.0190   12.6890    3.0030 H   0  0  0  0  0  0  0  0  0  0  0  0
    9.5080   11.3780    4.4650 C   0  0  0  0  0  0  0  0  0  0  0  0
   11.3800   11.1860    2.9410 C   0  0  0  0  0  0  0  0  0  0  0  0
   12.3530   12.2430    3.3960 C   0  0  0  0  0  0  0  0  0  0  0  0
   13.5230   11.8850    3.9610 N   0  0  0  0  0  0  0  0  0  0  0  0
   13.9730   10.5050    4.1990 C   0  0  0  0  0  0  0  0  0  0  0  0
   15.3530   10.5860    4.8850 C   0  0  0  0  0  0  0  0  0  0  0  0
   15.3440   12.0040    5.5140 C   0  0  0  0  0  0  0  0  0  0  0  0
   14.5610   12.8110    4.4480 C   0  0  0  0  0  0  0  0  0  0  0  0
   12.0830   13.4170    3.2530 O   0  0  0  0  0  0  0  0  0  0  0  0
  1  2  2  0  0  0  0
  1 14  1  0  0  0  0
  3  4  1  0  0  0  0
  4  5  1  0  0  0  0
  5  6  2  0  0  0  0
  6  1  1  0  0  0  0
  7  6  1  0  0  0  0
  8  4  1  0  0  0  0
  8  7  2  0  0  0  0
  9  8  1  0  0  0  0
 10  9  1  0  0  0  0
 10 12  1  0  0  0  0
 11 10  1  0  0  0  0
 13  9  2  0  0  0  0
 14 15  1  0  0  0  0
 15 17  1  0  0  0  0
 16 15  1  0  0  0  0
 18 15  1  0  0  0  0
 18 19  1  0  0  0  0
 19 20  1  0  0  0  0
 20 21  1  0  0  0  0
 20 24  1  0  0  0  0
 21 22  1  0  0  0  0
 22 23  1  0  0  0  0
 24 23  1  0  0  0  0
 25 19  2  0  0  0  0
M  END
>  <MODEL>
1

>  <REMARK>
 VINA RESULT:      -6.7      0.000      0.000
  Name = ZINC27239387
                            x       y       z     vdW  Elec       q    Type
                         _______ _______ _______ _____ _____    ______ ____

>  <TORSDO>
F 6

>  <vina_score>
-6.7

$$$$
ZINC04650547
 OpenBabel01091701273D

 25 25  0  0  1  0  0  0  0  0999 V2000
    9.3380   16.0580    2.5140 C   0  0  0  0  0  0  0  0  0  0  0  0
    9.8960   15.2010    1.4070 C   0  0  0  0  0  0  0  0  0  0  0  0
   10.3510   15.7180    0.4150 O   0  0  0  0  0  0  0  0  0  0  0  0
    9.8850   13.7000    1.5380 C   0  0  2  0  0  0  0  0  0  0  0  0
    8.7110   13.2530    2.3840 C   0  0  0  0  0  0  0  0  0  0  0  0
    8.4980   13.5420    3.5360 O   0  0  0  0  0  0  0  0  0  0  0  0
    7.8720   12.3830    1.5110 C   0  0  0  0  0  0  0  0  0  0  0  0
    6.8430   11.8440    1.8650 O   0  0  0  0  0  0  0  0  0  0  0  0
    8.3990   12.2780    0.2850 N   0  0  0  0  0  0  0  0  0  0  0  0
   11.0690   13.0860    0.7730 C   0  0  0  0  0  0  0  0  0  0  0  0
   11.9260   12.2790    1.7140 C   0  0  0  0  0  0  0  0  0  0  0  0
   12.6060   12.9150    2.7350 C   0  0  0  0  0  0  0  0  0  0  0  0
   13.3870   12.1620    3.5980 C   0  0  0  0  0  0  0  0  0  0  0  0
   13.4660   10.7940    3.3930 C   0  0  0  0  0  0  0  0  0  0  0  0
   12.7640   10.2280    2.3470 C   0  0  0  0  0  0  0  0  0  0  0  0
   12.0250   10.9740    1.5480 N   0  0  0  0  0  0  0  0  0  0  0  0
    7.8060   11.4990   -0.8040 C   0  0  0  0  0  0  0  0  0  0  0  0
    7.2130   12.4470   -1.8480 C   0  0  0  0  0  0  0  0  0  0  0  0
    7.6240   13.8280   -1.5350 N   0  0  0  0  0  0  0  0  0  0  0  0
    6.7950   14.3820   -1.3190 H   0  0  0  0  0  0  0  0  0  0  0  0
    8.2550   13.8180   -0.7330 H   0  0  0  0  0  0  0  0  0  0  0  0
    8.3170   14.4310   -2.6900 C   0  0  0  0  0  0  0  0  0  0  0  0
    9.8100   14.1060   -2.6050 C   0  0  0  0  0  0  0  0  0  0  0  0
   10.5590   15.3210   -2.5400 O   0  0  0  0  0  0  0  0  0  0  0  0
   11.0430   15.3580   -1.7000 H   0  0  0  0  0  0  0  0  0  0  0  0
  2  4  1  0  0  0  0
  2  1  1  0  0  0  0
  3  2  2  0  0  0  0
  4 10  1  1  0  0  0
  4  5  1  0  0  0  0
  5  6  2  0  0  0  0
  7  8  2  0  0  0  0
  7  5  1  0  0  0  0
  9  7  1  0  0  0  0
 10 11  1  0  0  0  0
 11 12  1  0  0  0  0
 12 13  2  0  0  0  0
 14 13  1  0  0  0  0
 15 14  2  0  0  0  0
 16 11  2  0  0  0  0
 16 15  1  0  0  0  0
 17  9  1  0  0  0  0
 18 19  1  0  0  0  0
 18 17  1  0  0  0  0
 19 20  1  0  0  0  0
 19 21  1  0  0  0  0
 22 23  1  0  0  0  0
 22 19  1  0  0  0  0
 23 24  1  0  0  0  0
 24 25  1  0  0  0  0
M  END
>  <MODEL>
1

>  <REMARK>
 VINA RESULT:      -6.7      0.000      0.000
  Name = ZINC04650547
                            x       y       z     vdW  Elec       q    Type
                         _______ _______ _______ _____ _____    ______ ____

>  <TORSDO>
F 7

>  <vina_score>
-6.7

$$$$
ZINC06244515
 OpenBabel01091701313D

 26 27  0  0  1  0  0  0  0  0999 V2000
   10.0470   14.5600   -1.2560 C   0  0  0  0  0  0  0  0  0  0  0  0
    9.3270   13.5400   -0.6380 C   0  0  0  0  0  0  0  0  0  0  0  0
    8.4190   12.7990   -1.4170 C   0  0  2  0  0  0  0  0  0  0  0  0
    8.2870   13.0960   -2.7050 N   0  0  0  0  0  0  0  0  0  0  0  0
    8.9960   14.0720   -3.2500 C   0  0  0  0  0  0  0  0  0  0  0  0
    9.8600   14.7890   -2.5460 N   0  0  0  0  0  0  0  0  0  0  0  0
   10.3730   15.5040   -2.9900 H   0  0  0  0  0  0  0  0  0  0  0  0
    9.5110   13.2450    0.8030 C   0  0  0  0  0  0  0  0  0  0  0  0
    8.5840   13.7080    1.7370 C   0  0  0  0  0  0  0  0  0  0  0  0
    8.7610   13.4310    3.0760 C   0  0  0  0  0  0  0  0  0  0  0  0
    9.8560   12.6940    3.4950 C   0  0  0  0  0  0  0  0  0  0  0  0
   10.0720   12.3480    5.1820 Cl  0  0  0  0  0  0  0  0  0  0  0  0
   10.7790   12.2310    2.5730 C   0  0  0  0  0  0  0  0  0  0  0  0
   10.6120   12.5040    1.2300 C   0  0  0  0  0  0  0  0  0  0  0  0
   12.1730   11.3010    3.1150 S   0  0  0  0  0  0  0  0  0  0  0  0
   12.8880   10.7960    1.8690 O   0  0  0  0  0  0  0  0  0  0  0  0
   11.6620   10.1540    3.7810 O   0  0  0  0  0  0  0  0  0  0  0  0
   13.0540   12.2180    3.7460 O   0  0  0  0  0  0  0  0  0  0  0  0
    7.6750   11.7790   -0.8500 N   0  0  0  0  0  0  0  0  0  0  0  0
    7.8580   10.8420   -1.0940 H   0  0  0  0  0  0  0  0  0  0  0  0
    6.9650   11.9890   -0.2020 H   0  0  0  0  0  0  0  0  0  0  0  0
    8.8300   14.3530   -4.5950 N   0  0  0  0  0  0  0  0  0  0  0  0
    7.9270   14.4860   -4.9630 H   0  0  0  0  0  0  0  0  0  0  0  0
    9.6150   14.4200   -5.1840 H   0  0  0  0  0  0  0  0  0  0  0  0
   12.4550   15.0090   -0.8690 C   0  0  0  0  0  0  0  0  0  0  0  0
   11.0280   15.3890   -0.4670 C   0  0  0  0  0  0  0  0  0  0  0  0
  1  2  2  0  0  0  0
  1 26  1  0  0  0  0
  2  8  1  0  0  0  0
  3 19  1  1  0  0  0
  3  2  1  0  0  0  0
  4  3  1  0  0  0  0
  5  4  2  0  0  0  0
  5  6  1  0  0  0  0
  6  1  1  0  0  0  0
  7  6  1  0  0  0  0
  8 14  2  0  0  0  0
  8  9  1  0  0  0  0
  9 10  2  0  0  0  0
 10 11  1  0  0  0  0
 11 12  1  0  0  0  0
 13 15  1  0  0  0  0
 13 11  2  0  0  0  0
 14 13  1  0  0  0  0
 15 18  2  0  0  0  0
 15 17  1  0  0  0  0
 16 15  2  0  0  0  0
 19 21  1  0  0  0  0
 20 19  1  0  0  0  0
 22  5  1  0  0  0  0
 23 22  1  0  0  0  0
 24 22  1  0  0  0  0
 25 26  1  0  0  0  0
M  END
>  <MODEL>
1

>  <REMARK>
 VINA RESULT:      -6.7      0.000      0.000
  Name = ZINC06244515
                            x       y       z     vdW  Elec       q    Type
                         _______ _______ _______ _____ _____    ______ ____

>  <TORSDO>
F 5

>  <vina_score>
-6.7

$$$$
ZINC31687708
 OpenBabel01091700343D

 24 24  0  0  0  0  0  0  0  0999 V2000
    8.1200   13.6320   -0.4510 N   0  0  0  0  0  0  0  0  0  0  0  0
    7.7530   14.5420   -0.5250 H   0  0  0  0  0  0  0  0  0  0  0  0
   10.1140   15.0570    0.8920 C   0  0  0  0  0  0  0  0  0  0  0  0
    9.5190   13.8380    1.4430 N   0  0  0  0  0  0  0  0  0  0  0  0
    8.5360   13.1700    0.7370 C   0  0  0  0  0  0  0  0  0  0  0  0
    7.9830   12.0150    1.2770 C   0  0  0  0  0  0  0  0  0  0  0  0
    8.4410   11.5660    2.5190 C   0  0  0  0  0  0  0  0  0  0  0  0
    9.4020   12.2530    3.1660 N   0  0  0  0  0  0  0  0  0  0  0  0
    9.8780   11.7770    4.4680 C   0  0  0  0  0  0  0  0  0  0  0  0
    7.9730   10.5550    3.0160 O   0  0  0  0  0  0  0  0  0  0  0  0
    9.9270   13.3720    2.6380 C   0  0  0  0  0  0  0  0  0  0  0  0
   10.7890   13.9730    3.2490 O   0  0  0  0  0  0  0  0  0  0  0  0
    8.2040   12.8600   -1.5290 C   0  0  0  0  0  0  0  0  0  0  0  0
    7.0850   12.2290   -2.0120 N   0  0  0  0  0  0  0  0  0  0  0  0
    7.1480   11.6570   -2.8110 H   0  0  0  0  0  0  0  0  0  0  0  0
    6.2190   12.3490   -1.5600 H   0  0  0  0  0  0  0  0  0  0  0  0
    9.3840   12.6960   -2.1450 N   0  0  0  0  0  0  0  0  0  0  0  0
    9.7350   13.5090   -3.1290 C   0  0  0  0  0  0  0  0  0  0  0  0
   10.8830   13.2760   -3.8290 N   0  0  0  0  0  0  0  0  0  0  0  0
   11.0680   13.7830   -4.6520 H   0  0  0  0  0  0  0  0  0  0  0  0
   11.5240   12.5990   -3.5120 H   0  0  0  0  0  0  0  0  0  0  0  0
    8.9520   14.5810   -3.4410 N   0  0  0  0  0  0  0  0  0  0  0  0
    8.5390   15.1150   -2.7250 H   0  0  0  0  0  0  0  0  0  0  0  0
    8.7980   14.8200   -4.3850 H   0  0  0  0  0  0  0  0  0  0  0  0
  1  5  1  0  0  0  0
  2  1  1  0  0  0  0
  3  4  1  0  0  0  0
  4 11  1  0  0  0  0
  5  6  2  0  0  0  0
  5  4  1  0  0  0  0
  6  7  1  0  0  0  0
  7 10  2  0  0  0  0
  7  8  1  0  0  0  0
  8  9  1  0  0  0  0
 11  8  1  0  0  0  0
 11 12  2  0  0  0  0
 13  1  1  0  0  0  0
 14 16  1  0  0  0  0
 14 13  1  0  0  0  0
 15 14  1  0  0  0  0
 17 13  2  0  0  0  0
 18 17  2  0  0  0  0
 19 21  1  0  0  0  0
 19 18  1  0  0  0  0
 20 19  1  0  0  0  0
 22 18  1  0  0  0  0
 22 23  1  0  0  0  0
 24 22  1  0  0  0  0
M  END
>  <MODEL>
1

>  <REMARK>
 VINA RESULT:      -6.6      0.000      0.000
  Name = ZINC31687708
                            x       y       z     vdW  Elec       q    Type
                         _______ _______ _______ _____ _____    ______ ____

>  <TORSDO>
F 5

>  <vina_score>
-6.6

$$$$
ZINC19731960
 OpenBabel01091701323D

 23 24  0  0  1  0  0  0  0  0999 V2000
   11.8140   13.4510    2.3510 C   0  0  0  0  0  0  0  0  0  0  0  0
   11.0240   12.9910    3.5780 C   0  0  0  0  0  0  0  0  0  0  0  0
    9.6400   14.7350    2.6280 C   0  0  0  0  0  0  0  0  0  0  0  0
    9.6850   13.5960    3.5540 N   0  0  0  0  0  0  0  0  0  0  0  0
    9.4820   13.9450    4.4910 H   0  0  0  0  0  0  0  0  0  0  0  0
    8.6630   12.5980    3.2120 C   0  0  2  0  0  0  0  0  0  0  0  0
    9.2540   11.1850    3.3400 C   0  0  0  0  0  0  0  0  0  0  0  0
    8.3040   10.1540    2.6820 C   0  0  0  0  0  0  0  0  0  0  0  0
    7.4590   11.1520    1.3890 S   0  0  0  0  0  0  0  0  0  0  0  0
    7.8910   10.7110    0.1090 O   0  0  0  0  0  0  0  0  0  0  0  0
    6.0690   11.2030    1.6800 O   0  0  0  0  0  0  0  0  0  0  0  0
    8.2050   12.8000    1.7380 C   0  0  0  0  0  0  0  0  0  0  0  0
   12.2290   12.2330    1.5250 C   0  0  0  0  0  0  0  0  0  0  0  0
   11.3220   12.0640    0.4350 O   0  0  0  0  0  0  0  0  0  0  0  0
   11.2440   13.0780   -0.4660 C   0  0  0  0  0  0  0  0  0  0  0  0
   12.3530   13.8750   -0.7130 C   0  0  0  0  0  0  0  0  0  0  0  0
   12.2760   14.9070   -1.6290 C   0  0  0  0  0  0  0  0  0  0  0  0
   11.0940   15.1480   -2.3020 C   0  0  0  0  0  0  0  0  0  0  0  0
    9.9780   14.3590   -2.0540 C   0  0  0  0  0  0  0  0  0  0  0  0
   10.0560   13.3180   -1.1380 C   0  0  0  0  0  0  0  0  0  0  0  0
    8.7810   14.6070   -2.7300 N   0  0  0  0  0  0  0  0  0  0  0  0
    8.6530   15.4580   -3.2090 H   0  0  0  0  0  0  0  0  0  0  0  0
    8.0650   13.9310   -2.7270 H   0  0  0  0  0  0  0  0  0  0  0  0
  1  2  1  0  0  0  0
  3  4  1  0  0  0  0
  4  2  1  0  0  0  0
  4  5  1  0  0  0  0
  6  7  1  0  0  0  0
  6  4  1  6  0  0  0
  8  7  1  0  0  0  0
  9 11  2  0  0  0  0
  9 12  1  0  0  0  0
  9  8  1  0  0  0  0
 10  9  2  0  0  0  0
 12  6  1  0  0  0  0
 13  1  1  0  0  0  0
 14 13  1  0  0  0  0
 15 14  1  0  0  0  0
 16 15  1  0  0  0  0
 17 16  2  0  0  0  0
 18 19  2  0  0  0  0
 18 17  1  0  0  0  0
 19 20  1  0  0  0  0
 20 15  2  0  0  0  0
 21 23  1  0  0  0  0
 21 19  1  0  0  0  0
 22 21  1  0  0  0  0
M  END
>  <MODEL>
1

>  <REMARK>
 VINA RESULT:      -6.6      0.000      0.000
  Name = ZINC19731960
                            x       y       z     vdW  Elec       q    Type
                         _______ _______ _______ _____ _____    ______ ____

>  <TORSDO>
F 7

>  <vina_score>
-6.6

$$$$
ZINC06413685
 OpenBabel01091701353D

 23 24  0  0  0  0  0  0  0  0999 V2000
    8.4810   14.2910    2.9510 C   0  0  0  0  0  0  0  0  0  0  0  0
    9.4660   13.2090    2.8770 N   0  0  0  0  0  0  0  0  0  0  0  0
   10.4180   13.2070    1.8700 C   0  0  0  0  0  0  0  0  0  0  0  0
   11.3420   12.1680    1.8240 C   0  0  0  0  0  0  0  0  0  0  0  0
   12.1610   12.4210    0.7310 N   0  0  0  0  0  0  0  0  0  0  0  0
   11.7150   13.5760    0.1680 C   0  0  0  0  0  0  0  0  0  0  0  0
   11.2830   11.1530    2.7950 C   0  0  0  0  0  0  0  0  0  0  0  0
   10.3320   11.2080    3.7520 N   0  0  0  0  0  0  0  0  0  0  0  0
   10.2670   10.1540    4.7650 C   0  0  0  0  0  0  0  0  0  0  0  0
   12.0810   10.2330    2.7740 O   0  0  0  0  0  0  0  0  0  0  0  0
   10.6840   14.0290    0.8540 N   0  0  0  0  0  0  0  0  0  0  0  0
    9.4420   12.2140    3.7840 C   0  0  0  0  0  0  0  0  0  0  0  0
    8.5950   12.2290    4.6570 O   0  0  0  0  0  0  0  0  0  0  0  0
   12.4070   14.3470   -1.2570 S   0  0  0  0  0  0  0  0  0  0  0  0
   11.0290   15.4180   -1.7360 C   0  0  0  0  0  0  0  0  0  0  0  0
    9.8750   14.5720   -2.2100 C   0  0  0  0  0  0  0  0  0  0  0  0
    8.7010   14.6040   -1.5510 N   0  0  0  0  0  0  0  0  0  0  0  0
    8.5970   15.1800   -0.7600 H   0  0  0  0  0  0  0  0  0  0  0  0
   10.0050   13.8630   -3.1850 O   0  0  0  0  0  0  0  0  0  0  0  0
    7.5800   13.7810   -2.0120 C   0  0  0  0  0  0  0  0  0  0  0  0
    7.6470   12.4060   -1.3440 C   0  0  0  0  0  0  0  0  0  0  0  0
    6.7850   11.4980   -2.0320 O   0  0  0  0  0  0  0  0  0  0  0  0
    6.9570   10.5940   -1.7260 H   0  0  0  0  0  0  0  0  0  0  0  0
  2  1  1  0  0  0  0
  2 12  1  0  0  0  0
  3  2  1  0  0  0  0
  4  3  2  0  0  0  0
  4  7  1  0  0  0  0
  5  4  1  0  0  0  0
  6  5  1  0  0  0  0
  6 11  2  0  0  0  0
  7  8  1  0  0  0  0
  8 12  1  0  0  0  0
  8  9  1  0  0  0  0
 10  7  2  0  0  0  0
 11  3  1  0  0  0  0
 12 13  2  0  0  0  0
 14  6  1  0  0  0  0
 15 14  1  0  0  0  0
 16 15  1  0  0  0  0
 16 17  1  0  0  0  0
 17 18  1  0  0  0  0
 19 16  2  0  0  0  0
 20 17  1  0  0  0  0
 20 21  1  0  0  0  0
 22 23  1  0  0  0  0
 22 21  1  0  0  0  0
M  END
>  <MODEL>
1

>  <REMARK>
 VINA RESULT:      -6.6      0.000      0.000
  Name = ZINC06413685
                            x       y       z     vdW  Elec       q    Type
                         _______ _______ _______ _____ _____    ______ ____

>  <TORSDO>
F 6

>  <vina_score>
-6.6

$$$$
ZINC14964419
 OpenBabel01091701403D

 32 34  0  0  0  0  0  0  0  0999 V2000
    9.4390   11.1890    3.7050 S   0  0  0  0  0  0  0  0  0  0  0  0
    9.3680   10.1540    4.6760 O   0  0  0  0  0  0  0  0  0  0  0  0
    8.6240   12.3510    3.7710 O   0  0  0  0  0  0  0  0  0  0  0  0
   11.3900   13.1060    3.6520 C   0  0  0  0  0  0  0  0  0  0  0  0
   12.7080   13.5410    3.6350 C   0  0  0  0  0  0  0  0  0  0  0  0
   13.7380   12.6200    3.6470 C   0  0  0  0  0  0  0  0  0  0  0  0
   13.4560   11.2660    3.6760 C   0  0  0  0  0  0  0  0  0  0  0  0
   12.1440   10.8310    3.6990 C   0  0  0  0  0  0  0  0  0  0  0  0
   11.1100   11.7460    3.6820 C   0  0  0  0  0  0  0  0  0  0  0  0
   10.3450   14.0350    3.6410 N   0  0  0  0  0  0  0  0  0  0  0  0
   10.0560   14.4610    4.4800 H   0  0  0  0  0  0  0  0  0  0  0  0
    9.6830   14.3750    2.3800 C   0  0  0  0  0  0  0  0  0  0  0  0
   10.7340   14.7760    1.3430 C   0  0  0  0  0  0  0  0  0  0  0  0
    9.6580   16.9030    0.9220 C   0  0  0  0  0  0  0  0  0  0  0  0
   10.0910   15.6260    0.3190 N   0  0  0  0  0  0  0  0  0  0  0  0
    9.2730   15.1390   -0.0490 H   0  0  0  0  0  0  0  0  0  0  0  0
   11.0350   15.8840   -0.7880 C   0  0  0  0  0  0  0  0  0  0  0  0
    9.1380   10.4830    2.2380 N   0  0  0  0  0  0  0  0  0  0  0  0
    8.7000    9.6010    2.1960 H   0  0  0  0  0  0  0  0  0  0  0  0
    9.5030   11.1320    1.0670 C   0  0  0  0  0  0  0  0  0  0  0  0
   10.8440   11.2600    0.7250 C   0  0  0  0  0  0  0  0  0  0  0  0
   11.1960   11.9080   -0.4370 C   0  0  0  0  0  0  0  0  0  0  0  0
   10.2260   12.4400   -1.2850 C   0  0  0  0  0  0  0  0  0  0  0  0
    8.8970   12.3200   -0.9670 C   0  0  0  0  0  0  0  0  0  0  0  0
    7.7980   12.8580   -1.8440 C   0  0  0  0  0  0  0  0  0  0  0  0
    8.3510   13.8860   -2.8290 C   0  0  0  0  0  0  0  0  0  0  0  0
    9.5600   13.2680   -3.5430 C   0  0  0  0  0  0  0  0  0  0  0  0
   10.7000   13.1390   -2.5340 C   0  0  0  0  0  0  0  0  0  0  0  0
    8.5240   11.6650    0.2180 C   0  0  0  0  0  0  0  0  0  0  0  0
    7.0980   11.5370    0.5690 C   0  0  0  0  0  0  0  0  0  0  0  0
    6.2620   10.8620   -0.2450 O   0  0  0  0  0  0  0  0  0  0  0  0
    6.6770   12.0400    1.5920 O   0  0  0  0  0  0  0  0  0  0  0  0
  1  3  2  0  0  0  0
  1  2  2  0  0  0  0
  4  9  2  0  0  0  0
  5  6  2  0  0  0  0
  5  4  1  0  0  0  0
  6  7  1  0  0  0  0
  7  8  2  0  0  0  0
  9  8  1  0  0  0  0
  9  1  1  0  0  0  0
 10  4  1  0  0  0  0
 10 11  1  0  0  0  0
 12 10  1  0  0  0  0
 13 12  1  0  0  0  0
 15 14  1  0  0  0  0
 15 13  1  0  0  0  0
 16 15  1  0  0  0  0
 17 15  1  0  0  0  0
 18  1  1  0  0  0  0
 19 18  1  0  0  0  0
 20 18  1  0  0  0  0
 21 20  1  0  0  0  0
 22 21  2  0  0  0  0
 23 24  2  0  0  0  0
 23 22  1  0  0  0  0
 24 29  1  0  0  0  0
 25 24  1  0  0  0  0
 26 25  1  0  0  0  0
 27 26  1  0  0  0  0
 27 28  1  0  0  0  0
 28 23  1  0  0  0  0
 29 30  1  0  0  0  0
 29 20  2  0  0  0  0
 30 32  1  0  0  0  0
 31 30  2  0  0  0  0
M  END
>  <MODEL>
1

>  <REMARK>
 VINA RESULT:      -6.6      0.000      0.000
  Name = ZINC14964419
                            x       y       z     vdW  Elec       q    Type
                         _______ _______ _______ _____ _____    ______ ____

>  <TORSDO>
F 8

>  <vina_score>
-6.6

$$$$
ZINC31768924
 OpenBabel01091701243D

 25 26  0  0  0  0  0  0  0  0999 V2000
    8.9960   13.3570   -2.8380 C   0  0  0  0  0  0  0  0  0  0  0  0
    8.3250   11.7490   -1.0810 N   0  0  0  0  0  0  0  0  0  0  0  0
    9.2050   11.3190   -1.1830 H   0  0  0  0  0  0  0  0  0  0  0  0
    8.0070   12.8190   -1.8360 C   0  0  0  0  0  0  0  0  0  0  0  0
    6.9240   13.3500   -1.7090 O   0  0  0  0  0  0  0  0  0  0  0  0
    7.3770   11.5380    1.1690 N   0  0  0  0  0  0  0  0  0  0  0  0
    7.4100   11.2530   -0.1530 C   0  0  0  0  0  0  0  0  0  0  0  0
    6.3900   10.3900   -0.4130 C   0  0  0  0  0  0  0  0  0  0  0  0
    5.7140   10.1540    0.7860 C   0  0  0  0  0  0  0  0  0  0  0  0
    6.3020   10.8390    1.7330 N   0  0  0  0  0  0  0  0  0  0  0  0
    8.2970   12.4260    1.8820 C   0  0  0  0  0  0  0  0  0  0  0  0
    9.3430   12.5300    4.1490 C   0  0  0  0  0  0  0  0  0  0  0  0
    9.0530   11.6280    2.9470 C   0  0  0  0  0  0  0  0  0  0  0  0
    9.6720   14.6050   -2.2680 C   0  0  0  0  0  0  0  0  0  0  0  0
   10.3800   14.2560   -1.0340 N   0  0  0  0  0  0  0  0  0  0  0  0
    9.8730   14.0700   -0.2110 H   0  0  0  0  0  0  0  0  0  0  0  0
   11.7260   14.1910   -1.0250 C   0  0  0  0  0  0  0  0  0  0  0  0
   12.3530   14.4220   -2.0420 O   0  0  0  0  0  0  0  0  0  0  0  0
   12.4100   13.8550    0.1680 C   0  0  0  0  0  0  0  0  0  0  0  0
   11.9020   12.9100    0.9970 C   0  0  0  0  0  0  0  0  0  0  0  0
   12.5870   12.5740    2.1910 C   0  0  0  0  0  0  0  0  0  0  0  0
   12.7730   11.3020    2.6900 C   0  0  0  0  0  0  0  0  0  0  0  0
   13.5030   11.4430    3.8810 C   0  0  0  0  0  0  0  0  0  0  0  0
   13.7210   12.7650    4.0620 C   0  0  0  0  0  0  0  0  0  0  0  0
   13.1700   13.4420    3.0450 O   0  0  0  0  0  0  0  0  0  0  0  0
  1 14  1  0  0  0  0
  1  4  1  0  0  0  0
  2  7  1  0  0  0  0
  3  2  1  0  0  0  0
  4  5  2  0  0  0  0
  4  2  1  0  0  0  0
  6 10  1  0  0  0  0
  6 11  1  0  0  0  0
  7  6  1  0  0  0  0
  8  7  2  0  0  0  0
  8  9  1  0  0  0  0
  9 10  2  0  0  0  0
 11 13  1  0  0  0  0
 13 12  1  0  0  0  0
 14 15  1  0  0  0  0
 15 17  1  0  0  0  0
 15 16  1  0  0  0  0
 17 19  1  0  0  0  0
 18 17  2  0  0  0  0
 19 20  2  0  0  0  0
 20 21  1  0  0  0  0
 21 22  2  0  0  0  0
 21 25  1  0  0  0  0
 22 23  1  0  0  0  0
 23 24  2  0  0  0  0
 25 24  1  0  0  0  0
M  END
>  <MODEL>
1

>  <REMARK>
 VINA RESULT:      -6.6      0.000      0.000
  Name = ZINC31768924
                            x       y       z     vdW  Elec       q    Type
                         _______ _______ _______ _____ _____    ______ ____

>  <TORSDO>
F 8

>  <vina_score>
-6.6

$$$$
ZINC31448830
 OpenBabel01091701403D

 25 26  0  0  1  0  0  0  0  0999 V2000
    9.7020   14.8540   -1.0550 C   0  0  0  0  0  0  0  0  0  0  0  0
    8.5040   14.2890   -0.9990 N   0  0  0  0  0  0  0  0  0  0  0  0
    7.8660   14.5710   -0.3050 H   0  0  0  0  0  0  0  0  0  0  0  0
    8.1530   13.3460   -1.8710 C   0  0  1  0  0  0  0  0  0  0  0  0
    9.0680   12.9470   -2.8410 C   0  0  0  0  0  0  0  0  0  0  0  0
   10.3180   13.5590   -2.8650 C   0  0  0  0  0  0  0  0  0  0  0  0
   10.5970   14.4980   -1.9660 N   0  0  0  0  0  0  0  0  0  0  0  0
    6.8970   12.7650   -1.8090 N   0  0  0  0  0  0  0  0  0  0  0  0
    6.2170   12.9870   -2.4860 H   0  0  0  0  0  0  0  0  0  0  0  0
    6.6830   12.1310   -1.0860 H   0  0  0  0  0  0  0  0  0  0  0  0
   11.2600   13.1930   -3.8150 N   0  0  0  0  0  0  0  0  0  0  0  0
   11.1020   13.3910   -4.7660 H   0  0  0  0  0  0  0  0  0  0  0  0
   12.0870   12.7360   -3.5380 H   0  0  0  0  0  0  0  0  0  0  0  0
   10.1170   16.1030    0.1150 S   0  0  0  0  0  0  0  0  0  0  0  0
    9.5160   15.3230    1.6340 C   0  0  0  0  0  0  0  0  0  0  0  0
   10.4880   14.2200    2.0590 C   0  0  0  0  0  0  0  0  0  0  0  0
    7.0690   11.0680    1.3920 C   0  0  0  0  0  0  0  0  0  0  0  0
    8.4270   11.1300    2.0940 C   0  0  0  0  0  0  0  0  0  0  0  0
    8.4700   10.1550    3.2730 C   0  0  0  0  0  0  0  0  0  0  0  0
    8.7260   12.5400    2.5630 C   0  0  0  0  0  0  0  0  0  0  0  0
    9.8410   12.9140    1.9060 N   0  0  0  0  0  0  0  0  0  0  0  0
   10.2890   11.9440    1.1010 C   0  0  0  0  0  0  0  0  0  0  0  0
   11.2830   12.0440    0.4090 O   0  0  0  0  0  0  0  0  0  0  0  0
    8.0910   13.1960    3.3610 O   0  0  0  0  0  0  0  0  0  0  0  0
    9.5150   10.8440    1.1440 N   0  0  0  0  0  0  0  0  0  0  0  0
  1  2  1  0  0  0  0
  1 14  1  0  0  0  0
  2  3  1  0  0  0  0
  4  8  1  1  0  0  0
  4  2  1  0  0  0  0
  5  4  1  0  0  0  0
  6  5  2  0  0  0  0
  6  7  1  0  0  0  0
  7  1  2  0  0  0  0
  8 10  1  0  0  0  0
  9  8  1  0  0  0  0
 11 13  1  0  0  0  0
 11  6  1  0  0  0  0
 12 11  1  0  0  0  0
 14 15  1  0  0  0  0
 15 16  1  0  0  0  0
 17 18  1  0  0  0  0
 18 20  1  0  0  0  0
 18 19  1  0  0  0  0
 20 24  2  0  0  0  0
 21 16  1  0  0  0  0
 21 20  1  0  0  0  0
 22 25  1  0  0  0  0
 22 21  1  0  0  0  0
 23 22  2  0  0  0  0
 25 18  1  0  0  0  0
M  END
>  <MODEL>
1

>  <REMARK>
 VINA RESULT:      -6.6      0.000      0.000
  Name = ZINC31448830
                            x       y       z     vdW  Elec       q    Type
                         _______ _______ _______ _____ _____    ______ ____

>  <TORSDO>
F 6

>  <vina_score>
-6.6

$$$$
ZINC19672148
 OpenBabel01091701403D

 22 23  0  0  0  0  0  0  0  0999 V2000
   10.1630   14.1310    0.8480 C   0  0  0  0  0  0  0  0  0  0  0  0
   11.3630   13.5620    0.4630 C   0  0  0  0  0  0  0  0  0  0  0  0
   11.5990   13.2910   -0.8690 C   0  0  0  0  0  0  0  0  0  0  0  0
   10.6420   13.5960   -1.8260 C   0  0  0  0  0  0  0  0  0  0  0  0
    9.4470   14.1670   -1.4440 C   0  0  0  0  0  0  0  0  0  0  0  0
    8.3750   14.5110   -2.4450 C   0  0  0  0  0  0  0  0  0  0  0  0
    8.9320   14.5520   -3.8000 N   0  0  0  0  0  0  0  0  0  0  0  0
    8.1690   14.6560   -4.4700 H   0  0  0  0  0  0  0  0  0  0  0  0
    9.5730   15.3420   -3.8760 H   0  0  0  0  0  0  0  0  0  0  0  0
    9.6580   13.3060   -4.0910 C   0  0  0  0  0  0  0  0  0  0  0  0
   10.9480   13.2930   -3.2700 C   0  0  0  0  0  0  0  0  0  0  0  0
    9.2110   14.4340   -0.1030 C   0  0  0  0  0  0  0  0  0  0  0  0
    9.8550   14.4780    2.5480 S   0  0  0  0  0  0  0  0  0  0  0  0
   10.9880   14.0130    3.2690 O   0  0  0  0  0  0  0  0  0  0  0  0
    9.4090   15.8250    2.6140 O   0  0  0  0  0  0  0  0  0  0  0  0
    8.5770   13.5330    3.0150 N   0  0  0  0  0  0  0  0  0  0  0  0
    7.9950   14.1060    3.6260 H   0  0  0  0  0  0  0  0  0  0  0  0
    8.8190   12.2720    3.7210 C   0  0  0  0  0  0  0  0  0  0  0  0
    8.9480   11.1350    2.7040 C   0  0  0  0  0  0  0  0  0  0  0  0
    8.0710   11.4380    1.4880 C   0  0  0  0  0  0  0  0  0  0  0  0
    5.9950   10.2500    1.3260 C   0  0  0  0  0  0  0  0  0  0  0  0
    6.6950   11.3740    1.8650 O   0  0  0  0  0  0  0  0  0  0  0  0
  1 13  1  0  0  0  0
  2  1  1  0  0  0  0
  3  2  2  0  0  0  0
  4  5  2  0  0  0  0
  4  3  1  0  0  0  0
  5 12  1  0  0  0  0
  6  5  1  0  0  0  0
  7  6  1  0  0  0  0
  8  7  1  0  0  0  0
  9  7  1  0  0  0  0
 10  7  1  0  0  0  0
 10 11  1  0  0  0  0
 11  4  1  0  0  0  0
 12  1  2  0  0  0  0
 13 15  2  0  0  0  0
 13 16  1  0  0  0  0
 13 14  2  0  0  0  0
 16 17  1  0  0  0  0
 16 18  1  0  0  0  0
 19 18  1  0  0  0  0
 20 22  1  0  0  0  0
 20 19  1  0  0  0  0
 21 22  1  0  0  0  0
M  END
>  <MODEL>
1

>  <REMARK>
 VINA RESULT:      -6.6      0.000      0.000
  Name = ZINC19672148
                            x       y       z     vdW  Elec       q    Type
                         _______ _______ _______ _____ _____    ______ ____

>  <TORSDO>
F 6

>  <vina_score>
-6.6

$$$$
ZINC17005558
 OpenBabel01091701433D

 28 28  0  0  1  0  0  0  0  0999 V2000
    9.6570   12.6010    0.6490 C   0  0  1  0  0  0  0  0  0  0  0  0
   10.7710   12.6840    1.5950 N   0  0  0  0  0  0  0  0  0  0  0  0
   11.9440   12.0480    1.3190 C   0  0  0  0  0  0  0  0  0  0  0  0
   12.9680   12.1320    2.2010 C   0  0  0  0  0  0  0  0  0  0  0  0
   12.7890   12.8780    3.3850 C   0  0  0  0  0  0  0  0  0  0  0  0
   11.6290   13.4810    3.6120 N   0  0  0  0  0  0  0  0  0  0  0  0
   10.6320   13.3890    2.7340 C   0  0  0  0  0  0  0  0  0  0  0  0
    9.5750   13.9510    2.9660 O   0  0  0  0  0  0  0  0  0  0  0  0
   13.8120   12.9810    4.2990 N   0  0  0  0  0  0  0  0  0  0  0  0
   13.6090   13.0620    5.2590 H   0  0  0  0  0  0  0  0  0  0  0  0
   14.7480   12.9730    3.9930 H   0  0  0  0  0  0  0  0  0  0  0  0
   10.2860   12.7740   -1.0440 S   0  0  0  0  0  0  0  0  0  0  0  0
    9.6090   14.3610   -1.6030 C   0  0  0  0  0  0  0  0  0  0  0  0
   10.0490   16.1040    0.1320 C   0  0  0  0  0  0  0  0  0  0  0  0
   10.5470   15.4930   -1.1800 C   0  0  0  0  0  0  0  0  0  0  0  0
   11.9590   14.9380   -0.9800 C   0  0  0  0  0  0  0  0  0  0  0  0
    8.9620   11.2460    0.7980 C   0  0  1  0  0  0  0  0  0  0  0  0
    9.8600   10.3150    1.4060 O   0  0  0  0  0  0  0  0  0  0  0  0
    9.7480   10.3400    2.3690 H   0  0  0  0  0  0  0  0  0  0  0  0
    7.7190   11.4030    1.6760 C   0  0  1  0  0  0  0  0  0  0  0  0
    7.2220   12.7380    1.5640 O   0  0  0  0  0  0  0  0  0  0  0  0
    6.2600   12.7160    1.4420 H   0  0  0  0  0  0  0  0  0  0  0  0
    6.6420   10.4170    1.2180 C   0  0  1  0  0  0  0  0  0  0  0  0
    5.3530   10.9230    1.5710 O   0  0  0  0  0  0  0  0  0  0  0  0
    4.8310   10.2180    1.9850 H   0  0  0  0  0  0  0  0  0  0  0  0
    6.7230   10.2440   -0.3000 C   0  0  0  0  0  0  0  0  0  0  0  0
    5.9230   11.2410   -0.9370 O   0  0  0  0  0  0  0  0  0  0  0  0
    5.0990   11.3610   -0.4390 H   0  0  0  0  0  0  0  0  0  0  0  0
  1 12  1  6  0  0  0
  1 17  1  0  0  0  0
  1  2  1  0  0  0  0
  2  7  1  0  0  0  0
  3  2  1  0  0  0  0
  3  4  2  0  0  0  0
  4  5  1  0  0  0  0
  5  6  2  0  0  0  0
  5  9  1  0  0  0  0
  7  8  2  0  0  0  0
  7  6  1  0  0  0  0
  9 10  1  0  0  0  0
 11  9  1  0  0  0  0
 13 15  1  0  0  0  0
 13 12  1  0  0  0  0
 15 16  1  0  0  0  0
 15 14  1  0  0  0  0
 17 18  1  1  0  0  0
 17 20  1  0  0  0  0
 18 19  1  0  0  0  0
 20 21  1  6  0  0  0
 22 21  1  0  0  0  0
 23 26  1  6  0  0  0
 23 24  1  0  0  0  0
 23 20  1  0  0  0  0
 24 25  1  0  0  0  0
 27 28  1  0  0  0  0
 27 26  1  0  0  0  0
M  END
>  <MODEL>
1

>  <REMARK>
 VINA RESULT:      -6.6      0.000      0.000
  Name = ZINC17005558
                            x       y       z     vdW  Elec       q    Type
                         _______ _______ _______ _____ _____    ______ ____

>  <TORSDO>
F 13

>  <vina_score>
-6.6

$$$$
ZINC03376800
 OpenBabel01091701433D

 25 26  0  0  0  0  0  0  0  0999 V2000
   11.6550   12.7640    3.3300 C   0  0  0  0  0  0  0  0  0  0  0  0
   12.4870   13.2040    4.0970 O   0  0  0  0  0  0  0  0  0  0  0  0
    9.2440   14.5870    2.6030 C   0  0  0  0  0  0  0  0  0  0  0  0
   10.4020   14.1910    1.7220 C   0  0  0  0  0  0  0  0  0  0  0  0
   10.6080   14.5770    0.3790 C   0  0  0  0  0  0  0  0  0  0  0  0
   11.7890   13.9880   -0.0380 C   0  0  0  0  0  0  0  0  0  0  0  0
   12.4030   14.1250   -1.4070 C   0  0  0  0  0  0  0  0  0  0  0  0
   12.2970   13.2760    0.9780 N   0  0  0  0  0  0  0  0  0  0  0  0
   13.1350   12.7600    0.9500 H   0  0  0  0  0  0  0  0  0  0  0  0
   11.4600   13.3800    2.0700 C   0  0  0  0  0  0  0  0  0  0  0  0
    9.7300   15.4440   -0.4250 C   0  0  0  0  0  0  0  0  0  0  0  0
    9.5910   16.6130   -0.1260 O   0  0  0  0  0  0  0  0  0  0  0  0
    9.0800   14.9400   -1.4920 O   0  0  0  0  0  0  0  0  0  0  0  0
    8.5100   13.6120   -1.3490 C   0  0  0  0  0  0  0  0  0  0  0  0
   10.8310   11.5640    3.7180 C   0  0  0  0  0  0  0  0  0  0  0  0
   10.6180   10.4850    2.2740 S   0  0  0  0  0  0  0  0  0  0  0  0
    8.9470   10.7560    1.7830 C   0  0  0  0  0  0  0  0  0  0  0  0
    8.4190   10.4900    0.5510 N   0  0  0  0  0  0  0  0  0  0  0  0
    8.9060   10.1150   -0.2180 H   0  0  0  0  0  0  0  0  0  0  0  0
    7.0980   10.8370    0.5750 C   0  0  0  0  0  0  0  0  0  0  0  0
    6.8210   11.2960    1.7700 N   0  0  0  0  0  0  0  0  0  0  0  0
    7.9910   11.2400    2.5380 N   0  0  0  0  0  0  0  0  0  0  0  0
    6.2050   10.7220   -0.4830 N   0  0  0  0  0  0  0  0  0  0  0  0
    5.4200   11.3140   -0.5310 H   0  0  0  0  0  0  0  0  0  0  0  0
    6.3570   10.0480   -1.1840 H   0  0  0  0  0  0  0  0  0  0  0  0
  1 15  1  0  0  0  0
  1  2  2  0  0  0  0
  4 10  2  0  0  0  0
  4  3  1  0  0  0  0
  5  4  1  0  0  0  0
  6  5  2  0  0  0  0
  6  8  1  0  0  0  0
  7  6  1  0  0  0  0
  8 10  1  0  0  0  0
  9  8  1  0  0  0  0
 10  1  1  0  0  0  0
 11 12  2  0  0  0  0
 11  5  1  0  0  0  0
 13 14  1  0  0  0  0
 13 11  1  0  0  0  0
 16 15  1  0  0  0  0
 17 16  1  0  0  0  0
 17 22  2  0  0  0  0
 18 20  1  0  0  0  0
 18 17  1  0  0  0  0
 19 18  1  0  0  0  0
 20 21  2  0  0  0  0
 21 22  1  0  0  0  0
 23 20  1  0  0  0  0
 24 23  1  0  0  0  0
 25 23  1  0  0  0  0
M  END
>  <MODEL>
1

>  <REMARK>
 VINA RESULT:      -6.6      0.000      0.000
  Name = ZINC03376800
                            x       y       z     vdW  Elec       q    Type
                         _______ _______ _______ _____ _____    ______ ____

>  <TORSDO>
F 7

>  <vina_score>
-6.6

$$$$
ZINC20676572
 OpenBabel01091701433D

 28 30  0  0  0  0  0  0  0  0999 V2000
   11.8830   15.4310   -1.7140 C   0  0  0  0  0  0  0  0  0  0  0  0
   10.7920   14.6030   -2.3410 C   0  0  0  0  0  0  0  0  0  0  0  0
    9.4990   14.8990   -2.0980 N   0  0  0  0  0  0  0  0  0  0  0  0
    9.2680   15.6550   -1.5120 H   0  0  0  0  0  0  0  0  0  0  0  0
   11.0760   13.6700   -3.0620 O   0  0  0  0  0  0  0  0  0  0  0  0
    8.4370   14.0930   -2.7070 C   0  0  0  0  0  0  0  0  0  0  0  0
    7.7010   13.3120   -1.6170 C   0  0  0  0  0  0  0  0  0  0  0  0
    8.6080   12.2010   -1.0850 C   0  0  0  0  0  0  0  0  0  0  0  0
    7.8230   11.2890   -0.2430 N   0  0  0  0  0  0  0  0  0  0  0  0
    8.2650   10.3710   -0.2840 H   0  0  0  0  0  0  0  0  0  0  0  0
    6.4480   11.1570   -0.7470 C   0  0  0  0  0  0  0  0  0  0  0  0
    5.6860   10.1540    0.1220 C   0  0  0  0  0  0  0  0  0  0  0  0
    5.7240   10.5860    1.4860 O   0  0  0  0  0  0  0  0  0  0  0  0
    7.0470   10.7250    2.0090 C   0  0  0  0  0  0  0  0  0  0  0  0
    7.8230   11.7340    1.1590 C   0  0  0  0  0  0  0  0  0  0  0  0
   12.8520   14.5130   -0.9650 C   0  0  0  0  0  0  0  0  0  0  0  0
   12.1350   13.3300   -0.4880 N   0  0  0  0  0  0  0  0  0  0  0  0
   11.7630   12.6850   -1.1340 H   0  0  0  0  0  0  0  0  0  0  0  0
    9.2770   14.9170    2.3280 C   0  0  0  0  0  0  0  0  0  0  0  0
    9.7780   14.2440    3.4030 N   0  0  0  0  0  0  0  0  0  0  0  0
    9.4370   14.2850    4.3260 H   0  0  0  0  0  0  0  0  0  0  0  0
   10.8430   13.4990    2.9630 C   0  0  0  0  0  0  0  0  0  0  0  0
   10.9560   13.7630    1.5870 C   0  0  0  0  0  0  0  0  0  0  0  0
   11.9770   13.1150    0.8700 C   0  0  0  0  0  0  0  0  0  0  0  0
   12.7910   12.2960    1.5280 N   0  0  0  0  0  0  0  0  0  0  0  0
   12.6480   12.0840    2.8230 C   0  0  0  0  0  0  0  0  0  0  0  0
   11.7030   12.6640    3.5340 N   0  0  0  0  0  0  0  0  0  0  0  0
    9.9680   14.6300    1.2630 N   0  0  0  0  0  0  0  0  0  0  0  0
  1 16  1  0  0  0  0
  2  3  1  0  0  0  0
  2  1  1  0  0  0  0
  3  4  1  0  0  0  0
  5  2  2  0  0  0  0
  6  3  1  0  0  0  0
  6  7  1  0  0  0  0
  7  8  1  0  0  0  0
  8  9  1  0  0  0  0
  9 15  1  0  0  0  0
 10  9  1  0  0  0  0
 11  9  1  0  0  0  0
 11 12  1  0  0  0  0
 12 13  1  0  0  0  0
 13 14  1  0  0  0  0
 15 14  1  0  0  0  0
 16 17  1  0  0  0  0
 17 24  1  0  0  0  0
 18 17  1  0  0  0  0
 19 20  1  0  0  0  0
 20 21  1  0  0  0  0
 22 20  1  0  0  0  0
 22 27  1  0  0  0  0
 23 22  2  0  0  0  0
 24 25  2  0  0  0  0
 24 23  1  0  0  0  0
 25 26  1  0  0  0  0
 26 27  2  0  0  0  0
 28 23  1  0  0  0  0
 28 19  2  0  0  0  0
M  END
>  <MODEL>
1

>  <REMARK>
 VINA RESULT:      -6.6      0.000      0.000
  Name = ZINC20676572
                            x       y       z     vdW  Elec       q    Type
                         _______ _______ _______ _____ _____    ______ ____

>  <TORSDO>
F 8

>  <vina_score>
-6.6

$$$$
ZINC31460373
 OpenBabel01091701453D

 30 30  0  0  1  0  0  0  0  0999 V2000
    8.6670   13.0550    1.2410 C   0  0  2  0  0  0  0  0  0  0  0  0
    9.5440   12.3180    2.2570 C   0  0  2  0  0  0  0  0  0  0  0  0
    9.7330   10.8680    1.8010 C   0  0  2  0  0  0  0  0  0  0  0  0
    8.3570   10.2140    1.6390 C   0  0  2  0  0  0  0  0  0  0  0  0
    7.5250   11.0310    0.6470 C   0  0  2  0  0  0  0  0  0  0  0  0
    7.4160   12.3770    1.1150 O   0  0  0  0  0  0  0  0  0  0  0  0
    8.8950   12.3400    3.5750 N   0  0  0  0  0  0  0  0  0  0  0  0
    8.2370   13.1200    3.5990 H   0  0  0  0  0  0  0  0  0  0  0  0
    8.4070   11.4560    3.7210 H   0  0  0  0  0  0  0  0  0  0  0  0
    9.8820   12.5270    4.6450 C   0  0  0  0  0  0  0  0  0  0  0  0
   10.4900   10.1540    2.7790 O   0  0  0  0  0  0  0  0  0  0  0  0
   10.1500   10.3580    3.6650 H   0  0  0  0  0  0  0  0  0  0  0  0
    7.6930   10.1760    2.9030 O   0  0  0  0  0  0  0  0  0  0  0  0
    6.7870    9.8490    2.7830 H   0  0  0  0  0  0  0  0  0  0  0  0
    9.3250   13.0800   -0.0270 O   0  0  0  0  0  0  0  0  0  0  0  0
    9.3620   14.3720   -0.6370 C   0  0  1  0  0  0  0  0  0  0  0  0
   10.1950   15.3020    0.2070 C   0  0  0  0  0  0  0  0  0  0  0  0
    9.7980   16.4150    0.4500 O   0  0  0  0  0  0  0  0  0  0  0  0
    9.9780   14.2600   -2.0330 C   0  0  1  0  0  0  0  0  0  0  0  0
    9.3680   12.9660   -4.0810 C   0  0  0  0  0  0  0  0  0  0  0  0
    8.8740   13.9890   -3.0570 C   0  0  1  0  0  0  0  0  0  0  0  0
    7.7200   13.4750   -2.3880 O   0  0  0  0  0  0  0  0  0  0  0  0
    7.7460   12.5060   -2.3980 H   0  0  0  0  0  0  0  0  0  0  0  0
   10.6420   15.4820   -2.3600 O   0  0  0  0  0  0  0  0  0  0  0  0
   10.3640   16.1770   -1.7420 H   0  0  0  0  0  0  0  0  0  0  0  0
   10.9710   13.1270   -2.0540 C   0  0  0  0  0  0  0  0  0  0  0  0
   12.1200   13.3250   -1.7360 O   0  0  0  0  0  0  0  0  0  0  0  0
    6.1290   10.4180    0.5250 C   0  0  0  0  0  0  0  0  0  0  0  0
    5.2830   10.9550    1.5430 O   0  0  0  0  0  0  0  0  0  0  0  0
    4.5070   11.3710    1.1350 H   0  0  0  0  0  0  0  0  0  0  0  0
  1 15  1  6  0  0  0
  1  2  1  0  0  0  0
  2  7  1  1  0  0  0
  3  2  1  0  0  0  0
  3 11  1  1  0  0  0
  4  3  1  0  0  0  0
  4 13  1  1  0  0  0
  5 28  1  1  0  0  0
  5  6  1  0  0  0  0
  5  4  1  0  0  0  0
  6  1  1  0  0  0  0
  7  8  1  0  0  0  0
  7  9  1  0  0  0  0
  7 10  1  0  0  0  0
 11 12  1  0  0  0  0
 14 13  1  0  0  0  0
 16 15  1  1  0  0  0
 16 17  1  0  0  0  0
 17 18  2  0  0  0  0
 19 24  1  6  0  0  0
 19 16  1  0  0  0  0
 21 20  1  6  0  0  0
 21 22  1  0  0  0  0
 21 19  1  0  0  0  0
 23 22  1  0  0  0  0
 24 25  1  0  0  0  0
 26 19  1  0  0  0  0
 26 27  2  0  0  0  0
 28 29  1  0  0  0  0
 30 29  1  0  0  0  0
M  END
>  <MODEL>
1

>  <REMARK>
 VINA RESULT:      -6.6      0.000      0.000
  Name = ZINC31460373
                            x       y       z     vdW  Elec       q    Type
                         _______ _______ _______ _____ _____    ______ ____

>  <TORSDO>
F 13

>  <vina_score>
-6.6

$$$$
ZINC05976180
 OpenBabel01091701463D

 27 28  0  0  1  0  0  0  0  0999 V2000
    7.5680   11.8090   -0.5370 C   0  0  0  0  0  0  0  0  0  0  0  0
    7.6060   11.4920    0.9350 C   0  0  0  0  0  0  0  0  0  0  0  0
    8.8460   11.4530    1.6180 C   0  0  0  0  0  0  0  0  0  0  0  0
    9.0510   11.0700    2.9050 C   0  0  0  0  0  0  0  0  0  0  0  0
    8.0910   10.6560    3.7610 O   0  0  0  0  0  0  0  0  0  0  0  0
   10.4920   11.1790    3.2180 C   0  0  0  0  0  0  0  0  0  0  0  0
   11.1640   11.6240    2.1410 N   0  0  0  0  0  0  0  0  0  0  0  0
   10.9940   10.9090    4.2900 O   0  0  0  0  0  0  0  0  0  0  0  0
   10.1970   11.8310    1.0570 C   0  0  2  0  0  0  0  0  0  0  0  0
    6.5750   11.2690    1.5350 O   0  0  0  0  0  0  0  0  0  0  0  0
   10.1950   13.2770    0.6330 C   0  0  0  0  0  0  0  0  0  0  0  0
    9.7850   14.2570    1.5200 C   0  0  0  0  0  0  0  0  0  0  0  0
    9.7830   15.5830    1.1340 C   0  0  0  0  0  0  0  0  0  0  0  0
   10.1910   15.9350   -0.1400 C   0  0  0  0  0  0  0  0  0  0  0  0
   10.6070   14.9550   -1.0280 C   0  0  0  0  0  0  0  0  0  0  0  0
   10.6030   13.6230   -0.6400 C   0  0  0  0  0  0  0  0  0  0  0  0
   11.0140   15.2980   -2.2780 O   0  0  0  0  0  0  0  0  0  0  0  0
   11.4500   14.6690   -2.8180 H   0  0  0  0  0  0  0  0  0  0  0  0
   12.6080   11.8590    2.0620 C   0  0  0  0  0  0  0  0  0  0  0  0
   12.9410   13.2090    2.7020 C   0  0  0  0  0  0  0  0  0  0  0  0
   13.2900   12.9980    4.1190 N   0  0  0  0  0  0  0  0  0  0  0  0
   13.7050   13.8530    4.4890 H   0  0  0  0  0  0  0  0  0  0  0  0
   12.4450   12.7640    4.6430 H   0  0  0  0  0  0  0  0  0  0  0  0
   14.2640   11.8980    4.2490 C   0  0  0  0  0  0  0  0  0  0  0  0
   15.3740   12.3220    5.2130 C   0  0  0  0  0  0  0  0  0  0  0  0
   15.7330   13.6800    4.9570 O   0  0  0  0  0  0  0  0  0  0  0  0
   16.6990   13.7560    4.9090 H   0  0  0  0  0  0  0  0  0  0  0  0
  1  2  1  0  0  0  0
  2 10  2  0  0  0  0
  2  3  1  0  0  0  0
  3  4  2  0  0  0  0
  4  6  1  0  0  0  0
  4  5  1  0  0  0  0
  6  8  2  0  0  0  0
  7  6  1  0  0  0  0
  9 11  1  1  0  0  0
  9  3  1  0  0  0  0
  9  7  1  0  0  0  0
 11 12  2  0  0  0  0
 13 12  1  0  0  0  0
 14 13  2  0  0  0  0
 15 16  2  0  0  0  0
 15 14  1  0  0  0  0
 16 11  1  0  0  0  0
 17 15  1  0  0  0  0
 18 17  1  0  0  0  0
 19  7  1  0  0  0  0
 19 20  1  0  0  0  0
 20 21  1  0  0  0  0
 21 24  1  0  0  0  0
 21 22  1  0  0  0  0
 21 23  1  0  0  0  0
 24 25  1  0  0  0  0
 26 25  1  0  0  0  0
 27 26  1  0  0  0  0
M  END
>  <MODEL>
1

>  <REMARK>
 VINA RESULT:      -6.6      0.000      0.000
  Name = ZINC05976180
                            x       y       z     vdW  Elec       q    Type
                         _______ _______ _______ _____ _____    ______ ____

>  <TORSDO>
F 8

>  <vina_score>
-6.6

$$$$
ZINC12483756
 OpenBabel01091701473D

 29 31  0  0  1  0  0  0  0  0999 V2000
    9.0140   11.6920    2.9050 C   0  0  2  0  0  0  0  0  0  0  0  0
    9.0610   13.0090    3.6870 C   0  0  2  0  0  0  0  0  0  0  0  0
    9.8540   14.0460    2.8850 C   0  0  1  0  0  0  0  0  0  0  0  0
   11.2090   13.4320    2.4960 C   0  0  1  0  0  0  0  0  0  0  0  0
   11.7810   12.7240    3.7460 C   0  0  0  0  0  0  0  0  0  0  0  0
   11.2790   11.3770    3.6720 O   0  0  0  0  0  0  0  0  0  0  0  0
   10.9350   12.3240    1.6030 O   0  0  0  0  0  0  0  0  0  0  0  0
   10.4450   11.3050    2.5010 C   0  0  2  0  0  0  0  0  0  0  0  0
    8.1900   11.8740    1.6950 N   0  0  0  0  0  0  0  0  0  0  0  0
    8.7400   12.3650    0.9900 H   0  0  0  0  0  0  0  0  0  0  0  0
    7.3600   12.4160    1.9320 H   0  0  0  0  0  0  0  0  0  0  0  0
    7.7770   10.5640    1.1560 C   0  0  0  0  0  0  0  0  0  0  0  0
    6.4500   10.1530    1.7960 C   0  0  0  0  0  0  0  0  0  0  0  0
    5.3020   10.4090   -0.2930 C   0  0  0  0  0  0  0  0  0  0  0  0
    5.3700   10.7670    1.0890 O   0  0  0  0  0  0  0  0  0  0  0  0
    9.1020   14.4010    1.6670 N   0  0  0  0  0  0  0  0  0  0  0  0
    9.0440   13.5810    1.0620 H   0  0  0  0  0  0  0  0  0  0  0  0
    8.1650   14.7090    1.9270 H   0  0  0  0  0  0  0  0  0  0  0  0
    9.7860   15.4860    0.9390 C   0  0  0  0  0  0  0  0  0  0  0  0
   10.0430   15.0450   -0.4780 C   0  0  0  0  0  0  0  0  0  0  0  0
   11.1500   15.3080   -1.1950 C   0  0  0  0  0  0  0  0  0  0  0  0
   10.9700   14.7060   -2.4620 C   0  0  0  0  0  0  0  0  0  0  0  0
    9.7600   14.1180   -2.4460 C   0  0  0  0  0  0  0  0  0  0  0  0
    9.2030   14.3260   -1.2420 O   0  0  0  0  0  0  0  0  0  0  0  0
    9.1350   13.3550   -3.5860 C   0  0  0  0  0  0  0  0  0  0  0  0
   10.1480   12.9860   -4.5240 O   0  0  0  0  0  0  0  0  0  0  0  0
   10.9890   12.8590   -4.0580 H   0  0  0  0  0  0  0  0  0  0  0  0
    9.6970   12.7930    4.9480 O   0  0  0  0  0  0  0  0  0  0  0  0
    9.7520   13.6330    5.4300 H   0  0  0  0  0  0  0  0  0  0  0  0
  1  9  1  6  0  0  0
  1  2  1  0  0  0  0
  2 28  1  1  0  0  0
  3 16  1  6  0  0  0
  3  2  1  0  0  0  0
  4  7  1  6  0  0  0
  4  3  1  0  0  0  0
  4  5  1  0  0  0  0
  6  5  1  0  0  0  0
  8  7  1  6  0  0  0
  8  1  1  0  0  0  0
  8  6  1  0  0  0  0
  9 11  1  0  0  0  0
 10  9  1  0  0  0  0
 12  9  1  0  0  0  0
 12 13  1  0  0  0  0
 14 15  1  0  0  0  0
 15 13  1  0  0  0  0
 16 18  1  0  0  0  0
 17 16  1  0  0  0  0
 19 16  1  0  0  0  0
 20 19  1  0  0  0  0
 21 20  2  0  0  0  0
 22 23  2  0  0  0  0
 22 21  1  0  0  0  0
 23 24  1  0  0  0  0
 24 20  1  0  0  0  0
 25 23  1  0  0  0  0
 26 27  1  0  0  0  0
 26 25  1  0  0  0  0
 28 29  1  0  0  0  0
M  END
>  <MODEL>
1

>  <REMARK>
 VINA RESULT:      -6.6      0.000      0.000
  Name = ZINC12483756
                            x       y       z     vdW  Elec       q    Type
                         _______ _______ _______ _____ _____    ______ ____

>  <TORSDO>
F 10

>  <vina_score>
-6.6

$$$$
ZINC00389806
 OpenBabel01091701473D

 19 19  0  0  0  0  0  0  0  0999 V2000
   10.5470   13.8730    2.1390 C   0  0  0  0  0  0  0  0  0  0  0  0
    9.7020   14.7430    1.4900 C   0  0  0  0  0  0  0  0  0  0  0  0
   10.0480   15.2530    0.2440 C   0  0  0  0  0  0  0  0  0  0  0  0
   11.2470   14.8820   -0.3540 C   0  0  0  0  0  0  0  0  0  0  0  0
   12.0950   14.0060    0.2860 C   0  0  0  0  0  0  0  0  0  0  0  0
   11.7500   13.4910    1.5380 C   0  0  0  0  0  0  0  0  0  0  0  0
   12.6560   12.5520    2.2270 C   0  0  0  0  0  0  0  0  0  0  0  0
   13.2260   12.9030    3.3960 O   0  0  0  0  0  0  0  0  0  0  0  0
   12.8880   11.4640    1.7390 O   0  0  0  0  0  0  0  0  0  0  0  0
    9.2150   16.1170   -0.3900 O   0  0  0  0  0  0  0  0  0  0  0  0
    8.7540   15.8420   -1.1590 H   0  0  0  0  0  0  0  0  0  0  0  0
   11.6180   15.4370   -1.7050 C   0  0  0  0  0  0  0  0  0  0  0  0
   10.5950   15.0370   -2.6900 N   0  0  0  0  0  0  0  0  0  0  0  0
    9.6700   15.2160   -2.3000 H   0  0  0  0  0  0  0  0  0  0  0  0
   10.7240   15.5760   -3.5470 H   0  0  0  0  0  0  0  0  0  0  0  0
   10.7160   13.5990   -2.9980 C   0  0  0  0  0  0  0  0  0  0  0  0
    9.3550   13.0540   -3.3480 C   0  0  0  0  0  0  0  0  0  0  0  0
    8.3480   13.1450   -2.4650 O   0  0  0  0  0  0  0  0  0  0  0  0
    9.1690   12.5370   -4.4240 O   0  0  0  0  0  0  0  0  0  0  0  0
  2  1  2  0  0  0  0
  3  2  1  0  0  0  0
  4  3  2  0  0  0  0
  4  5  1  0  0  0  0
  5  6  2  0  0  0  0
  6  1  1  0  0  0  0
  6  7  1  0  0  0  0
  7  8  1  0  0  0  0
  9  7  2  0  0  0  0
 10  3  1  0  0  0  0
 11 10  1  0  0  0  0
 12  4  1  0  0  0  0
 13 14  1  0  0  0  0
 13 12  1  0  0  0  0
 15 13  1  0  0  0  0
 16 13  1  0  0  0  0
 17 16  1  0  0  0  0
 17 18  1  0  0  0  0
 19 17  2  0  0  0  0
M  END
>  <MODEL>
1

>  <REMARK>
 VINA RESULT:      -6.6      0.000      0.000
  Name = ZINC00389806
                            x       y       z     vdW  Elec       q    Type
                         _______ _______ _______ _____ _____    ______ ____

>  <TORSDO>
F 6

>  <vina_score>
-6.6

$$$$
ZINC05063166
 OpenBabel01091701253D

 24 25  0  0  0  0  0  0  0  0999 V2000
   13.0740   10.9020    3.7650 C   0  0  0  0  0  0  0  0  0  0  0  0
   11.6970   10.6740    3.1370 C   0  0  0  0  0  0  0  0  0  0  0  0
   11.6360   11.3700    1.7760 C   0  0  0  0  0  0  0  0  0  0  0  0
   11.8910   12.8630    1.9530 C   0  0  0  0  0  0  0  0  0  0  0  0
   11.8080   13.5740    0.6210 C   0  0  0  0  0  0  0  0  0  0  0  0
   10.7960   14.4560    0.7470 N   0  0  0  0  0  0  0  0  0  0  0  0
   10.2410   14.4020    1.9640 C   0  0  0  0  0  0  0  0  0  0  0  0
    9.3150   15.1040    2.3180 O   0  0  0  0  0  0  0  0  0  0  0  0
   12.5050   13.3900   -0.3530 O   0  0  0  0  0  0  0  0  0  0  0  0
   13.2500   13.1050    2.6000 C   0  0  0  0  0  0  0  0  0  0  0  0
   10.8230   13.4770    2.7520 N   0  0  0  0  0  0  0  0  0  0  0  0
   13.3040   12.4010    3.9590 C   0  0  0  0  0  0  0  0  0  0  0  0
   10.3610   15.3670   -0.3150 C   0  0  0  0  0  0  0  0  0  0  0  0
    9.2070   14.7280   -1.0930 C   0  0  0  0  0  0  0  0  0  0  0  0
    9.4770   13.2830   -1.2450 N   0  0  0  0  0  0  0  0  0  0  0  0
   10.1350   12.9910   -0.5220 H   0  0  0  0  0  0  0  0  0  0  0  0
   10.0730   13.0170   -2.5710 C   0  0  0  0  0  0  0  0  0  0  0  0
    9.0310   13.3270   -3.6470 C   0  0  0  0  0  0  0  0  0  0  0  0
    8.9910   12.2580   -4.5940 O   0  0  0  0  0  0  0  0  0  0  0  0
    9.2640   11.4330   -4.1620 H   0  0  0  0  0  0  0  0  0  0  0  0
    8.2230   12.5160   -1.0920 C   0  0  0  0  0  0  0  0  0  0  0  0
    8.1740   11.9320    0.3220 C   0  0  0  0  0  0  0  0  0  0  0  0
    7.4320   12.8080    1.1730 O   0  0  0  0  0  0  0  0  0  0  0  0
    7.7630   13.7140    1.0700 H   0  0  0  0  0  0  0  0  0  0  0  0
  1 12  1  0  0  0  0
  2  1  1  0  0  0  0
  3  4  1  0  0  0  0
  3  2  1  0  0  0  0
  4 10  1  0  0  0  0
  4 11  1  0  0  0  0
  5  6  1  0  0  0  0
  5  4  1  0  0  0  0
  6  7  1  0  0  0  0
  7  8  2  0  0  0  0
  7 11  1  0  0  0  0
  9  5  2  0  0  0  0
 10 12  1  0  0  0  0
 13  6  1  0  0  0  0
 14 13  1  0  0  0  0
 15 14  1  0  0  0  0
 15 21  1  0  0  0  0
 15 16  1  0  0  0  0
 17 15  1  0  0  0  0
 18 17  1  0  0  0  0
 19 20  1  0  0  0  0
 19 18  1  0  0  0  0
 21 22  1  0  0  0  0
 22 23  1  0  0  0  0
 24 23  1  0  0  0  0
M  END
>  <MODEL>
1

>  <REMARK>
 VINA RESULT:      -6.6      0.000      0.000
  Name = ZINC05063166
                            x       y       z     vdW  Elec       q    Type
                         _______ _______ _______ _____ _____    ______ ____

>  <TORSDO>
F 9

>  <vina_score>
-6.6

$$$$
ZINC01731877
 OpenBabel01091701293D

 22 22  0  0  0  0  0  0  0  0999 V2000
   10.0910   14.0040    2.3960 N   0  0  0  0  0  0  0  0  0  0  0  0
    9.3790   14.6850    2.3790 H   0  0  0  0  0  0  0  0  0  0  0  0
   10.2460   13.2040    3.4960 C   0  0  0  0  0  0  0  0  0  0  0  0
   11.4010   13.2650    4.1220 N   0  0  0  0  0  0  0  0  0  0  0  0
   11.5600   12.7080    4.9180 H   0  0  0  0  0  0  0  0  0  0  0  0
   12.1070   13.8680    3.7940 H   0  0  0  0  0  0  0  0  0  0  0  0
    9.1210   12.3040    3.9400 C   0  0  0  0  0  0  0  0  0  0  0  0
    8.9790   10.9030    2.7970 S   0  0  0  0  0  0  0  0  0  0  0  0
    7.6100   11.5330    1.4070 S   0  0  0  0  0  0  0  0  0  0  0  0
    6.2740   10.9020    1.7720 O   0  0  0  0  0  0  0  0  0  0  0  0
    8.0020   10.9640    0.1650 O   0  0  0  0  0  0  0  0  0  0  0  0
    7.4600   12.9340    1.5900 O   0  0  0  0  0  0  0  0  0  0  0  0
   10.9830   13.8490    1.2450 C   0  0  0  0  0  0  0  0  0  0  0  0
   10.6410   14.9020    0.1890 C   0  0  0  0  0  0  0  0  0  0  0  0
    8.8960   14.0220   -1.3740 C   0  0  0  0  0  0  0  0  0  0  0  0
    8.5210   13.3950   -2.5460 C   0  0  0  0  0  0  0  0  0  0  0  0
    9.4890   12.9620   -3.4410 C   0  0  0  0  0  0  0  0  0  0  0  0
   10.8320   13.1600   -3.1540 C   0  0  0  0  0  0  0  0  0  0  0  0
   11.2020   13.7870   -1.9800 C   0  0  0  0  0  0  0  0  0  0  0  0
   10.2350   14.2180   -1.0910 C   0  0  0  0  0  0  0  0  0  0  0  0
    9.1230   12.3440   -4.5950 O   0  0  0  0  0  0  0  0  0  0  0  0
    9.7180   11.7600   -5.0220 H   0  0  0  0  0  0  0  0  0  0  0  0
  1  3  1  0  0  0  0
  2  1  1  0  0  0  0
  3  7  1  0  0  0  0
  3  4  2  0  0  0  0
  4  5  1  0  0  0  0
  6  4  1  0  0  0  0
  8  7  1  0  0  0  0
  9 12  2  0  0  0  0
  9 10  1  0  0  0  0
  9  8  1  0  0  0  0
 11  9  2  0  0  0  0
 13  1  1  0  0  0  0
 14 13  1  0  0  0  0
 15 20  1  0  0  0  0
 16 15  2  0  0  0  0
 17 18  2  0  0  0  0
 17 16  1  0  0  0  0
 18 19  1  0  0  0  0
 19 20  2  0  0  0  0
 20 14  1  0  0  0  0
 21 17  1  0  0  0  0
 22 21  1  0  0  0  0
M  END
>  <MODEL>
1

>  <REMARK>
 VINA RESULT:      -6.6      0.000      0.000
  Name = ZINC01731877
                            x       y       z     vdW  Elec       q    Type
                         _______ _______ _______ _____ _____    ______ ____

>  <TORSDO>
F 8

>  <vina_score>
-6.6

$$$$
ZINC00056328
 OpenBabel01091701303D

 27 29  0  0  0  0  0  0  0  0999 V2000
    9.5700   11.8480    0.7200 C   0  0  0  0  0  0  0  0  0  0  0  0
   10.5960   11.5010    1.4910 N   0  0  0  0  0  0  0  0  0  0  0  0
   11.6790   12.2700    1.5400 C   0  0  0  0  0  0  0  0  0  0  0  0
   11.7360   13.3850    0.8190 N   0  0  0  0  0  0  0  0  0  0  0  0
   10.7100   13.7310    0.0490 C   0  0  0  0  0  0  0  0  0  0  0  0
    9.6260   12.9660    0.0040 N   0  0  0  0  0  0  0  0  0  0  0  0
    7.5770   11.4360   -0.4540 C   0  0  0  0  0  0  0  0  0  0  0  0
    6.3750   10.4910   -0.5100 C   0  0  0  0  0  0  0  0  0  0  0  0
    5.6880   10.5250    0.7440 O   0  0  0  0  0  0  0  0  0  0  0  0
    6.5040   10.1540    1.8570 C   0  0  0  0  0  0  0  0  0  0  0  0
    7.7070   11.0960    1.9390 C   0  0  0  0  0  0  0  0  0  0  0  0
    8.4460   11.0500    0.6680 N   0  0  0  0  0  0  0  0  0  0  0  0
   12.7450   11.9110    2.3410 N   0  0  0  0  0  0  0  0  0  0  0  0
   12.5270   10.5880    2.9440 C   0  0  0  0  0  0  0  0  0  0  0  0
   13.7550   10.2030    3.7740 C   0  0  0  0  0  0  0  0  0  0  0  0
   13.9970   11.2140    4.7560 O   0  0  0  0  0  0  0  0  0  0  0  0
   14.2130   12.5150    4.2040 C   0  0  0  0  0  0  0  0  0  0  0  0
   12.9890   12.9230    3.3780 C   0  0  0  0  0  0  0  0  0  0  0  0
   10.7700   14.8930   -0.7030 N   0  0  0  0  0  0  0  0  0  0  0  0
   11.4330   14.9040   -1.8770 C   0  0  0  0  0  0  0  0  0  0  0  0
   11.4900   16.0350   -2.6080 N   0  0  0  0  0  0  0  0  0  0  0  0
   11.9750   16.0420   -3.4650 H   0  0  0  0  0  0  0  0  0  0  0  0
   11.0490   16.8530   -2.2850 H   0  0  0  0  0  0  0  0  0  0  0  0
   11.9780   13.8930   -2.2760 O   0  0  0  0  0  0  0  0  0  0  0  0
   10.1570   16.0300   -0.2550 N   0  0  0  0  0  0  0  0  0  0  0  0
    9.2930   15.7830    0.2270 H   0  0  0  0  0  0  0  0  0  0  0  0
   10.7780   16.5200    0.3890 H   0  0  0  0  0  0  0  0  0  0  0  0
  1  2  2  0  0  0  0
  2  3  1  0  0  0  0
  3 13  1  0  0  0  0
  4  3  2  0  0  0  0
  5  4  1  0  0  0  0
  6  5  2  0  0  0  0
  6  1  1  0  0  0  0
  7 12  1  0  0  0  0
  8  7  1  0  0  0  0
  8  9  1  0  0  0  0
  9 10  1  0  0  0  0
 10 11  1  0  0  0  0
 12  1  1  0  0  0  0
 12 11  1  0  0  0  0
 13 14  1  0  0  0  0
 13 18  1  0  0  0  0
 14 15  1  0  0  0  0
 15 16  1  0  0  0  0
 17 16  1  0  0  0  0
 18 17  1  0  0  0  0
 19 25  1  0  0  0  0
 19  5  1  0  0  0  0
 20 19  1  0  0  0  0
 21 23  1  0  0  0  0
 21 20  1  0  0  0  0
 22 21  1  0  0  0  0
 24 20  2  0  0  0  0
 25 26  1  0  0  0  0
 25 27  1  0  0  0  0
M  END
>  <MODEL>
1

>  <REMARK>
 VINA RESULT:      -6.6      0.000      0.000
  Name = ZINC00056328
                            x       y       z     vdW  Elec       q    Type
                         _______ _______ _______ _____ _____    ______ ____

>  <TORSDO>
F 4

>  <vina_score>
-6.6

$$$$
ZINC17480998
 OpenBabel01091701353D

 31 33  0  0  1  0  0  0  0  0999 V2000
    9.4140   13.1820    0.2790 N   0  0  0  0  0  0  0  0  0  0  0  0
    9.4030   13.3030    1.6230 C   0  0  0  0  0  0  0  0  0  0  0  0
    8.3350   12.5440    2.3860 C   0  0  1  0  0  0  0  0  0  0  0  0
    7.3820   11.7070    1.5540 C   0  0  0  0  0  0  0  0  0  0  0  0
    7.5570   11.7100    0.2150 N   0  0  0  0  0  0  0  0  0  0  0  0
    6.9510   11.1740   -0.3470 H   0  0  0  0  0  0  0  0  0  0  0  0
    6.4980   11.0600    2.0710 O   0  0  0  0  0  0  0  0  0  0  0  0
   10.2150   13.9950    2.1990 O   0  0  0  0  0  0  0  0  0  0  0  0
    8.5290   12.4180   -0.3710 C   0  0  0  0  0  0  0  0  0  0  0  0
    8.6130   12.3630   -1.5820 O   0  0  0  0  0  0  0  0  0  0  0  0
   10.2280   15.2350   -0.7180 C   0  0  0  0  0  0  0  0  0  0  0  0
   11.1900   15.9150   -1.4470 C   0  0  0  0  0  0  0  0  0  0  0  0
   12.3040   15.2440   -1.9170 C   0  0  0  0  0  0  0  0  0  0  0  0
   12.4610   13.8940   -1.6610 C   0  0  0  0  0  0  0  0  0  0  0  0
   11.5060   13.2090   -0.9340 C   0  0  0  0  0  0  0  0  0  0  0  0
   10.3860   13.8750   -0.4590 C   0  0  0  0  0  0  0  0  0  0  0  0
    9.3470   16.8760    0.7600 C   0  0  0  0  0  0  0  0  0  0  0  0
    9.1320   15.8940   -0.2550 O   0  0  0  0  0  0  0  0  0  0  0  0
    9.0250   11.6310    3.3670 C   0  0  0  0  0  0  0  0  0  0  0  0
   10.2420   11.2350    3.0690 N   0  0  0  0  0  0  0  0  0  0  0  0
   10.9870   10.3230    4.0030 C   0  0  0  0  0  0  0  0  0  0  0  0
   12.4250   10.1810    3.5010 C   0  0  0  0  0  0  0  0  0  0  0  0
   13.3300   10.9280    4.4010 N   0  0  0  0  0  0  0  0  0  0  0  0
   12.9140   10.9640    5.3320 H   0  0  0  0  0  0  0  0  0  0  0  0
   13.5140   12.3060    3.9020 C   0  0  0  0  0  0  0  0  0  0  0  0
   14.4080   13.0700    4.8820 C   0  0  0  0  0  0  0  0  0  0  0  0
   15.7140   12.3910    4.9880 N   0  0  0  0  0  0  0  0  0  0  0  0
   16.2970   12.8970    5.6540 H   0  0  0  0  0  0  0  0  0  0  0  0
   16.1620   12.3760    4.0730 H   0  0  0  0  0  0  0  0  0  0  0  0
   15.5310   11.0060    5.4630 C   0  0  0  0  0  0  0  0  0  0  0  0
   14.6380   10.2430    4.4840 C   0  0  0  0  0  0  0  0  0  0  0  0
  1  2  1  0  0  0  0
  2  8  2  0  0  0  0
  2  3  1  0  0  0  0
  3 19  1  1  0  0  0
  4  7  2  0  0  0  0
  4  3  1  0  0  0  0
  5  4  1  0  0  0  0
  6  5  1  0  0  0  0
  9  5  1  0  0  0  0
  9  1  1  0  0  0  0
 10  9  2  0  0  0  0
 11 16  1  0  0  0  0
 11 18  1  0  0  0  0
 12 11  2  0  0  0  0
 13 14  2  0  0  0  0
 13 12  1  0  0  0  0
 14 15  1  0  0  0  0
 15 16  2  0  0  0  0
 16  1  1  0  0  0  0
 18 17  1  0  0  0  0
 20 19  2  0  0  0  0
 20 21  1  0  0  0  0
 22 21  1  0  0  0  0
 22 23  1  0  0  0  0
 23 31  1  0  0  0  0
 23 24  1  0  0  0  0
 25 23  1  0  0  0  0
 25 26  1  0  0  0  0
 26 27  1  0  0  0  0
 27 30  1  0  0  0  0
 27 28  1  0  0  0  0
 29 27  1  0  0  0  0
 31 30  1  0  0  0  0
M  END
>  <MODEL>
1

>  <REMARK>
 VINA RESULT:      -6.5      0.000      0.000
  Name = ZINC17480998
                            x       y       z     vdW  Elec       q    Type
                         _______ _______ _______ _____ _____    ______ ____

>  <TORSDO>
F 6

>  <vina_score>
-6.5

$$$$
ZINC19944023
 OpenBabel01091701433D

 25 26  0  0  0  0  0  0  0  0999 V2000
    9.2680   13.6560   -0.6490 C   0  0  0  0  0  0  0  0  0  0  0  0
   10.1280   14.2750   -1.5420 C   0  0  0  0  0  0  0  0  0  0  0  0
   11.5150   14.1650   -1.3820 C   0  0  0  0  0  0  0  0  0  0  0  0
   12.3400   14.7750   -2.2610 F   0  0  0  0  0  0  0  0  0  0  0  0
   12.0390   13.4480   -0.3500 C   0  0  0  0  0  0  0  0  0  0  0  0
   11.1860   12.8100    0.5680 C   0  0  0  0  0  0  0  0  0  0  0  0
   11.6910   12.1050    1.5930 N   0  0  0  0  0  0  0  0  0  0  0  0
   10.8820   11.5000    2.4570 C   0  0  0  0  0  0  0  0  0  0  0  0
    9.4850   11.5940    2.3220 C   0  0  0  0  0  0  0  0  0  0  0  0
    8.9510   12.2980    1.3070 N   0  0  0  0  0  0  0  0  0  0  0  0
    7.5460   12.3970    1.1650 O   0  0  0  0  0  0  0  0  0  0  0  0
    9.7860   12.9200    0.4100 C   0  0  0  0  0  0  0  0  0  0  0  0
    8.6680   10.9680    3.2230 N   0  0  0  0  0  0  0  0  0  0  0  0
    8.9190   10.9330    4.1740 H   0  0  0  0  0  0  0  0  0  0  0  0
    7.8270   10.5540    2.9210 H   0  0  0  0  0  0  0  0  0  0  0  0
    9.6100   15.0130   -2.6030 N   0  0  0  0  0  0  0  0  0  0  0  0
    9.7580   15.9850   -2.6440 H   0  0  0  0  0  0  0  0  0  0  0  0
    8.8460   14.3410   -3.6570 C   0  0  0  0  0  0  0  0  0  0  0  0
    9.6720   13.1870   -4.2290 C   0  0  0  0  0  0  0  0  0  0  0  0
    8.8030   12.1060   -4.5750 O   0  0  0  0  0  0  0  0  0  0  0  0
    8.8430   11.4260   -3.8840 H   0  0  0  0  0  0  0  0  0  0  0  0
   12.8970   12.0160    1.7290 O   0  0  0  0  0  0  0  0  0  0  0  0
   13.2620   11.8630    2.5790 H   0  0  0  0  0  0  0  0  0  0  0  0
   11.4400   10.7490    3.5410 C   0  0  0  0  0  0  0  0  0  0  0  0
   11.8820   10.1530    4.4020 N   0  0  0  0  0  0  0  0  0  0  0  0
  1 12  2  0  0  0  0
  2  3  2  0  0  0  0
  2  1  1  0  0  0  0
  3  5  1  0  0  0  0
  4  3  1  0  0  0  0
  5  6  2  0  0  0  0
  6  7  1  0  0  0  0
  7 22  1  0  0  0  0
  7  8  1  0  0  0  0
  8 24  1  0  0  0  0
  9  8  2  0  0  0  0
  9 13  1  0  0  0  0
 10  9  1  0  0  0  0
 11 10  1  0  0  0  0
 12  6  1  0  0  0  0
 12 10  1  0  0  0  0
 13 14  1  0  0  0  0
 15 13  1  0  0  0  0
 16  2  1  0  0  0  0
 17 16  1  0  0  0  0
 18 16  1  0  0  0  0
 19 18  1  0  0  0  0
 20 19  1  0  0  0  0
 20 21  1  0  0  0  0
 22 23  1  0  0  0  0
 24 25  3  0  0  0  0
M  END
>  <MODEL>
1

>  <REMARK>
 VINA RESULT:      -6.5      0.000      0.000
  Name = ZINC19944023
                            x       y       z     vdW  Elec       q    Type
                         _______ _______ _______ _____ _____    ______ ____

>  <TORSDO>
F 7

>  <vina_score>
-6.5

$$$$
ZINC05117605
 OpenBabel01091701453D

 22 23  0  0  1  0  0  0  0  0999 V2000
    9.6950   14.7090    2.2170 C   0  0  1  0  0  0  0  0  0  0  0  0
    9.7630   15.7340    3.2100 O   0  0  0  0  0  0  0  0  0  0  0  0
    9.9480   16.5860    2.7830 H   0  0  0  0  0  0  0  0  0  0  0  0
    8.3950   13.9190    2.3870 C   0  0  0  0  0  0  0  0  0  0  0  0
    9.4710   11.0700    4.3160 C   0  0  0  0  0  0  0  0  0  0  0  0
    9.4710   12.3990    4.0990 C   0  0  0  0  0  0  0  0  0  0  0  0
    8.6900   12.6200    2.9960 N   0  0  0  0  0  0  0  0  0  0  0  0
    8.2470   11.4170    2.5730 C   0  0  0  0  0  0  0  0  0  0  0  0
    8.7180   10.4940    3.3660 N   0  0  0  0  0  0  0  0  0  0  0  0
    7.3710   11.1830    1.4030 N   0  0  0  0  0  0  0  0  0  0  0  0
    6.1600   11.2260    1.5300 O   0  0  0  0  0  0  0  0  0  0  0  0
    7.8610   10.9470    0.3120 O   0  0  0  0  0  0  0  0  0  0  0  0
    9.7260   15.3450    0.8250 C   0  0  0  0  0  0  0  0  0  0  0  0
   10.2000   14.3350   -0.1440 N   0  0  0  0  0  0  0  0  0  0  0  0
   10.4170   13.4720    0.3530 H   0  0  0  0  0  0  0  0  0  0  0  0
    9.1450   14.0610   -1.1430 C   0  0  0  0  0  0  0  0  0  0  0  0
    9.6130   12.9300   -2.0620 C   0  0  2  0  0  0  0  0  0  0  0  0
   10.8990   13.3580   -2.7740 C   0  0  0  0  0  0  0  0  0  0  0  0
   11.9600   13.7110   -1.7280 C   0  0  0  0  0  0  0  0  0  0  0  0
   11.4240   14.8190   -0.8190 C   0  0  0  0  0  0  0  0  0  0  0  0
    8.6010   12.6520   -3.0300 O   0  0  0  0  0  0  0  0  0  0  0  0
    7.7380   12.5960   -2.5900 H   0  0  0  0  0  0  0  0  0  0  0  0
  1 13  1  6  0  0  0
  1  4  1  0  0  0  0
  1  2  1  0  0  0  0
  3  2  1  0  0  0  0
  4  7  1  0  0  0  0
  6  5  2  0  0  0  0
  7  6  1  0  0  0  0
  8  7  1  0  0  0  0
  8  9  2  0  0  0  0
  9  5  1  0  0  0  0
 10 11  2  0  0  0  0
 10  8  1  0  0  0  0
 12 10  2  0  0  0  0
 14 15  1  0  0  0  0
 14 13  1  0  0  0  0
 16 14  1  0  0  0  0
 17 21  1  6  0  0  0
 17 16  1  0  0  0  0
 18 17  1  0  0  0  0
 18 19  1  0  0  0  0
 19 20  1  0  0  0  0
 20 14  1  0  0  0  0
 21 22  1  0  0  0  0
M  END
>  <MODEL>
1

>  <REMARK>
 VINA RESULT:      -6.5      0.000      0.000
  Name = ZINC05117605
                            x       y       z     vdW  Elec       q    Type
                         _______ _______ _______ _____ _____    ______ ____

>  <TORSDO>
F 7

>  <vina_score>
-6.5

$$$$
ZINC31381385
 OpenBabel01091701473D

 27 28  0  0  1  0  0  0  0  0999 V2000
    9.2200   14.7750    0.8420 N   0  0  0  0  0  0  0  0  0  0  0  0
    8.8160   13.9460    0.4980 H   0  0  0  0  0  0  0  0  0  0  0  0
    9.1340   15.0720    2.1540 C   0  0  0  0  0  0  0  0  0  0  0  0
    9.6320   16.0940    2.5780 O   0  0  0  0  0  0  0  0  0  0  0  0
    9.9160   15.6850   -0.0710 C   0  0  0  0  0  0  0  0  0  0  0  0
   10.2110   14.9610   -1.3850 C   0  0  1  0  0  0  0  0  0  0  0  0
   11.3060   13.9160   -1.1580 C   0  0  0  0  0  0  0  0  0  0  0  0
   12.0890   14.2660    0.1090 C   0  0  0  0  0  0  0  0  0  0  0  0
   12.2560   13.9030   -2.3580 C   0  0  0  0  0  0  0  0  0  0  0  0
    8.9910   14.2960   -1.8620 N   0  0  0  0  0  0  0  0  0  0  0  0
    8.1970   14.7140   -1.3790 H   0  0  0  0  0  0  0  0  0  0  0  0
    9.2990   13.2810   -4.0690 C   0  0  0  0  0  0  0  0  0  0  0  0
    8.8040   14.5090   -3.3040 C   0  0  0  0  0  0  0  0  0  0  0  0
    9.0130   12.8630   -1.5410 C   0  0  0  0  0  0  0  0  0  0  0  0
    7.5800   12.3640   -1.3420 C   0  0  0  0  0  0  0  0  0  0  0  0
    8.4130   14.1390    3.0920 C   0  0  0  0  0  0  0  0  0  0  0  0
    8.9870   12.7960    2.9810 N   0  0  0  0  0  0  0  0  0  0  0  0
   10.2050   12.4520    3.4420 C   0  0  0  0  0  0  0  0  0  0  0  0
   10.3700   10.9820    3.1100 C   0  0  1  0  0  0  0  0  0  0  0  0
   10.5470   10.1590    4.3870 C   0  0  0  0  0  0  0  0  0  0  0  0
    9.1060   10.6350    2.4380 N   0  0  0  0  0  0  0  0  0  0  0  0
   11.0040   13.1700    4.0040 O   0  0  0  0  0  0  0  0  0  0  0  0
    8.3620   11.7560    2.4140 C   0  0  0  0  0  0  0  0  0  0  0  0
    7.2490   11.8190    1.9300 O   0  0  0  0  0  0  0  0  0  0  0  0
   11.5550   10.7720    2.1670 C   0  0  0  0  0  0  0  0  0  0  0  0
   12.8410   10.1980    2.7630 C   0  0  0  0  0  0  0  0  0  0  0  0
   12.7790   11.6720    2.3560 C   0  0  0  0  0  0  0  0  0  0  0  0
  1  3  1  0  0  0  0
  2  1  1  0  0  0  0
  3  4  2  0  0  0  0
  3 16  1  0  0  0  0
  5  1  1  0  0  0  0
  6 10  1  1  0  0  0
  6  7  1  0  0  0  0
  6  5  1  0  0  0  0
  7  8  1  0  0  0  0
  9  7  1  0  0  0  0
 10 14  1  0  0  0  0
 10 11  1  0  0  0  0
 12 13  1  0  0  0  0
 13 10  1  0  0  0  0
 14 15  1  0  0  0  0
 17 16  1  0  0  0  0
 17 18  1  0  0  0  0
 18 22  2  0  0  0  0
 19 25  1  6  0  0  0
 19 18  1  0  0  0  0
 19 20  1  0  0  0  0
 21 19  1  0  0  0  0
 23 21  1  0  0  0  0
 23 17  1  0  0  0  0
 24 23  2  0  0  0  0
 25 27  1  0  0  0  0
 25 26  1  0  0  0  0
 27 26  1  0  0  0  0
M  END
>  <MODEL>
1

>  <REMARK>
 VINA RESULT:      -6.5      0.000      0.000
  Name = ZINC31381385
                            x       y       z     vdW  Elec       q    Type
                         _______ _______ _______ _____ _____    ______ ____

>  <TORSDO>
F 9

>  <vina_score>
-6.5

$$$$
ZINC21018929
 OpenBabel01091701493D

 23 23  0  0  1  0  0  0  0  0999 V2000
   10.7760   15.3820   -0.9280 C   0  0  2  0  0  0  0  0  0  0  0  0
   12.0200   14.9060   -1.6820 C   0  0  0  0  0  0  0  0  0  0  0  0
   10.5840   12.8480    4.2620 C   0  0  0  0  0  0  0  0  0  0  0  0
   10.6350   13.5090    2.9090 C   0  0  0  0  0  0  0  0  0  0  0  0
    9.6960   14.4670    2.5720 C   0  0  0  0  0  0  0  0  0  0  0  0
    9.7420   15.0720    1.3310 C   0  0  0  0  0  0  0  0  0  0  0  0
   10.7260   14.7210    0.4250 C   0  0  0  0  0  0  0  0  0  0  0  0
   11.6640   13.7640    0.7620 C   0  0  0  0  0  0  0  0  0  0  0  0
   11.6180   13.1570    2.0040 C   0  0  0  0  0  0  0  0  0  0  0  0
   12.6270   12.1370    2.3660 N   0  0  0  0  0  0  0  0  0  0  0  0
   13.4860   12.3950    3.1910 O   0  0  0  0  0  0  0  0  0  0  0  0
   12.5980   11.0390    1.8410 O   0  0  0  0  0  0  0  0  0  0  0  0
    9.5730   15.0260   -1.6930 N   0  0  0  0  0  0  0  0  0  0  0  0
    8.7570   15.1640   -1.0960 H   0  0  0  0  0  0  0  0  0  0  0  0
    9.5150   15.6210   -2.5190 H   0  0  0  0  0  0  0  0  0  0  0  0
    9.6140   13.6200   -2.1140 C   0  0  0  0  0  0  0  0  0  0  0  0
    8.2190   13.0070   -1.9850 C   0  0  0  0  0  0  0  0  0  0  0  0
    7.7650   13.1160   -0.5960 N   0  0  0  0  0  0  0  0  0  0  0  0
    6.7940   13.4280   -0.6280 H   0  0  0  0  0  0  0  0  0  0  0  0
    7.8100   11.7900    0.3950 S   0  0  0  0  0  0  0  0  0  0  0  0
    6.7510   10.5630   -0.4180 C   0  0  0  0  0  0  0  0  0  0  0  0
    7.2140   12.2240    1.6090 O   0  0  0  0  0  0  0  0  0  0  0  0
    9.1650   11.3630    0.3670 O   0  0  0  0  0  0  0  0  0  0  0  0
  1 13  1  6  0  0  0
  1  7  1  0  0  0  0
  2  1  1  0  0  0  0
  4  3  1  0  0  0  0
  5  4  1  0  0  0  0
  6  5  2  0  0  0  0
  7  8  2  0  0  0  0
  7  6  1  0  0  0  0
  8  9  1  0  0  0  0
  9 10  1  0  0  0  0
  9  4  2  0  0  0  0
 10 11  2  0  0  0  0
 12 10  2  0  0  0  0
 13 14  1  0  0  0  0
 15 13  1  0  0  0  0
 16 17  1  0  0  0  0
 16 13  1  0  0  0  0
 17 18  1  0  0  0  0
 18 20  1  0  0  0  0
 19 18  1  0  0  0  0
 20 22  2  0  0  0  0
 21 20  1  0  0  0  0
 23 20  2  0  0  0  0
M  END
>  <MODEL>
1

>  <REMARK>
 VINA RESULT:      -6.5      0.000      0.000
  Name = ZINC21018929
                            x       y       z     vdW  Elec       q    Type
                         _______ _______ _______ _____ _____    ______ ____

>  <TORSDO>
F 7

>  <vina_score>
-6.5

$$$$
ZINC17105047
 OpenBabel01091701503D

 20 21  0  0  0  0  0  0  0  0999 V2000
   11.9760   13.6350   -0.5540 C   0  0  0  0  0  0  0  0  0  0  0  0
   12.2620   12.7180    0.3280 N   0  0  0  0  0  0  0  0  0  0  0  0
   11.8960   12.8960    1.6680 N   0  0  0  0  0  0  0  0  0  0  0  0
   10.6250   12.6600    2.2160 N   0  0  0  0  0  0  0  0  0  0  0  0
   10.7480   12.9730    3.5610 C   0  0  0  0  0  0  0  0  0  0  0  0
   12.0410   13.3660    3.7350 N   0  0  0  0  0  0  0  0  0  0  0  0
    9.8180   12.9010    4.4750 N   0  0  0  0  0  0  0  0  0  0  0  0
   10.0210   13.1470    5.4060 H   0  0  0  0  0  0  0  0  0  0  0  0
    8.9110   12.6020    4.2330 H   0  0  0  0  0  0  0  0  0  0  0  0
   12.6660   13.3050    2.6140 N   0  0  0  0  0  0  0  0  0  0  0  0
   11.5060   14.9040   -0.1310 C   0  0  0  0  0  0  0  0  0  0  0  0
   10.2630   15.2390   -0.3340 N   0  0  0  0  0  0  0  0  0  0  0  0
    9.4320   14.4160   -1.1060 N   0  0  0  0  0  0  0  0  0  0  0  0
    8.5370   13.4520   -0.6130 N   0  0  0  0  0  0  0  0  0  0  0  0
    7.9450   12.9020   -1.7410 C   0  0  0  0  0  0  0  0  0  0  0  0
    8.5080   13.5400   -2.8050 N   0  0  0  0  0  0  0  0  0  0  0  0
    7.0390   11.9620   -1.7750 N   0  0  0  0  0  0  0  0  0  0  0  0
    6.6920   11.6440   -2.6390 H   0  0  0  0  0  0  0  0  0  0  0  0
    6.7030   11.5710   -0.9360 H   0  0  0  0  0  0  0  0  0  0  0  0
    9.3610   14.4060   -2.3890 N   0  0  0  0  0  0  0  0  0  0  0  0
  1 11  1  0  0  0  0
  1  2  2  0  0  0  0
  2  3  1  0  0  0  0
  3  4  1  0  0  0  0
  3 10  1  0  0  0  0
  4  5  2  0  0  0  0
  5  6  1  0  0  0  0
  5  7  1  0  0  0  0
  7  8  1  0  0  0  0
  9  7  1  0  0  0  0
 10  6  2  0  0  0  0
 12 11  2  0  0  0  0
 13 14  1  0  0  0  0
 13 12  1  0  0  0  0
 15 14  2  0  0  0  0
 16 20  2  0  0  0  0
 16 15  1  0  0  0  0
 17 15  1  0  0  0  0
 17 19  1  0  0  0  0
 18 17  1  0  0  0  0
 20 13  1  0  0  0  0
M  END
>  <MODEL>
1

>  <REMARK>
 VINA RESULT:      -6.5      0.000      0.000
  Name = ZINC17105047
                            x       y       z     vdW  Elec       q    Type
                         _______ _______ _______ _____ _____    ______ ____

>  <TORSDO>
F 3

>  <vina_score>
-6.5

$$$$
ZINC29731274
 OpenBabel01091701293D

 27 27  0  0  0  0  0  0  0  0999 V2000
    9.6760   13.0890    3.9060 N   0  0  0  0  0  0  0  0  0  0  0  0
   10.5510   13.2670    4.3210 H   0  0  0  0  0  0  0  0  0  0  0  0
    9.2980   13.7790    2.8120 C   0  0  0  0  0  0  0  0  0  0  0  0
   10.1160   14.7130    2.2880 N   0  0  0  0  0  0  0  0  0  0  0  0
   10.9930   14.8880    2.7010 H   0  0  0  0  0  0  0  0  0  0  0  0
    8.2180   13.5600    2.2980 O   0  0  0  0  0  0  0  0  0  0  0  0
    8.7870   12.0740    4.4760 C   0  0  0  0  0  0  0  0  0  0  0  0
    9.5980   10.8300    4.8400 C   0  0  0  0  0  0  0  0  0  0  0  0
   10.2980   10.2940    3.5890 C   0  0  0  0  0  0  0  0  0  0  0  0
   11.6760   10.7910    3.5500 N   0  0  0  0  0  0  0  0  0  0  0  0
   11.7410   11.5350    4.2430 H   0  0  0  0  0  0  0  0  0  0  0  0
   10.9410   11.2750    0.9420 C   0  0  0  0  0  0  0  0  0  0  0  0
   12.2980   11.3950    2.1400 S   0  0  0  0  0  0  0  0  0  0  0  0
   13.3420   10.4980    1.7890 O   0  0  0  0  0  0  0  0  0  0  0  0
   12.5820   12.7590    2.4230 O   0  0  0  0  0  0  0  0  0  0  0  0
    9.7020   15.4680    1.1020 C   0  0  0  0  0  0  0  0  0  0  0  0
   10.2950   14.8340   -0.1300 C   0  0  0  0  0  0  0  0  0  0  0  0
   11.6620   14.8790   -0.3400 C   0  0  0  0  0  0  0  0  0  0  0  0
   12.2140   14.2960   -1.4660 C   0  0  0  0  0  0  0  0  0  0  0  0
   11.4030   13.6730   -2.3920 C   0  0  0  0  0  0  0  0  0  0  0  0
   10.0230   13.6270   -2.1890 C   0  0  0  0  0  0  0  0  0  0  0  0
    9.4720   14.2150   -1.0480 C   0  0  0  0  0  0  0  0  0  0  0  0
    9.1480   12.9630   -3.1770 C   0  0  0  0  0  0  0  0  0  0  0  0
    8.0150   12.3550   -2.7730 N   0  0  0  0  0  0  0  0  0  0  0  0
    7.4320   11.9120   -3.4310 H   0  0  0  0  0  0  0  0  0  0  0  0
    7.7710   12.3530   -1.8190 H   0  0  0  0  0  0  0  0  0  0  0  0
    9.4490   12.9640   -4.3540 O   0  0  0  0  0  0  0  0  0  0  0  0
  1  2  1  0  0  0  0
  1  7  1  0  0  0  0
  3  1  1  0  0  0  0
  4  5  1  0  0  0  0
  4  3  1  0  0  0  0
  6  3  2  0  0  0  0
  7  8  1  0  0  0  0
  9  8  1  0  0  0  0
 10  9  1  0  0  0  0
 10 11  1  0  0  0  0
 12 13  1  0  0  0  0
 13 15  2  0  0  0  0
 13 10  1  0  0  0  0
 14 13  2  0  0  0  0
 16  4  1  0  0  0  0
 17 16  1  0  0  0  0
 18 17  1  0  0  0  0
 19 18  2  0  0  0  0
 20 21  2  0  0  0  0
 20 19  1  0  0  0  0
 21 22  1  0  0  0  0
 22 17  2  0  0  0  0
 23 24  1  0  0  0  0
 23 21  1  0  0  0  0
 24 26  1  0  0  0  0
 25 24  1  0  0  0  0
 27 23  2  0  0  0  0
M  END
>  <MODEL>
1

>  <REMARK>
 VINA RESULT:      -6.5      0.000      0.000
  Name = ZINC29731274
                            x       y       z     vdW  Elec       q    Type
                         _______ _______ _______ _____ _____    ______ ____

>  <TORSDO>
F 8

>  <vina_score>
-6.5

$$$$
ZINC09546414
 OpenBabel01091701233D

 29 31  0  0  0  0  0  0  0  0999 V2000
    9.9280   11.9780    0.5310 C   0  0  0  0  0  0  0  0  0  0  0  0
    9.7470   12.7810   -0.5610 C   0  0  0  0  0  0  0  0  0  0  0  0
    8.5880   13.4480   -0.4120 N   0  0  0  0  0  0  0  0  0  0  0  0
    8.0330   13.1040    0.6980 N   0  0  0  0  0  0  0  0  0  0  0  0
    8.8590   12.1680    1.3360 N   0  0  0  0  0  0  0  0  0  0  0  0
    8.6220   11.5490    2.5680 C   0  0  0  0  0  0  0  0  0  0  0  0
    9.0460   12.0540    3.8770 C   0  0  0  0  0  0  0  0  0  0  0  0
    8.6470   11.2110    4.7900 N   0  0  0  0  0  0  0  0  0  0  0  0
    7.9670   10.1530    4.1380 O   0  0  0  0  0  0  0  0  0  0  0  0
    7.9820   10.4280    2.7470 N   0  0  0  0  0  0  0  0  0  0  0  0
    9.7510   13.2290    4.1070 N   0  0  0  0  0  0  0  0  0  0  0  0
   10.2260   13.3600    4.9590 H   0  0  0  0  0  0  0  0  0  0  0  0
    9.7770   13.9310    3.4170 H   0  0  0  0  0  0  0  0  0  0  0  0
   10.6690   12.9000   -1.7040 C   0  0  0  0  0  0  0  0  0  0  0  0
   10.2480   12.7880   -2.8380 O   0  0  0  0  0  0  0  0  0  0  0  0
   11.9780   13.1340   -1.4920 O   0  0  0  0  0  0  0  0  0  0  0  0
   12.3520   14.4770   -1.0890 C   0  0  0  0  0  0  0  0  0  0  0  0
   11.6290   15.4950   -1.9740 C   0  0  0  0  0  0  0  0  0  0  0  0
   11.0940   11.0590    0.7870 C   0  0  0  0  0  0  0  0  0  0  0  0
   14.0440   12.0510    3.6400 N   0  0  0  0  0  0  0  0  0  0  0  0
   14.7590   11.8850    2.9330 H   0  0  0  0  0  0  0  0  0  0  0  0
   13.1450   13.1270    3.1740 C   0  0  0  0  0  0  0  0  0  0  0  0
   12.5220   12.7060    1.8400 C   0  0  0  0  0  0  0  0  0  0  0  0
   11.7520   11.4620    2.0480 N   0  0  0  0  0  0  0  0  0  0  0  0
   11.0360   11.6270    2.7560 H   0  0  0  0  0  0  0  0  0  0  0  0
   12.6510   10.3850    2.5150 C   0  0  0  0  0  0  0  0  0  0  0  0
   13.2740   10.8070    3.8470 C   0  0  0  0  0  0  0  0  0  0  0  0
   15.5540   11.2890    5.4080 C   0  0  0  0  0  0  0  0  0  0  0  0
   14.7020   12.4540    4.9020 C   0  0  0  0  0  0  0  0  0  0  0  0
  1 19  1  0  0  0  0
  1  5  1  0  0  0  0
  2  3  1  0  0  0  0
  2  1  2  0  0  0  0
  3  4  2  0  0  0  0
  4  5  1  0  0  0  0
  5  6  1  0  0  0  0
  6 10  2  0  0  0  0
  6  7  1  0  0  0  0
  7 11  1  0  0  0  0
  7  8  2  0  0  0  0
  9  8  1  0  0  0  0
 10  9  1  0  0  0  0
 11 12  1  0  0  0  0
 13 11  1  0  0  0  0
 14 16  1  0  0  0  0
 14  2  1  0  0  0  0
 15 14  2  0  0  0  0
 16 17  1  0  0  0  0
 18 17  1  0  0  0  0
 19 24  1  0  0  0  0
 20 27  1  0  0  0  0
 20 29  1  0  0  0  0
 21 20  1  0  0  0  0
 22 20  1  0  0  0  0
 23 24  1  0  0  0  0
 23 22  1  0  0  0  0
 24 26  1  0  0  0  0
 24 25  1  0  0  0  0
 26 27  1  0  0  0  0
 29 28  1  0  0  0  0
M  END
>  <MODEL>
1

>  <REMARK>
 VINA RESULT:      -6.5      0.000      0.000
  Name = ZINC09546414
                            x       y       z     vdW  Elec       q    Type
                         _______ _______ _______ _____ _____    ______ ____

>  <TORSDO>
F 8

>  <vina_score>
-6.5

$$$$
ZINC20934722
 OpenBabel01091701333D

 28 29  0  0  0  0  0  0  0  0999 V2000
   11.6610   13.5280    1.8470 C   0  0  0  0  0  0  0  0  0  0  0  0
   12.0320   13.9880    0.5950 C   0  0  0  0  0  0  0  0  0  0  0  0
   11.2390   14.9070   -0.0670 C   0  0  0  0  0  0  0  0  0  0  0  0
   10.0750   15.3680    0.5180 C   0  0  0  0  0  0  0  0  0  0  0  0
    9.6980   14.9130    1.7680 C   0  0  0  0  0  0  0  0  0  0  0  0
   10.4860   13.9880    2.4350 C   0  0  0  0  0  0  0  0  0  0  0  0
   12.4400   12.6250    2.5010 O   0  0  0  0  0  0  0  0  0  0  0  0
   13.0910   10.3640    3.0560 C   0  0  0  0  0  0  0  0  0  0  0  0
   12.3800   11.2700    2.0480 C   0  0  0  0  0  0  0  0  0  0  0  0
   11.6450   15.4070   -1.4300 C   0  0  0  0  0  0  0  0  0  0  0  0
   10.6190   15.0350   -2.4130 N   0  0  0  0  0  0  0  0  0  0  0  0
    9.7050   15.2920   -2.0410 H   0  0  0  0  0  0  0  0  0  0  0  0
   10.7990   15.5290   -3.2870 H   0  0  0  0  0  0  0  0  0  0  0  0
   10.6320   13.5890   -2.6670 C   0  0  0  0  0  0  0  0  0  0  0  0
    9.5100   12.9340   -1.9020 C   0  0  0  0  0  0  0  0  0  0  0  0
    8.2000   13.1220   -2.3040 C   0  0  0  0  0  0  0  0  0  0  0  0
    7.1700   12.5220   -1.6110 C   0  0  0  0  0  0  0  0  0  0  0  0
    7.4510   11.7300   -0.4960 C   0  0  0  0  0  0  0  0  0  0  0  0
    8.7750   11.5480   -0.0930 C   0  0  0  0  0  0  0  0  0  0  0  0
    9.7960   12.1500   -0.7980 C   0  0  0  0  0  0  0  0  0  0  0  0
    6.3510   11.0880    0.2540 C   0  0  0  0  0  0  0  0  0  0  0  0
    6.3250   11.1530    1.5990 O   0  0  0  0  0  0  0  0  0  0  0  0
    5.4710   10.5010   -0.3440 O   0  0  0  0  0  0  0  0  0  0  0  0
   10.1150   13.5350    3.6610 O   0  0  0  0  0  0  0  0  0  0  0  0
    9.0410   12.5940    3.7080 C   0  0  0  0  0  0  0  0  0  0  0  0
    9.5100   11.3210    4.4170 C   0  0  0  0  0  0  0  0  0  0  0  0
    8.3740   10.5440    4.8030 O   0  0  0  0  0  0  0  0  0  0  0  0
    7.5640   11.0470    4.6290 H   0  0  0  0  0  0  0  0  0  0  0  0
  1  6  1  0  0  0  0
  1  7  1  0  0  0  0
  2  1  2  0  0  0  0
  3  4  2  0  0  0  0
  3  2  1  0  0  0  0
  4  5  1  0  0  0  0
  5  6  2  0  0  0  0
  6 24  1  0  0  0  0
  9  7  1  0  0  0  0
  9  8  1  0  0  0  0
 10  3  1  0  0  0  0
 11 12  1  0  0  0  0
 11 10  1  0  0  0  0
 13 11  1  0  0  0  0
 14 11  1  0  0  0  0
 14 15  1  0  0  0  0
 15 20  1  0  0  0  0
 16 15  2  0  0  0  0
 16 17  1  0  0  0  0
 17 18  2  0  0  0  0
 18 19  1  0  0  0  0
 18 21  1  0  0  0  0
 20 19  2  0  0  0  0
 21 22  1  0  0  0  0
 23 21  2  0  0  0  0
 24 25  1  0  0  0  0
 25 26  1  0  0  0  0
 26 27  1  0  0  0  0
 28 27  1  0  0  0  0
M  END
>  <MODEL>
1

>  <REMARK>
 VINA RESULT:      -6.5      0.000      0.000
  Name = ZINC20934722
                            x       y       z     vdW  Elec       q    Type
                         _______ _______ _______ _____ _____    ______ ____

>  <TORSDO>
F 11

>  <vina_score>
-6.5

$$$$
ZINC04340004
 OpenBabel01091701333D

 22 23  0  0  1  0  0  0  0  0999 V2000
   11.8950   13.2080    0.8970 N   0  0  0  0  0  0  0  0  0  0  0  0
   12.1190   12.4300    0.2770 H   0  0  0  0  0  0  0  0  0  0  0  0
   12.3870   13.1010    1.7840 H   0  0  0  0  0  0  0  0  0  0  0  0
   10.4400   13.2200    1.1450 C   0  0  1  0  0  0  0  0  0  0  0  0
    9.9510   11.7800    1.4720 C   0  0  0  0  0  0  0  0  0  0  0  0
    8.3570   12.1490    2.3210 S   0  0  0  0  0  0  0  0  0  0  0  0
    8.6780   13.8860    2.8300 C   0  0  0  0  0  0  0  0  0  0  0  0
    8.2520   11.3370    3.4810 O   0  0  0  0  0  0  0  0  0  0  0  0
    7.3090   12.1350    1.3600 O   0  0  0  0  0  0  0  0  0  0  0  0
   10.1350   14.1150    2.3590 C   0  0  1  0  0  0  0  0  0  0  0  0
   11.0340   13.7960    3.4230 O   0  0  0  0  0  0  0  0  0  0  0  0
   10.9470   14.4580    4.1280 H   0  0  0  0  0  0  0  0  0  0  0  0
   12.3150   14.4690    0.2560 C   0  0  0  0  0  0  0  0  0  0  0  0
   12.3260   14.2810   -1.2620 C   0  0  0  0  0  0  0  0  0  0  0  0
   11.5270   15.4070   -1.9210 C   0  0  0  0  0  0  0  0  0  0  0  0
    9.1970   14.8330   -1.5930 C   0  0  0  0  0  0  0  0  0  0  0  0
   10.3210   14.8310   -2.5530 N   0  0  0  0  0  0  0  0  0  0  0  0
   10.0680   15.3970   -3.3620 H   0  0  0  0  0  0  0  0  0  0  0  0
   10.5970   13.4490   -3.0010 C   0  0  0  0  0  0  0  0  0  0  0  0
    9.3430   12.8930   -3.6810 C   0  0  0  0  0  0  0  0  0  0  0  0
    8.2470   12.9460   -2.7640 O   0  0  0  0  0  0  0  0  0  0  0  0
    7.9580   14.2630   -2.2880 C   0  0  0  0  0  0  0  0  0  0  0  0
  1  3  1  0  0  0  0
  2  1  1  0  0  0  0
  4  1  1  1  0  0  0
  4  5  1  0  0  0  0
  4 10  1  0  0  0  0
  5  6  1  0  0  0  0
  6  7  1  0  0  0  0
  6  8  2  0  0  0  0
  9  6  2  0  0  0  0
 10  7  1  0  0  0  0
 10 11  1  1  0  0  0
 11 12  1  0  0  0  0
 13  1  1  0  0  0  0
 14 13  1  0  0  0  0
 15 14  1  0  0  0  0
 17 15  1  0  0  0  0
 17 16  1  0  0  0  0
 18 17  1  0  0  0  0
 19 17  1  0  0  0  0
 20 19  1  0  0  0  0
 20 21  1  0  0  0  0
 21 22  1  0  0  0  0
 22 16  1  0  0  0  0
M  END
>  <MODEL>
1

>  <REMARK>
 VINA RESULT:      -6.4      0.000      0.000
  Name = ZINC04340004
                            x       y       z     vdW  Elec       q    Type
                         _______ _______ _______ _____ _____    ______ ____

>  <TORSDO>
F 6

>  <vina_score>
-6.4

$$$$
ZINC07578883
 OpenBabel01091701353D

 25 25  0  0  0  0  0  0  0  0999 V2000
   10.3150   14.0890   -1.9740 N   0  0  0  0  0  0  0  0  0  0  0  0
   10.1730   13.2550   -1.4030 H   0  0  0  0  0  0  0  0  0  0  0  0
   11.5920   13.9580   -2.7060 C   0  0  0  0  0  0  0  0  0  0  0  0
    9.1940   14.2110   -2.9310 C   0  0  0  0  0  0  0  0  0  0  0  0
    7.9190   12.2190   -2.2090 N   0  0  0  0  0  0  0  0  0  0  0  0
    8.6770   11.6650   -2.5060 H   0  0  0  0  0  0  0  0  0  0  0  0
    7.9730   13.5600   -2.3340 C   0  0  0  0  0  0  0  0  0  0  0  0
    7.0400   14.2400   -1.9670 O   0  0  0  0  0  0  0  0  0  0  0  0
    5.6540   10.3090    0.1170 C   0  0  0  0  0  0  0  0  0  0  0  0
    6.8740   10.9610   -0.4780 C   0  0  0  0  0  0  0  0  0  0  0  0
    6.7840   11.6120   -1.6550 N   0  0  0  0  0  0  0  0  0  0  0  0
    5.9200   11.6610   -2.1250 H   0  0  0  0  0  0  0  0  0  0  0  0
    7.9370   10.9000    0.1010 O   0  0  0  0  0  0  0  0  0  0  0  0
   10.3580   15.2730   -1.0920 C   0  0  0  0  0  0  0  0  0  0  0  0
   10.1330   14.8290    0.3300 C   0  0  0  0  0  0  0  0  0  0  0  0
   10.1150   13.5140    0.6310 N   0  0  0  0  0  0  0  0  0  0  0  0
   10.1620   12.8440   -0.0890 H   0  0  0  0  0  0  0  0  0  0  0  0
    9.9740   15.6540    1.2050 O   0  0  0  0  0  0  0  0  0  0  0  0
   10.0280   13.1030    1.9660 C   0  0  0  0  0  0  0  0  0  0  0  0
    8.7870   12.9680    2.5740 C   0  0  0  0  0  0  0  0  0  0  0  0
    8.7050   12.5570    3.8900 C   0  0  0  0  0  0  0  0  0  0  0  0
    9.8570   12.2910    4.6060 C   0  0  0  0  0  0  0  0  0  0  0  0
   11.0950   12.4290    4.0070 C   0  0  0  0  0  0  0  0  0  0  0  0
   11.1850   12.8350    2.6880 C   0  0  0  0  0  0  0  0  0  0  0  0
   12.7390   13.0100    1.9350 Cl  0  0  0  0  0  0  0  0  0  0  0  0
  1  2  1  0  0  0  0
  1 14  1  0  0  0  0
  3  1  1  0  0  0  0
  4  7  1  0  0  0  0
  4  1  1  0  0  0  0
  5 11  1  0  0  0  0
  6  5  1  0  0  0  0
  7  5  1  0  0  0  0
  7  8  2  0  0  0  0
 10 13  2  0  0  0  0
 10  9  1  0  0  0  0
 11 10  1  0  0  0  0
 12 11  1  0  0  0  0
 14 15  1  0  0  0  0
 15 16  1  0  0  0  0
 15 18  2  0  0  0  0
 16 19  1  0  0  0  0
 17 16  1  0  0  0  0
 19 20  2  0  0  0  0
 19 24  1  0  0  0  0
 20 21  1  0  0  0  0
 21 22  2  0  0  0  0
 23 22  1  0  0  0  0
 24 23  2  0  0  0  0
 25 24  1  0  0  0  0
M  END
>  <MODEL>
1

>  <REMARK>
 VINA RESULT:      -6.4      0.000      0.000
  Name = ZINC07578883
                            x       y       z     vdW  Elec       q    Type
                         _______ _______ _______ _____ _____    ______ ____

>  <TORSDO>
F 6

>  <vina_score>
-6.4

$$$$
ZINC31792221
 OpenBabel01091701233D

 22 23  0  0  0  0  0  0  0  0999 V2000
   12.1670   15.4900   -1.5520 C   0  0  0  0  0  0  0  0  0  0  0  0
   11.0610   14.7010   -0.9010 C   0  0  0  0  0  0  0  0  0  0  0  0
   10.4640   13.6760   -1.5540 C   0  0  0  0  0  0  0  0  0  0  0  0
    9.2820   13.1410   -0.3250 S   0  0  0  0  0  0  0  0  0  0  0  0
    9.6840   14.3070    0.8970 C   0  0  0  0  0  0  0  0  0  0  0  0
   10.6480   14.9970    0.3170 N   0  0  0  0  0  0  0  0  0  0  0  0
   10.7280   13.1320   -2.9350 C   0  0  0  0  0  0  0  0  0  0  0  0
    9.5360   13.4050   -3.8180 C   0  0  0  0  0  0  0  0  0  0  0  0
    9.0090   14.6440   -3.8740 N   0  0  0  0  0  0  0  0  0  0  0  0
    8.2310   14.8220   -4.4510 H   0  0  0  0  0  0  0  0  0  0  0  0
    9.4020   15.3710   -3.3400 H   0  0  0  0  0  0  0  0  0  0  0  0
    9.0530   12.5100   -4.4770 O   0  0  0  0  0  0  0  0  0  0  0  0
    8.9850   14.5140    2.5020 S   0  0  0  0  0  0  0  0  0  0  0  0
    8.5810   12.7940    2.8920 C   0  0  0  0  0  0  0  0  0  0  0  0
    9.6190   12.2360    3.8690 C   0  0  0  0  0  0  0  0  0  0  0  0
   10.8320   11.8700    3.1340 N   0  0  0  0  0  0  0  0  0  0  0  0
   12.0180   12.4980    3.2690 C   0  0  0  0  0  0  0  0  0  0  0  0
   12.9680   11.7860    2.3270 C   0  0  0  0  0  0  0  0  0  0  0  0
   12.1300   10.7420    1.7120 N   0  0  0  0  0  0  0  0  0  0  0  0
   12.2700   13.4360    3.9930 O   0  0  0  0  0  0  0  0  0  0  0  0
   10.9030   10.8690    2.2510 C   0  0  0  0  0  0  0  0  0  0  0  0
    9.9620   10.1540    1.9630 O   0  0  0  0  0  0  0  0  0  0  0  0
  1  2  1  0  0  0  0
  2  6  1  0  0  0  0
  3  2  2  0  0  0  0
  3  4  1  0  0  0  0
  4  5  1  0  0  0  0
  5 13  1  0  0  0  0
  6  5  2  0  0  0  0
  7  3  1  0  0  0  0
  8  7  1  0  0  0  0
  9  8  1  0  0  0  0
  9 11  1  0  0  0  0
 10  9  1  0  0  0  0
 12  8  2  0  0  0  0
 13 14  1  0  0  0  0
 14 15  1  0  0  0  0
 16 17  1  0  0  0  0
 16 15  1  0  0  0  0
 17 20  2  0  0  0  0
 18 17  1  0  0  0  0
 19 21  1  0  0  0  0
 19 18  2  0  0  0  0
 21 16  1  0  0  0  0
 22 21  2  0  0  0  0
M  END
>  <MODEL>
1

>  <REMARK>
 VINA RESULT:      -6.4      0.000      0.000
  Name = ZINC31792221
                            x       y       z     vdW  Elec       q    Type
                         _______ _______ _______ _____ _____    ______ ____

>  <TORSDO>
F 6

>  <vina_score>
-6.4

$$$$
ZINC01625773
 OpenBabel01091701413D

 24 25  0  0  1  0  0  0  0  0999 V2000
   11.9970   13.5880   -0.8410 C   0  0  0  0  0  0  0  0  0  0  0  0
   11.6230   13.6390   -2.0860 N   0  0  0  0  0  0  0  0  0  0  0  0
   10.3410   13.2130   -2.1870 C   0  0  0  0  0  0  0  0  0  0  0  0
    9.4370   13.0560   -3.2640 C   0  0  0  0  0  0  0  0  0  0  0  0
    8.1970   12.5910   -2.9990 N   0  0  0  0  0  0  0  0  0  0  0  0
    7.5500   12.4730   -3.7310 H   0  0  0  0  0  0  0  0  0  0  0  0
    7.8350   12.2840   -1.7200 C   0  0  0  0  0  0  0  0  0  0  0  0
    8.6660   12.4240   -0.7110 N   0  0  0  0  0  0  0  0  0  0  0  0
    9.7700   13.3340   -4.4040 O   0  0  0  0  0  0  0  0  0  0  0  0
    9.9100   12.8800   -0.8980 C   0  0  0  0  0  0  0  0  0  0  0  0
   10.9730   13.1200   -0.0690 N   0  0  0  0  0  0  0  0  0  0  0  0
    6.5690   11.8130   -1.4800 N   0  0  0  0  0  0  0  0  0  0  0  0
    6.0500   11.4040   -2.2080 H   0  0  0  0  0  0  0  0  0  0  0  0
    6.1800   11.8840   -0.5770 H   0  0  0  0  0  0  0  0  0  0  0  0
   11.0040   12.9140    1.3800 C   0  0  1  0  0  0  0  0  0  0  0  0
   10.4190   11.2420    1.7670 S   0  0  0  0  0  0  0  0  0  0  0  0
    8.9670   11.5170    2.8190 C   0  0  0  0  0  0  0  0  0  0  0  0
    8.5700   12.9940    2.7650 C   0  0  0  0  0  0  0  0  0  0  0  0
    7.5170   13.1700    1.8150 O   0  0  0  0  0  0  0  0  0  0  0  0
    7.8970   13.3520    0.9420 H   0  0  0  0  0  0  0  0  0  0  0  0
   12.4380   13.0830    1.8900 C   0  0  0  0  0  0  0  0  0  0  0  0
   12.4830   12.7960    3.3920 C   0  0  0  0  0  0  0  0  0  0  0  0
   11.6180   13.7030    4.0760 O   0  0  0  0  0  0  0  0  0  0  0  0
   11.9670   14.6040    3.9990 H   0  0  0  0  0  0  0  0  0  0  0  0
  1 11  1  0  0  0  0
  2  1  2  0  0  0  0
  3  2  1  0  0  0  0
  3 10  2  0  0  0  0
  4  5  1  0  0  0  0
  4  3  1  0  0  0  0
  5  7  1  0  0  0  0
  6  5  1  0  0  0  0
  7 12  1  0  0  0  0
  7  8  2  0  0  0  0
  9  4  2  0  0  0  0
 10  8  1  0  0  0  0
 10 11  1  0  0  0  0
 12 14  1  0  0  0  0
 13 12  1  0  0  0  0
 15 11  1  6  0  0  0
 15 16  1  0  0  0  0
 15 21  1  0  0  0  0
 16 17  1  0  0  0  0
 18 17  1  0  0  0  0
 19 18  1  0  0  0  0
 20 19  1  0  0  0  0
 21 22  1  0  0  0  0
 22 23  1  0  0  0  0
 24 23  1  0  0  0  0
M  END
>  <MODEL>
1

>  <REMARK>
 VINA RESULT:      -6.4      0.000      0.000
  Name = ZINC01625773
                            x       y       z     vdW  Elec       q    Type
                         _______ _______ _______ _____ _____    ______ ____

>  <TORSDO>
F 9

>  <vina_score>
-6.4

$$$$
ZINC09305196
 OpenBabel01091701433D

 27 28  0  0  0  0  0  0  0  0999 V2000
    8.9850   13.8030   -3.8170 C   0  0  0  0  0  0  0  0  0  0  0  0
    9.9280   12.8330   -3.5330 C   0  0  0  0  0  0  0  0  0  0  0  0
   10.5810   12.8350   -2.3130 C   0  0  0  0  0  0  0  0  0  0  0  0
   10.2790   13.8040   -1.3740 C   0  0  0  0  0  0  0  0  0  0  0  0
    9.3220   14.7810   -1.6560 C   0  0  0  0  0  0  0  0  0  0  0  0
    9.0220   15.7520   -0.6930 N   0  0  0  0  0  0  0  0  0  0  0  0
    8.2150   16.3070   -0.7970 H   0  0  0  0  0  0  0  0  0  0  0  0
    9.8250   15.9350    0.3720 C   0  0  0  0  0  0  0  0  0  0  0  0
   11.0940   15.1380    0.5290 C   0  0  0  0  0  0  0  0  0  0  0  0
    9.5220   16.7520    1.2170 O   0  0  0  0  0  0  0  0  0  0  0  0
   10.9250   13.8330   -0.1280 N   0  0  0  0  0  0  0  0  0  0  0  0
   11.3770   12.7010    0.4480 C   0  0  0  0  0  0  0  0  0  0  0  0
   11.9950   12.7540    1.6440 N   0  0  0  0  0  0  0  0  0  0  0  0
   12.1160   13.6190    2.0990 H   0  0  0  0  0  0  0  0  0  0  0  0
   11.2270   11.6330   -0.1120 O   0  0  0  0  0  0  0  0  0  0  0  0
    8.6770   14.7750   -2.8820 C   0  0  0  0  0  0  0  0  0  0  0  0
   12.4860   11.5240    2.2700 C   0  0  0  0  0  0  0  0  0  0  0  0
   11.8050   11.3340    3.6270 C   0  0  0  0  0  0  0  0  0  0  0  0
   10.8340   10.1540    3.5510 C   0  0  0  0  0  0  0  0  0  0  0  0
    9.4700   10.6520    3.1490 C   0  0  0  0  0  0  0  0  0  0  0  0
    8.9950   10.3910    1.9150 N   0  0  0  0  0  0  0  0  0  0  0  0
    9.5400    9.8760    1.2760 H   0  0  0  0  0  0  0  0  0  0  0  0
    8.8000   11.2860    3.9350 O   0  0  0  0  0  0  0  0  0  0  0  0
    7.6690   10.8740    1.5230 C   0  0  0  0  0  0  0  0  0  0  0  0
    7.8080   12.2150    0.7980 C   0  0  0  0  0  0  0  0  0  0  0  0
    7.6430   13.2810    1.7340 O   0  0  0  0  0  0  0  0  0  0  0  0
    6.7030   13.3740    1.9570 H   0  0  0  0  0  0  0  0  0  0  0  0
  1  2  2  0  0  0  0
  1 16  1  0  0  0  0
  2  3  1  0  0  0  0
  3  4  2  0  0  0  0
  4 11  1  0  0  0  0
  5  4  1  0  0  0  0
  5  6  1  0  0  0  0
  6  8  1  0  0  0  0
  7  6  1  0  0  0  0
  8  9  1  0  0  0  0
  8 10  2  0  0  0  0
 11 12  1  0  0  0  0
 11  9  1  0  0  0  0
 12 13  1  0  0  0  0
 13 14  1  0  0  0  0
 13 17  1  0  0  0  0
 15 12  2  0  0  0  0
 16  5  2  0  0  0  0
 17 18  1  0  0  0  0
 19 18  1  0  0  0  0
 20 19  1  0  0  0  0
 20 23  2  0  0  0  0
 21 20  1  0  0  0  0
 22 21  1  0  0  0  0
 24 21  1  0  0  0  0
 25 24  1  0  0  0  0
 25 26  1  0  0  0  0
 26 27  1  0  0  0  0
M  END
>  <MODEL>
1

>  <REMARK>
 VINA RESULT:      -6.4      0.000      0.000
  Name = ZINC09305196
                            x       y       z     vdW  Elec       q    Type
                         _______ _______ _______ _____ _____    ______ ____

>  <TORSDO>
F 7

>  <vina_score>
-6.4

$$$$
ZINC26376724
 OpenBabel01091701453D

 30 31  0  0  0  0  0  0  0  0999 V2000
    8.0390   11.3130    1.8230 C   0  0  0  0  0  0  0  0  0  0  0  0
    7.5560   10.2610    1.1320 N   0  0  0  0  0  0  0  0  0  0  0  0
    8.0820    9.4320    1.0650 H   0  0  0  0  0  0  0  0  0  0  0  0
    7.4330   12.3690    1.8270 O   0  0  0  0  0  0  0  0  0  0  0  0
   11.4520   11.2610    3.1490 C   0  0  0  0  0  0  0  0  0  0  0  0
   10.5490   11.5540    2.1230 C   0  0  0  0  0  0  0  0  0  0  0  0
    9.2960   11.1860    2.5680 C   0  0  0  0  0  0  0  0  0  0  0  0
    9.4420   10.6710    3.8360 N   0  0  0  0  0  0  0  0  0  0  0  0
    8.3600   10.1540    4.6770 C   0  0  0  0  0  0  0  0  0  0  0  0
   10.7530   10.7230    4.1770 C   0  0  0  0  0  0  0  0  0  0  0  0
   13.1910   11.5370    3.1110 S   0  0  0  0  0  0  0  0  0  0  0  0
   13.5250   11.8410    1.7640 O   0  0  0  0  0  0  0  0  0  0  0  0
   13.7890   10.4610    3.8190 O   0  0  0  0  0  0  0  0  0  0  0  0
   14.6950   13.0010    4.8180 C   0  0  0  0  0  0  0  0  0  0  0  0
   13.4880   12.9070    3.9930 N   0  0  0  0  0  0  0  0  0  0  0  0
   13.5240   13.6820    3.3300 H   0  0  0  0  0  0  0  0  0  0  0  0
    6.2470   10.3520    0.4820 C   0  0  0  0  0  0  0  0  0  0  0  0
    6.4210   10.8740   -0.9460 C   0  0  0  0  0  0  0  0  0  0  0  0
    7.7100   11.5600   -1.0610 N   0  0  0  0  0  0  0  0  0  0  0  0
    8.5350   11.1120   -0.7660 H   0  0  0  0  0  0  0  0  0  0  0  0
    7.7660   12.8070   -1.5700 C   0  0  0  0  0  0  0  0  0  0  0  0
    6.7480   13.3590   -1.9390 O   0  0  0  0  0  0  0  0  0  0  0  0
    9.0660   13.5030   -1.6800 C   0  0  0  0  0  0  0  0  0  0  0  0
   10.1080   12.9310   -2.4120 C   0  0  0  0  0  0  0  0  0  0  0  0
   11.3170   13.5850   -2.5160 C   0  0  0  0  0  0  0  0  0  0  0  0
   11.5060   14.8030   -1.8890 C   0  0  0  0  0  0  0  0  0  0  0  0
   10.4780   15.3780   -1.1550 C   0  0  0  0  0  0  0  0  0  0  0  0
    9.2570   14.7320   -1.0480 C   0  0  0  0  0  0  0  0  0  0  0  0
   10.6690   16.5750   -0.5410 O   0  0  0  0  0  0  0  0  0  0  0  0
    9.7900   16.8970    0.5390 C   0  0  0  0  0  0  0  0  0  0  0  0
  1  4  2  0  0  0  0
  1  7  1  0  0  0  0
  2  1  1  0  0  0  0
  3  2  1  0  0  0  0
  5 10  2  0  0  0  0
  6  7  2  0  0  0  0
  6  5  1  0  0  0  0
  7  8  1  0  0  0  0
  8 10  1  0  0  0  0
  8  9  1  0  0  0  0
 11  5  1  0  0  0  0
 11 13  2  0  0  0  0
 11 15  1  0  0  0  0
 12 11  2  0  0  0  0
 15 14  1  0  0  0  0
 16 15  1  0  0  0  0
 17  2  1  0  0  0  0
 18 17  1  0  0  0  0
 19 18  1  0  0  0  0
 19 20  1  0  0  0  0
 21 19  1  0  0  0  0
 22 21  2  0  0  0  0
 23 21  1  0  0  0  0
 23 28  2  0  0  0  0
 24 23  1  0  0  0  0
 25 24  2  0  0  0  0
 25 26  1  0  0  0  0
 26 27  2  0  0  0  0
 27 28  1  0  0  0  0
 27 29  1  0  0  0  0
 29 30  1  0  0  0  0
M  END
>  <MODEL>
1

>  <REMARK>
 VINA RESULT:      -6.4      0.000      0.000
  Name = ZINC26376724
                            x       y       z     vdW  Elec       q    Type
                         _______ _______ _______ _____ _____    ______ ____

>  <TORSDO>
F 8

>  <vina_score>
-6.4

$$$$
ZINC06928583
 OpenBabel01091701443D

 23 24  0  0  1  0  0  0  0  0999 V2000
   10.8840   11.4220    1.5860 C   0  0  2  0  0  0  0  0  0  0  0  0
   10.1240   11.6840    0.2750 C   0  0  1  0  0  0  0  0  0  0  0  0
    8.6990   11.6890    0.6070 N   0  0  0  0  0  0  0  0  0  0  0  0
    8.5000   11.4770    1.9140 C   0  0  0  0  0  0  0  0  0  0  0  0
    7.4100   11.4380    2.4450 O   0  0  0  0  0  0  0  0  0  0  0  0
    9.7940   11.2890    2.6290 C   0  0  0  0  0  0  0  0  0  0  0  0
    9.9440   11.0780    3.8080 O   0  0  0  0  0  0  0  0  0  0  0  0
   10.5260   13.0190   -0.2950 C   0  0  0  0  0  0  0  0  0  0  0  0
    9.9260   14.1770    0.1650 C   0  0  0  0  0  0  0  0  0  0  0  0
   10.2970   15.4020   -0.3550 C   0  0  0  0  0  0  0  0  0  0  0  0
   11.2630   15.4690   -1.3430 C   0  0  0  0  0  0  0  0  0  0  0  0
   11.8580   14.3120   -1.8080 C   0  0  0  0  0  0  0  0  0  0  0  0
   11.4900   13.0870   -1.2840 C   0  0  0  0  0  0  0  0  0  0  0  0
   12.9180   12.2050    3.3980 C   0  0  0  0  0  0  0  0  0  0  0  0
   11.9710   12.8200    1.9790 S   0  0  0  0  0  0  0  0  0  0  0  0
   11.1660   13.9070    2.4140 O   0  0  0  0  0  0  0  0  0  0  0  0
   12.8650   13.0130    0.8910 O   0  0  0  0  0  0  0  0  0  0  0  0
    7.6260   11.9070   -0.3660 C   0  0  0  0  0  0  0  0  0  0  0  0
    6.8470   10.6050   -0.5660 C   0  0  0  0  0  0  0  0  0  0  0  0
    5.5300   10.7280    0.0830 N   0  0  0  0  0  0  0  0  0  0  0  0
    5.5900   11.4020    0.8460 H   0  0  0  0  0  0  0  0  0  0  0  0
    4.8420   11.0460   -0.6000 H   0  0  0  0  0  0  0  0  0  0  0  0
    5.2480    9.8200    0.4530 H   0  0  0  0  0  0  0  0  0  0  0  0
  1 15  1  1  0  0  0
  1  6  1  0  0  0  0
  2  8  1  1  0  0  0
  2  3  1  0  0  0  0
  2  1  1  0  0  0  0
  3  4  1  0  0  0  0
  4  5  2  0  0  0  0
  4  6  1  0  0  0  0
  6  7  2  0  0  0  0
  8  9  1  0  0  0  0
 10  9  2  0  0  0  0
 11 10  1  0  0  0  0
 12 11  2  0  0  0  0
 12 13  1  0  0  0  0
 13  8  2  0  0  0  0
 15 16  2  0  0  0  0
 15 14  1  0  0  0  0
 17 15  2  0  0  0  0
 18  3  1  0  0  0  0
 19 18  1  0  0  0  0
 19 20  1  0  0  0  0
 20 23  1  0  0  0  0
 20 21  1  0  0  0  0
 22 20  1  0  0  0  0
M  END
>  <MODEL>
1

>  <REMARK>
 VINA RESULT:      -6.4      0.000      0.000
  Name = ZINC06928583
                            x       y       z     vdW  Elec       q    Type
                         _______ _______ _______ _____ _____    ______ ____

>  <TORSDO>
F 5

>  <vina_score>
-6.4

$$$$
ZINC04824070
 OpenBabel01091701283D

 25 25  0  0  1  0  0  0  0  0999 V2000
    8.0370   12.1720   -0.3520 C   0  0  0  0  0  0  0  0  0  0  0  0
    8.3780   13.5630   -0.6580 N   0  0  0  0  0  0  0  0  0  0  0  0
    7.7390   14.2830   -0.4510 H   0  0  0  0  0  0  0  0  0  0  0  0
   10.3800   14.9210   -0.7370 C   0  0  0  0  0  0  0  0  0  0  0  0
   11.6110   15.2140   -1.3330 C   0  0  0  0  0  0  0  0  0  0  0  0
   12.0500   14.4680   -2.4050 C   0  0  0  0  0  0  0  0  0  0  0  0
   11.2780   13.4280   -2.8970 C   0  0  0  0  0  0  0  0  0  0  0  0
   10.0640   13.1220   -2.3190 C   0  0  0  0  0  0  0  0  0  0  0  0
    9.6010   13.8660   -1.2400 C   0  0  0  0  0  0  0  0  0  0  0  0
    9.9040   15.7130    0.4090 C   0  0  0  0  0  0  0  0  0  0  0  0
    9.6980   16.9030    0.2810 O   0  0  0  0  0  0  0  0  0  0  0  0
    9.2700   15.9670    2.6980 C   0  0  0  0  0  0  0  0  0  0  0  0
    9.6950   15.1170    1.6000 O   0  0  0  0  0  0  0  0  0  0  0  0
    7.9530   11.9880    1.1650 C   0  0  2  0  0  0  0  0  0  0  0  0
    7.4600   13.1890    1.7640 O   0  0  0  0  0  0  0  0  0  0  0  0
    7.4610   13.9020    1.1060 H   0  0  0  0  0  0  0  0  0  0  0  0
    9.3440   11.6760    1.7190 C   0  0  2  0  0  0  0  0  0  0  0  0
   10.0620   10.8730    0.7790 O   0  0  0  0  0  0  0  0  0  0  0  0
   10.3280   10.0410    1.2010 H   0  0  0  0  0  0  0  0  0  0  0  0
    9.2090   10.9150    3.0400 C   0  0  2  0  0  0  0  0  0  0  0  0
    7.8500   10.5110    3.2190 O   0  0  0  0  0  0  0  0  0  0  0  0
    7.6800   10.3550    4.1610 H   0  0  0  0  0  0  0  0  0  0  0  0
    9.6280   11.8230    4.1970 C   0  0  0  0  0  0  0  0  0  0  0  0
    8.5740   12.7440    4.4850 O   0  0  0  0  0  0  0  0  0  0  0  0
    7.8420   12.6040    3.8640 H   0  0  0  0  0  0  0  0  0  0  0  0
  2  3  1  0  0  0  0
  2  1  1  0  0  0  0
  4 10  1  0  0  0  0
  5  4  2  0  0  0  0
  6  5  1  0  0  0  0
  7  6  2  0  0  0  0
  7  8  1  0  0  0  0
  8  9  2  0  0  0  0
  9  4  1  0  0  0  0
  9  2  1  0  0  0  0
 10 13  1  0  0  0  0
 11 10  2  0  0  0  0
 13 12  1  0  0  0  0
 14  1  1  6  0  0  0
 14 17  1  0  0  0  0
 14 15  1  0  0  0  0
 16 15  1  0  0  0  0
 17 18  1  6  0  0  0
 17 20  1  0  0  0  0
 18 19  1  0  0  0  0
 20 21  1  1  0  0  0
 20 23  1  0  0  0  0
 21 22  1  0  0  0  0
 23 24  1  0  0  0  0
 25 24  1  0  0  0  0
M  END
>  <MODEL>
1

>  <REMARK>
 VINA RESULT:      -6.4      0.000      0.000
  Name = ZINC04824070
                            x       y       z     vdW  Elec       q    Type
                         _______ _______ _______ _____ _____    ______ ____

>  <TORSDO>
F 12

>  <vina_score>
-6.4

$$$$
ZINC07104443
 OpenBabel01091701323D

 24 25  0  0  0  0  0  0  0  0999 V2000
   10.5100   10.4210    1.0340 C   0  0  0  0  0  0  0  0  0  0  0  0
    9.2090   11.0890    1.1060 N   0  0  0  0  0  0  0  0  0  0  0  0
    8.6340   11.8830    0.1530 C   0  0  0  0  0  0  0  0  0  0  0  0
    7.4800   12.2730    0.6180 N   0  0  0  0  0  0  0  0  0  0  0  0
    7.2870   11.7810    1.7890 N   0  0  0  0  0  0  0  0  0  0  0  0
    8.3180   11.0500    2.1410 C   0  0  0  0  0  0  0  0  0  0  0  0
    9.2230   12.2390   -1.1880 C   0  0  0  0  0  0  0  0  0  0  0  0
    8.2920   13.2130   -1.9120 C   0  0  0  0  0  0  0  0  0  0  0  0
    8.9130   13.6180   -3.2240 C   0  0  0  0  0  0  0  0  0  0  0  0
    9.0220   14.9230   -3.5430 N   0  0  0  0  0  0  0  0  0  0  0  0
    9.4280   15.1880   -4.4000 H   0  0  0  0  0  0  0  0  0  0  0  0
    8.6970   15.6120   -2.9200 H   0  0  0  0  0  0  0  0  0  0  0  0
    9.3140   12.7700   -3.9930 O   0  0  0  0  0  0  0  0  0  0  0  0
    8.5140   10.1770    3.6600 S   0  0  0  0  0  0  0  0  0  0  0  0
    9.8600   11.1340    4.4000 C   0  0  0  0  0  0  0  0  0  0  0  0
    9.6680   12.6170    4.0780 C   0  0  0  0  0  0  0  0  0  0  0  0
   10.8920   13.1600    3.5810 O   0  0  0  0  0  0  0  0  0  0  0  0
   10.8340   13.8460    2.4090 C   0  0  0  0  0  0  0  0  0  0  0  0
    9.8000   14.7420    2.1800 C   0  0  0  0  0  0  0  0  0  0  0  0
    9.7380   15.4330    0.9850 C   0  0  0  0  0  0  0  0  0  0  0  0
   10.7060   15.2330    0.0180 C   0  0  0  0  0  0  0  0  0  0  0  0
   11.7380   14.3410    0.2420 C   0  0  0  0  0  0  0  0  0  0  0  0
   11.8050   13.6460    1.4360 C   0  0  0  0  0  0  0  0  0  0  0  0
   12.8120   12.7740    1.6560 F   0  0  0  0  0  0  0  0  0  0  0  0
  1  2  1  0  0  0  0
  2  6  1  0  0  0  0
  3  4  2  0  0  0  0
  3  2  1  0  0  0  0
  4  5  1  0  0  0  0
  5  6  2  0  0  0  0
  6 14  1  0  0  0  0
  7  3  1  0  0  0  0
  8  7  1  0  0  0  0
  9  8  1  0  0  0  0
 10  9  1  0  0  0  0
 10 12  1  0  0  0  0
 11 10  1  0  0  0  0
 13  9  2  0  0  0  0
 14 15  1  0  0  0  0
 16 15  1  0  0  0  0
 17 16  1  0  0  0  0
 18 17  1  0  0  0  0
 19 18  1  0  0  0  0
 20 19  2  0  0  0  0
 21 22  2  0  0  0  0
 21 20  1  0  0  0  0
 22 23  1  0  0  0  0
 23 24  1  0  0  0  0
 23 18  2  0  0  0  0
M  END
>  <MODEL>
1

>  <REMARK>
 VINA RESULT:      -6.4      0.000      0.000
  Name = ZINC07104443
                            x       y       z     vdW  Elec       q    Type
                         _______ _______ _______ _____ _____    ______ ____

>  <TORSDO>
F 8

>  <vina_score>
-6.4

$$$$
ZINC19848534
 OpenBabel01091701233D

 29 31  0  0  0  0  0  0  0  0999 V2000
    7.4880   11.3710   -0.0020 C   0  0  0  0  0  0  0  0  0  0  0  0
    7.9290   12.5220   -0.5470 N   0  0  0  0  0  0  0  0  0  0  0  0
    8.6710   13.0120   -0.1270 H   0  0  0  0  0  0  0  0  0  0  0  0
    6.5720   10.7660   -0.5190 O   0  0  0  0  0  0  0  0  0  0  0  0
    9.4650   10.6750    1.2910 N   0  0  0  0  0  0  0  0  0  0  0  0
   10.0210   10.9090    0.5130 H   0  0  0  0  0  0  0  0  0  0  0  0
    8.1290   10.8380    1.2390 C   0  0  0  0  0  0  0  0  0  0  0  0
    7.4450   10.5520    2.1990 O   0  0  0  0  0  0  0  0  0  0  0  0
   10.0930   10.1530    2.5080 C   0  0  0  0  0  0  0  0  0  0  0  0
   11.2220   12.3850    2.5520 C   0  0  0  0  0  0  0  0  0  0  0  0
   12.2650   13.2130    2.9230 C   0  0  0  0  0  0  0  0  0  0  0  0
   13.3300   12.7050    3.6480 C   0  0  0  0  0  0  0  0  0  0  0  0
   13.3460   11.3580    4.0020 C   0  0  0  0  0  0  0  0  0  0  0  0
   14.4890   11.1070    4.7050 O   0  0  0  0  0  0  0  0  0  0  0  0
   14.9730   12.3950    5.1280 C   0  0  0  0  0  0  0  0  0  0  0  0
   12.2980   10.5340    3.6290 C   0  0  0  0  0  0  0  0  0  0  0  0
   14.4630   13.2960    4.1280 O   0  0  0  0  0  0  0  0  0  0  0  0
   11.2350   11.0500    2.9090 C   0  0  0  0  0  0  0  0  0  0  0  0
    7.3010   13.0430   -1.7640 C   0  0  0  0  0  0  0  0  0  0  0  0
    8.1730   14.1550   -2.3500 C   0  0  0  0  0  0  0  0  0  0  0  0
    9.4970   14.1250   -1.7140 N   0  0  0  0  0  0  0  0  0  0  0  0
    9.5260   13.3210   -1.0870 H   0  0  0  0  0  0  0  0  0  0  0  0
   10.5590   13.9560   -2.7160 C   0  0  0  0  0  0  0  0  0  0  0  0
   11.9130   13.8520   -2.0090 C   0  0  0  0  0  0  0  0  0  0  0  0
   12.1380   15.0610   -1.2050 N   0  0  0  0  0  0  0  0  0  0  0  0
   13.0310   14.9700   -0.7210 H   0  0  0  0  0  0  0  0  0  0  0  0
   12.1480   15.8740   -1.8210 H   0  0  0  0  0  0  0  0  0  0  0  0
   11.0760   15.2300   -0.2040 C   0  0  0  0  0  0  0  0  0  0  0  0
    9.7230   15.3350   -0.9100 C   0  0  0  0  0  0  0  0  0  0  0  0
  1  7  1  0  0  0  0
  2  3  1  0  0  0  0
  2  1  1  0  0  0  0
  4  1  2  0  0  0  0
  5  9  1  0  0  0  0
  6  5  1  0  0  0  0
  7  5  1  0  0  0  0
  7  8  2  0  0  0  0
  9 18  1  0  0  0  0
 10 18  2  0  0  0  0
 10 11  1  0  0  0  0
 11 12  2  0  0  0  0
 12 13  1  0  0  0  0
 12 17  1  0  0  0  0
 13 14  1  0  0  0  0
 14 15  1  0  0  0  0
 16 13  2  0  0  0  0
 17 15  1  0  0  0  0
 18 16  1  0  0  0  0
 19  2  1  0  0  0  0
 20 19  1  0  0  0  0
 20 21  1  0  0  0  0
 21 22  1  0  0  0  0
 21 29  1  0  0  0  0
 23 24  1  0  0  0  0
 23 21  1  0  0  0  0
 24 25  1  0  0  0  0
 25 26  1  0  0  0  0
 25 28  1  0  0  0  0
 27 25  1  0  0  0  0
 29 28  1  0  0  0  0
M  END
>  <MODEL>
1

>  <REMARK>
 VINA RESULT:      -6.3      0.000      0.000
  Name = ZINC19848534
                            x       y       z     vdW  Elec       q    Type
                         _______ _______ _______ _____ _____    ______ ____

>  <TORSDO>
F 6

>  <vina_score>
-6.3

$$$$
ZINC20836503
 OpenBabel01091701443D

 28 29  0  0  0  0  0  0  0  0999 V2000
   10.2830   14.7220    1.6530 C   0  0  0  0  0  0  0  0  0  0  0  0
   11.3360   13.8500    1.6180 N   0  0  0  0  0  0  0  0  0  0  0  0
   11.4100   13.2290    2.8320 C   0  0  0  0  0  0  0  0  0  0  0  0
   10.4440   13.6970    3.5870 N   0  0  0  0  0  0  0  0  0  0  0  0
    9.7340   14.6460    2.8400 N   0  0  0  0  0  0  0  0  0  0  0  0
    8.9570   15.1640    3.1540 H   0  0  0  0  0  0  0  0  0  0  0  0
    9.8720   15.5460    0.6150 N   0  0  0  0  0  0  0  0  0  0  0  0
   10.1350   16.4950    0.6070 H   0  0  0  0  0  0  0  0  0  0  0  0
   10.8090   13.2120   -3.6310 C   0  0  0  0  0  0  0  0  0  0  0  0
    9.3280   13.0210   -3.2980 C   0  0  0  0  0  0  0  0  0  0  0  0
    8.7620   14.3240   -2.7270 C   0  0  0  0  0  0  0  0  0  0  0  0
    9.6160   14.7450   -1.5500 C   0  0  0  0  0  0  0  0  0  0  0  0
   11.1140   14.8270   -1.7440 C   0  0  0  0  0  0  0  0  0  0  0  0
    9.0830   15.0290   -0.4210 N   0  0  0  0  0  0  0  0  0  0  0  0
   11.5950   13.4990   -2.3510 C   0  0  0  0  0  0  0  0  0  0  0  0
   12.5970   12.0150    3.3040 S   0  0  0  0  0  0  0  0  0  0  0  0
   11.5950   10.5560    3.7080 C   0  0  0  0  0  0  0  0  0  0  0  0
   10.4160   10.4810    2.7720 C   0  0  0  0  0  0  0  0  0  0  0  0
    9.1800   10.7770    3.2210 N   0  0  0  0  0  0  0  0  0  0  0  0
    9.0470   11.0420    4.1590 H   0  0  0  0  0  0  0  0  0  0  0  0
   10.5800   10.1530    1.6170 O   0  0  0  0  0  0  0  0  0  0  0  0
    8.0840   10.7060    2.3510 N   0  0  0  0  0  0  0  0  0  0  0  0
    7.7970   11.7450    1.5430 C   0  0  0  0  0  0  0  0  0  0  0  0
    7.4610   12.8090    2.0180 O   0  0  0  0  0  0  0  0  0  0  0  0
    7.8930   11.5850    0.0470 C   0  0  0  0  0  0  0  0  0  0  0  0
    7.4080   10.3250   -0.3200 F   0  0  0  0  0  0  0  0  0  0  0  0
    9.2290   11.7040   -0.3500 F   0  0  0  0  0  0  0  0  0  0  0  0
    7.1310   12.5790   -0.5780 F   0  0  0  0  0  0  0  0  0  0  0  0
  1  5  1  0  0  0  0
  2  1  2  0  0  0  0
  2  3  1  0  0  0  0
  3 16  1  0  0  0  0
  3  4  2  0  0  0  0
  5  6  1  0  0  0  0
  5  4  1  0  0  0  0
  7  1  1  0  0  0  0
  8  7  1  0  0  0  0
  9 10  1  0  0  0  0
  9 15  1  0  0  0  0
 10 11  1  0  0  0  0
 11 12  1  0  0  0  0
 12 14  2  0  0  0  0
 13 12  1  0  0  0  0
 14  7  1  0  0  0  0
 15 13  1  0  0  0  0
 16 17  1  0  0  0  0
 18 19  1  0  0  0  0
 18 17  1  0  0  0  0
 19 20  1  0  0  0  0
 21 18  2  0  0  0  0
 22 19  1  0  0  0  0
 23 24  2  0  0  0  0
 23 22  1  0  0  0  0
 25 23  1  0  0  0  0
 26 25  1  0  0  0  0
 27 25  1  0  0  0  0
 28 25  1  0  0  0  0
M  END
>  <MODEL>
1

>  <REMARK>
 VINA RESULT:      -6.3      0.000      0.000
  Name = ZINC20836503
                            x       y       z     vdW  Elec       q    Type
                         _______ _______ _______ _____ _____    ______ ____

>  <TORSDO>
F 8

>  <vina_score>
-6.3

$$$$
ZINC10315609
 OpenBabel01091701183D

 26 27  0  0  0  0  0  0  0  0999 V2000
    7.8500   13.1670   -0.2010 N   0  0  0  0  0  0  0  0  0  0  0  0
    8.6370   13.0880    0.4440 H   0  0  0  0  0  0  0  0  0  0  0  0
    7.0320   13.5300    0.2900 H   0  0  0  0  0  0  0  0  0  0  0  0
    8.2150   14.0950   -1.2900 C   0  0  0  0  0  0  0  0  0  0  0  0
   11.7180   13.4620   -2.5480 C   0  0  0  0  0  0  0  0  0  0  0  0
   12.4780   14.2090   -1.6650 C   0  0  0  0  0  0  0  0  0  0  0  0
   11.8660   14.9230   -0.6570 C   0  0  0  0  0  0  0  0  0  0  0  0
   10.4760   14.8910   -0.5280 C   0  0  0  0  0  0  0  0  0  0  0  0
    9.7150   14.1360   -1.4220 C   0  0  0  0  0  0  0  0  0  0  0  0
   10.3410   13.4210   -2.4220 C   0  0  0  0  0  0  0  0  0  0  0  0
    9.8130   15.6530    0.5510 C   0  0  0  0  0  0  0  0  0  0  0  0
    9.4760   15.0380    1.7010 O   0  0  0  0  0  0  0  0  0  0  0  0
    9.5710   16.8340    0.4000 O   0  0  0  0  0  0  0  0  0  0  0  0
    7.5390   11.8340   -0.7470 C   0  0  0  0  0  0  0  0  0  0  0  0
    7.3490   10.8500    0.4100 C   0  0  0  0  0  0  0  0  0  0  0  0
    8.6340   10.2330    0.7430 N   0  0  0  0  0  0  0  0  0  0  0  0
    8.8220    9.3060    0.4660 H   0  0  0  0  0  0  0  0  0  0  0  0
    9.5940   10.9570    1.4530 C   0  0  0  0  0  0  0  0  0  0  0  0
    9.3570   11.3210    2.7730 C   0  0  0  0  0  0  0  0  0  0  0  0
   10.3090   12.0370    3.4720 C   0  0  0  0  0  0  0  0  0  0  0  0
   11.4970   12.3930    2.8580 C   0  0  0  0  0  0  0  0  0  0  0  0
   11.7360   12.0320    1.5450 C   0  0  0  0  0  0  0  0  0  0  0  0
   10.7890   11.3160    0.8410 C   0  0  0  0  0  0  0  0  0  0  0  0
   12.5150   13.1610    3.6100 N   0  0  0  0  0  0  0  0  0  0  0  0
   12.2360   13.6450    4.6920 O   0  0  0  0  0  0  0  0  0  0  0  0
   13.6320   13.3090    3.1470 O   0  0  0  0  0  0  0  0  0  0  0  0
  1  3  1  0  0  0  0
  1  2  1  0  0  0  0
  4  1  1  0  0  0  0
  5 10  2  0  0  0  0
  5  6  1  0  0  0  0
  6  7  2  0  0  0  0
  7  8  1  0  0  0  0
  8 11  1  0  0  0  0
  9  4  1  0  0  0  0
  9  8  2  0  0  0  0
 10  9  1  0  0  0  0
 11 12  1  0  0  0  0
 13 11  2  0  0  0  0
 14  1  1  0  0  0  0
 14 15  1  0  0  0  0
 15 16  1  0  0  0  0
 16 18  1  0  0  0  0
 17 16  1  0  0  0  0
 18 19  1  0  0  0  0
 19 20  2  0  0  0  0
 21 20  1  0  0  0  0
 21 24  1  0  0  0  0
 22 21  2  0  0  0  0
 23 18  2  0  0  0  0
 23 22  1  0  0  0  0
 24 25  2  0  0  0  0
 26 24  2  0  0  0  0
M  END
>  <MODEL>
1

>  <REMARK>
 VINA RESULT:      -6.3      0.000      0.000
  Name = ZINC10315609
                            x       y       z     vdW  Elec       q    Type
                         _______ _______ _______ _____ _____    ______ ____

>  <TORSDO>
F 8

>  <vina_score>
-6.3

$$$$
ZINC21981401
 OpenBabel01091701483D

 29 30  0  0  1  0  0  0  0  0999 V2000
    9.6980   15.4600    1.0540 C   0  0  0  0  0  0  0  0  0  0  0  0
   10.1260   14.9270   -0.2410 N   0  0  0  0  0  0  0  0  0  0  0  0
   11.1380   15.3870   -1.0800 C   0  0  0  0  0  0  0  0  0  0  0  0
   10.9110   15.1030   -2.3390 N   0  0  0  0  0  0  0  0  0  0  0  0
    9.6350   14.4200   -2.4010 C   0  0  1  0  0  0  0  0  0  0  0  0
    9.4190   13.2820   -3.3410 C   0  0  0  0  0  0  0  0  0  0  0  0
   10.0420   13.1490   -4.3720 O   0  0  0  0  0  0  0  0  0  0  0  0
    8.4510   12.4020   -2.9340 N   0  0  0  0  0  0  0  0  0  0  0  0
    8.2800   11.5830   -3.4520 H   0  0  0  0  0  0  0  0  0  0  0  0
    7.7120   12.6670   -1.7910 C   0  0  0  0  0  0  0  0  0  0  0  0
    8.2360   13.3390   -0.7820 N   0  0  0  0  0  0  0  0  0  0  0  0
    9.6030   13.7760   -0.9700 C   0  0  2  0  0  0  0  0  0  0  0  0
    6.4140   12.2260   -1.7070 N   0  0  0  0  0  0  0  0  0  0  0  0
    5.7650   12.7100   -1.1450 H   0  0  0  0  0  0  0  0  0  0  0  0
    6.1320   11.4270   -2.2080 H   0  0  0  0  0  0  0  0  0  0  0  0
    9.9980   14.5140    2.0820 O   0  0  0  0  0  0  0  0  0  0  0  0
    8.8580   14.0870    2.8300 C   0  0  0  0  0  0  0  0  0  0  0  0
    8.6350   12.5900    2.6110 C   0  0  0  0  0  0  0  0  0  0  0  0
    9.8310   11.8610    2.9950 O   0  0  0  0  0  0  0  0  0  0  0  0
   10.6020   11.3910    2.0020 C   0  0  0  0  0  0  0  0  0  0  0  0
   10.1040   10.7780    1.0880 O   0  0  0  0  0  0  0  0  0  0  0  0
   12.0910   11.6270    2.0290 C   0  0  1  0  0  0  0  0  0  0  0  0
   12.3980   12.8920    1.3490 N   0  0  0  0  0  0  0  0  0  0  0  0
   12.0280   12.8670    0.3990 H   0  0  0  0  0  0  0  0  0  0  0  0
   11.9700   13.6650    1.8600 H   0  0  0  0  0  0  0  0  0  0  0  0
   13.4090   13.0250    1.3180 H   0  0  0  0  0  0  0  0  0  0  0  0
   13.4430   10.4820    3.7900 C   0  0  0  0  0  0  0  0  0  0  0  0
   12.5700   11.6980    3.4800 C   0  0  0  0  0  0  0  0  0  0  0  0
   13.3850   12.9770    3.6860 C   0  0  0  0  0  0  0  0  0  0  0  0
  1 16  1  0  0  0  0
  2  1  1  0  0  0  0
  3  2  1  0  0  0  0
  4  3  1  0  0  0  0
  5  6  1  6  0  0  0
  5  4  1  0  0  0  0
  5 12  1  0  0  0  0
  6  8  1  0  0  0  0
  7  6  2  0  0  0  0
  8 10  1  0  0  0  0
  9  8  1  0  0  0  0
 10 13  1  0  0  0  0
 10 11  2  0  0  0  0
 12 11  1  1  0  0  0
 12  2  1  0  0  0  0
 13 14  1  0  0  0  0
 15 13  1  0  0  0  0
 16 17  1  0  0  0  0
 18 17  1  0  0  0  0
 18 19  1  0  0  0  0
 20 22  1  0  0  0  0
 20 19  1  0  0  0  0
 21 20  2  0  0  0  0
 22 23  1  1  0  0  0
 22 28  1  0  0  0  0
 23 25  1  0  0  0  0
 24 23  1  0  0  0  0
 26 23  1  0  0  0  0
 28 29  1  0  0  0  0
 28 27  1  0  0  0  0
M  END
>  <MODEL>
1

>  <REMARK>
 VINA RESULT:      -6.3      0.000      0.000
  Name = ZINC21981401
                            x       y       z     vdW  Elec       q    Type
                         _______ _______ _______ _____ _____    ______ ____

>  <TORSDO>
F 10

>  <vina_score>
-6.3

$$$$
ZINC31819625
 OpenBabel01091701503D

 26 27  0  0  1  0  0  0  0  0999 V2000
   12.2270   12.3920    1.3380 S   0  0  0  0  0  0  0  0  0  0  0  0
   11.6270   13.3940    0.0180 C   0  0  0  0  0  0  0  0  0  0  0  0
   11.0780   14.5680    0.2970 N   0  0  0  0  0  0  0  0  0  0  0  0
   11.0080   14.8620    1.2340 H   0  0  0  0  0  0  0  0  0  0  0  0
   10.6180   15.3530   -0.6740 C   0  0  1  0  0  0  0  0  0  0  0  0
   10.7100   14.9220   -1.9950 C   0  0  0  0  0  0  0  0  0  0  0  0
   11.2890   13.6820   -2.2480 C   0  0  0  0  0  0  0  0  0  0  0  0
   11.7320   12.9530   -1.2270 N   0  0  0  0  0  0  0  0  0  0  0  0
   10.0500   16.5820   -0.3750 N   0  0  0  0  0  0  0  0  0  0  0  0
   10.6260   17.3690   -0.2380 H   0  0  0  0  0  0  0  0  0  0  0  0
    9.0730   16.6670   -0.2980 H   0  0  0  0  0  0  0  0  0  0  0  0
   11.4030   13.2120   -3.5480 N   0  0  0  0  0  0  0  0  0  0  0  0
   10.6050   12.8920   -4.0270 H   0  0  0  0  0  0  0  0  0  0  0  0
   12.2820   13.2000   -3.9910 H   0  0  0  0  0  0  0  0  0  0  0  0
   11.5860   13.3210    2.7540 C   0  0  0  0  0  0  0  0  0  0  0  0
   10.3660   12.6250    3.2990 C   0  0  0  0  0  0  0  0  0  0  0  0
   10.4880   11.6300    3.9720 O   0  0  0  0  0  0  0  0  0  0  0  0
    8.9920   13.1700    3.0040 C   0  0  2  0  0  0  0  0  0  0  0  0
    7.6870   12.7530   -1.8080 C   0  0  0  0  0  0  0  0  0  0  0  0
    7.8060   12.2120   -0.4070 C   0  0  0  0  0  0  0  0  0  0  0  0
    7.3800   10.9590   -0.1060 C   0  0  0  0  0  0  0  0  0  0  0  0
    7.7650   10.8900    1.6380 S   0  0  0  0  0  0  0  0  0  0  0  0
    8.4320   12.4860    1.7830 C   0  0  0  0  0  0  0  0  0  0  0  0
    8.3180   12.9470    0.5590 N   0  0  0  0  0  0  0  0  0  0  0  0
    9.0820   14.6180    2.7570 C   0  0  0  0  0  0  0  0  0  0  0  0
    9.1510   15.7350    2.5670 N   0  0  0  0  0  0  0  0  0  0  0  0
  1 15  1  0  0  0  0
  2  3  1  0  0  0  0
  2  1  1  0  0  0  0
  3  4  1  0  0  0  0
  5  9  1  1  0  0  0
  5  3  1  0  0  0  0
  6  5  1  0  0  0  0
  7  6  2  0  0  0  0
  7  8  1  0  0  0  0
  8  2  2  0  0  0  0
  9 11  1  0  0  0  0
  9 10  1  0  0  0  0
 12  7  1  0  0  0  0
 13 12  1  0  0  0  0
 14 12  1  0  0  0  0
 15 16  1  0  0  0  0
 16 17  2  0  0  0  0
 18 23  1  6  0  0  0
 18 16  1  0  0  0  0
 19 20  1  0  0  0  0
 20 21  2  0  0  0  0
 20 24  1  0  0  0  0
 21 22  1  0  0  0  0
 22 23  1  0  0  0  0
 24 23  2  0  0  0  0
 25 18  1  0  0  0  0
 26 25  3  0  0  0  0
M  END
>  <MODEL>
1

>  <REMARK>
 VINA RESULT:      -6.3      0.000      0.000
  Name = ZINC31819625
                            x       y       z     vdW  Elec       q    Type
                         _______ _______ _______ _____ _____    ______ ____

>  <TORSDO>
F 8

>  <vina_score>
-6.3

$$$$
ZINC05734855
 OpenBabel01091701253D

 27 28  0  0  1  0  0  0  0  0999 V2000
   10.0150   13.2340   -1.9070 N   0  0  0  0  0  0  0  0  0  0  0  0
   10.0020   12.4240   -0.8080 C   0  0  0  0  0  0  0  0  0  0  0  0
   11.1370   12.1820   -0.1250 O   0  0  0  0  0  0  0  0  0  0  0  0
    8.7950   11.8520   -0.4020 C   0  0  1  0  0  0  0  0  0  0  0  0
    7.5940   12.1470   -1.1880 C   0  0  0  0  0  0  0  0  0  0  0  0
    7.7040   12.9640   -2.2570 N   0  0  0  0  0  0  0  0  0  0  0  0
    6.9050   13.1790   -2.7900 H   0  0  0  0  0  0  0  0  0  0  0  0
    6.5170   11.6700   -0.8800 O   0  0  0  0  0  0  0  0  0  0  0  0
    8.8920   13.4860   -2.6010 C   0  0  0  0  0  0  0  0  0  0  0  0
    8.9560   14.2130   -3.5730 O   0  0  0  0  0  0  0  0  0  0  0  0
    8.7330   10.9760    0.7730 C   0  0  0  0  0  0  0  0  0  0  0  0
    8.4440   11.4720    1.9380 N   0  0  0  0  0  0  0  0  0  0  0  0
    8.3820   10.5990    3.1120 C   0  0  0  0  0  0  0  0  0  0  0  0
    9.1950   11.2160    4.2510 C   0  0  0  0  0  0  0  0  0  0  0  0
   10.5580   10.5260    4.3360 C   0  0  0  0  0  0  0  0  0  0  0  0
   11.5490   11.3080    3.5940 N   0  0  0  0  0  0  0  0  0  0  0  0
   11.7340   12.6320    3.7030 C   0  0  0  0  0  0  0  0  0  0  0  0
   12.7290   12.9850    2.8680 C   0  0  0  0  0  0  0  0  0  0  0  0
   13.1470   11.8400    2.2440 N   0  0  0  0  0  0  0  0  0  0  0  0
   13.8620   11.7690    1.5710 H   0  0  0  0  0  0  0  0  0  0  0  0
   12.3950   10.8260    2.7250 C   0  0  0  0  0  0  0  0  0  0  0  0
   11.2780   13.8380   -2.3390 C   0  0  0  0  0  0  0  0  0  0  0  0
   11.2760   15.3280   -1.9900 C   0  0  0  0  0  0  0  0  0  0  0  0
   11.1860   15.4950   -0.4720 C   0  0  0  0  0  0  0  0  0  0  0  0
    9.8630   16.1750   -0.1110 C   0  0  0  0  0  0  0  0  0  0  0  0
    9.4840   14.9090    2.0100 C   0  0  0  0  0  0  0  0  0  0  0  0
    9.7490   16.2920    1.4100 C   0  0  0  0  0  0  0  0  0  0  0  0
  1  2  1  0  0  0  0
  2  4  1  0  0  0  0
  2  3  2  0  0  0  0
  4 11  1  6  0  0  0
  5  8  2  0  0  0  0
  5  4  1  0  0  0  0
  6  5  1  0  0  0  0
  7  6  1  0  0  0  0
  9  6  1  0  0  0  0
  9  1  1  0  0  0  0
 10  9  2  0  0  0  0
 11 12  2  0  0  0  0
 12 13  1  0  0  0  0
 13 14  1  0  0  0  0
 14 15  1  0  0  0  0
 16 17  1  0  0  0  0
 16 15  1  0  0  0  0
 18 17  2  0  0  0  0
 19 21  1  0  0  0  0
 19 18  1  0  0  0  0
 20 19  1  0  0  0  0
 21 16  1  0  0  0  0
 22 23  1  0  0  0  0
 22  1  1  0  0  0  0
 23 24  1  0  0  0  0
 24 25  1  0  0  0  0
 25 27  1  0  0  0  0
 27 26  1  0  0  0  0
M  END
>  <MODEL>
1

>  <REMARK>
 VINA RESULT:      -6.3      0.000      0.000
  Name = ZINC05734855
                            x       y       z     vdW  Elec       q    Type
                         _______ _______ _______ _____ _____    ______ ____

>  <TORSDO>
F 10

>  <vina_score>
-6.3

$$$$
ZINC29587161
 OpenBabel01091701253D

 25 26  0  0  1  0  0  0  0  0999 V2000
   13.6460   11.0930    3.9510 C   0  0  0  0  0  0  0  0  0  0  0  0
   12.8270   12.0050    3.0750 C   0  0  0  0  0  0  0  0  0  0  0  0
   11.7250   12.6690    3.6070 C   0  0  0  0  0  0  0  0  0  0  0  0
   10.9840   13.5010    2.7890 C   0  0  0  0  0  0  0  0  0  0  0  0
   11.3570   13.6390    1.4830 N   0  0  0  0  0  0  0  0  0  0  0  0
   12.4500   12.9700    1.0060 C   0  0  0  0  0  0  0  0  0  0  0  0
   12.5780   13.2930   -0.2750 N   0  0  0  0  0  0  0  0  0  0  0  0
   11.6080   14.1280   -0.6270 C   0  0  0  0  0  0  0  0  0  0  0  0
   10.8430   14.3760    0.4090 N   0  0  0  0  0  0  0  0  0  0  0  0
   13.1570   12.1680    1.8100 N   0  0  0  0  0  0  0  0  0  0  0  0
   11.4210   14.7130   -2.0030 C   0  0  0  0  0  0  0  0  0  0  0  0
   10.0570   14.8810   -2.2580 F   0  0  0  0  0  0  0  0  0  0  0  0
   11.9710   13.8500   -2.9560 F   0  0  0  0  0  0  0  0  0  0  0  0
   12.0640   15.9550   -2.0740 F   0  0  0  0  0  0  0  0  0  0  0  0
    9.8880   14.1740    3.2810 N   0  0  0  0  0  0  0  0  0  0  0  0
   10.0110   15.0040    3.7970 H   0  0  0  0  0  0  0  0  0  0  0  0
    8.5400   13.6560    3.0370 C   0  0  0  0  0  0  0  0  0  0  0  0
    8.6130   12.1510    2.7690 C   0  0  1  0  0  0  0  0  0  0  0  0
    8.3460   11.4380    3.9780 O   0  0  0  0  0  0  0  0  0  0  0  0
    9.1160   10.8970    4.2110 H   0  0  0  0  0  0  0  0  0  0  0  0
    7.5740   11.7690    1.7130 C   0  0  0  0  0  0  0  0  0  0  0  0
    8.2510   11.1670    0.5560 N   0  0  0  0  0  0  0  0  0  0  0  0
    7.7160   10.3460    0.2730 H   0  0  0  0  0  0  0  0  0  0  0  0
    9.6050   10.7240    0.9100 C   0  0  0  0  0  0  0  0  0  0  0  0
    8.2810   12.0990   -0.5800 C   0  0  0  0  0  0  0  0  0  0  0  0
  2  3  1  0  0  0  0
  2  1  1  0  0  0  0
  4 15  1  0  0  0  0
  4  3  2  0  0  0  0
  5  4  1  0  0  0  0
  6  5  1  0  0  0  0
  6 10  1  0  0  0  0
  7  6  2  0  0  0  0
  8  7  1  0  0  0  0
  8  9  2  0  0  0  0
  9  5  1  0  0  0  0
 10  2  2  0  0  0  0
 11  8  1  0  0  0  0
 12 11  1  0  0  0  0
 13 11  1  0  0  0  0
 14 11  1  0  0  0  0
 15 16  1  0  0  0  0
 17 15  1  0  0  0  0
 18 21  1  6  0  0  0
 18 17  1  0  0  0  0
 18 19  1  0  0  0  0
 19 20  1  0  0  0  0
 22 24  1  0  0  0  0
 22 21  1  0  0  0  0
 23 22  1  0  0  0  0
 25 22  1  0  0  0  0
M  END
>  <MODEL>
1

>  <REMARK>
 VINA RESULT:      -6.3      0.000      0.000
  Name = ZINC29587161
                            x       y       z     vdW  Elec       q    Type
                         _______ _______ _______ _____ _____    ______ ____

>  <TORSDO>
F 7

>  <vina_score>
-6.3

$$$$
ZINC31384614
 OpenBabel01091701263D

 26 26  0  0  1  0  0  0  0  0999 V2000
    9.3250   12.5540    0.9280 N   0  0  0  0  0  0  0  0  0  0  0  0
   10.2860   12.5520    1.1450 H   0  0  0  0  0  0  0  0  0  0  0  0
    8.4120   12.6840    1.9110 C   0  0  0  0  0  0  0  0  0  0  0  0
    7.2300   12.6880    1.6430 O   0  0  0  0  0  0  0  0  0  0  0  0
    8.8880   12.4190   -0.4640 C   0  0  0  0  0  0  0  0  0  0  0  0
    9.8300   13.2120   -1.3730 C   0  0  1  0  0  0  0  0  0  0  0  0
    9.0070   14.0230   -2.3770 C   0  0  0  0  0  0  0  0  0  0  0  0
    7.5190   13.8740   -2.0540 C   0  0  0  0  0  0  0  0  0  0  0  0
    9.2770   13.5050   -3.7920 C   0  0  0  0  0  0  0  0  0  0  0  0
   10.6440   14.1240   -0.5580 N   0  0  0  0  0  0  0  0  0  0  0  0
   10.4470   13.9290    0.4230 H   0  0  0  0  0  0  0  0  0  0  0  0
   12.6950   15.1320   -1.4390 C   0  0  0  0  0  0  0  0  0  0  0  0
   12.0770   13.8950   -0.7840 C   0  0  0  0  0  0  0  0  0  0  0  0
   10.2870   15.5250   -0.8200 C   0  0  0  0  0  0  0  0  0  0  0  0
    9.7310   16.1580    0.4570 C   0  0  0  0  0  0  0  0  0  0  0  0
    8.8610   12.8230    3.3430 C   0  0  0  0  0  0  0  0  0  0  0  0
   10.1880   12.1320    3.5230 C   0  0  0  0  0  0  0  0  0  0  0  0
   10.2520   10.8730    4.0370 C   0  0  0  0  0  0  0  0  0  0  0  0
    8.9880   10.1530    4.4320 C   0  0  0  0  0  0  0  0  0  0  0  0
   11.4370   10.2760    4.1880 N   0  0  0  0  0  0  0  0  0  0  0  0
   12.5500   10.8720    3.8550 C   0  0  0  0  0  0  0  0  0  0  0  0
   13.8600   10.1540    4.0540 C   0  0  0  0  0  0  0  0  0  0  0  0
   12.5540   12.1190    3.3420 N   0  0  0  0  0  0  0  0  0  0  0  0
   13.4060   12.5480    3.0980 H   0  0  0  0  0  0  0  0  0  0  0  0
   11.3890   12.7770    3.1630 C   0  0  0  0  0  0  0  0  0  0  0  0
   11.3760   13.9050    2.6990 O   0  0  0  0  0  0  0  0  0  0  0  0
  1  2  1  0  0  0  0
  1  3  1  0  0  0  0
  3 16  1  0  0  0  0
  4  3  2  0  0  0  0
  5  1  1  0  0  0  0
  6  7  1  6  0  0  0
  6 10  1  0  0  0  0
  6  5  1  0  0  0  0
  7  8  1  0  0  0  0
  9  7  1  0  0  0  0
 10 11  1  0  0  0  0
 12 13  1  0  0  0  0
 13 10  1  0  0  0  0
 14 10  1  0  0  0  0
 14 15  1  0  0  0  0
 16 17  1  0  0  0  0
 17 18  2  0  0  0  0
 18 20  1  0  0  0  0
 18 19  1  0  0  0  0
 21 22  1  0  0  0  0
 21 20  2  0  0  0  0
 23 21  1  0  0  0  0
 24 23  1  0  0  0  0
 25 23  1  0  0  0  0
 25 17  1  0  0  0  0
 26 25  2  0  0  0  0
M  END
>  <MODEL>
1

>  <REMARK>
 VINA RESULT:      -6.3      0.000      0.000
  Name = ZINC31384614
                            x       y       z     vdW  Elec       q    Type
                         _______ _______ _______ _____ _____    ______ ____

>  <TORSDO>
F 8

>  <vina_score>
-6.3

$$$$
ZINC04039469
 OpenBabel01091701263D

 24 25  0  0  1  0  0  0  0  0999 V2000
    8.3820   13.3580   -1.7650 C   0  0  0  0  0  0  0  0  0  0  0  0
    7.7340   12.1670   -1.6670 C   0  0  0  0  0  0  0  0  0  0  0  0
    7.4910   11.6040   -0.3980 C   0  0  0  0  0  0  0  0  0  0  0  0
    7.8930   12.2070    0.7310 O   0  0  0  0  0  0  0  0  0  0  0  0
    8.5520   13.3860    0.7030 C   0  0  0  0  0  0  0  0  0  0  0  0
    8.9610   13.9970    1.8780 C   0  0  0  0  0  0  0  0  0  0  0  0
    9.6410   15.2040    1.8280 C   0  0  0  0  0  0  0  0  0  0  0  0
   10.0450   15.7990    2.9780 O   0  0  0  0  0  0  0  0  0  0  0  0
    9.9110   15.8120    0.6030 C   0  0  0  0  0  0  0  0  0  0  0  0
    9.5100   15.2270   -0.5630 C   0  0  0  0  0  0  0  0  0  0  0  0
    6.9000   10.5410   -0.3240 O   0  0  0  0  0  0  0  0  0  0  0  0
    8.8230   14.0080   -0.5300 C   0  0  0  0  0  0  0  0  0  0  0  0
    8.6540   13.9820   -3.1090 C   0  0  0  0  0  0  0  0  0  0  0  0
   11.0170   13.1820   -3.2430 C   0  0  0  0  0  0  0  0  0  0  0  0
    9.6340   13.1040   -3.8900 C   0  0  0  0  0  0  0  0  0  0  0  0
    8.6730   13.3480    3.2080 C   0  0  0  0  0  0  0  0  0  0  0  0
    9.9460   13.0830    3.9040 N   0  0  0  0  0  0  0  0  0  0  0  0
   10.5050   13.9360    3.9080 H   0  0  0  0  0  0  0  0  0  0  0  0
    9.7510   12.7880    4.8600 H   0  0  0  0  0  0  0  0  0  0  0  0
   10.6980   12.0210    3.2090 C   0  0  2  0  0  0  0  0  0  0  0  0
   10.7370   10.7670    4.0860 C   0  0  0  0  0  0  0  0  0  0  0  0
   12.1040   12.4970    2.9510 C   0  0  0  0  0  0  0  0  0  0  0  0
   12.8020   12.0010    1.9190 O   0  0  0  0  0  0  0  0  0  0  0  0
   12.6020   13.3260    3.6760 O   0  0  0  0  0  0  0  0  0  0  0  0
  1  2  2  0  0  0  0
  1 12  1  0  0  0  0
  2  3  1  0  0  0  0
  3 11  2  0  0  0  0
  3  4  1  0  0  0  0
  5  4  1  0  0  0  0
  5  6  2  0  0  0  0
  6 16  1  0  0  0  0
  7  6  1  0  0  0  0
  7  8  1  0  0  0  0
  9  7  2  0  0  0  0
 10 12  2  0  0  0  0
 10  9  1  0  0  0  0
 12  5  1  0  0  0  0
 13  1  1  0  0  0  0
 15 14  1  0  0  0  0
 15 13  1  0  0  0  0
 16 17  1  0  0  0  0
 17 18  1  0  0  0  0
 17 19  1  0  0  0  0
 20 22  1  1  0  0  0
 20 17  1  0  0  0  0
 20 21  1  0  0  0  0
 22 24  1  0  0  0  0
 23 22  2  0  0  0  0
M  END
>  <MODEL>
1

>  <REMARK>
 VINA RESULT:      -6.3      0.000      0.000
  Name = ZINC04039469
                            x       y       z     vdW  Elec       q    Type
                         _______ _______ _______ _____ _____    ______ ____

>  <TORSDO>
F 6

>  <vina_score>
-6.3

$$$$
ZINC06223307
 OpenBabel01091701273D

 22 23  0  0  0  0  0  0  0  0999 V2000
   11.8430   13.0550    0.2800 N   0  0  0  0  0  0  0  0  0  0  0  0
   10.8550   13.5430    0.9650 C   0  0  0  0  0  0  0  0  0  0  0  0
   10.2210   12.7380    2.0140 C   0  0  0  0  0  0  0  0  0  0  0  0
    9.2170   11.8180    1.7060 C   0  0  0  0  0  0  0  0  0  0  0  0
    8.8090   11.6550    0.4330 O   0  0  0  0  0  0  0  0  0  0  0  0
    8.6550   11.0890    2.7140 N   0  0  0  0  0  0  0  0  0  0  0  0
    7.9460   10.4390    2.5010 H   0  0  0  0  0  0  0  0  0  0  0  0
    9.0490   11.2400    3.9880 C   0  0  0  0  0  0  0  0  0  0  0  0
   10.0090   12.1090    4.3440 N   0  0  0  0  0  0  0  0  0  0  0  0
   10.2660   12.1920    5.2900 H   0  0  0  0  0  0  0  0  0  0  0  0
    8.5170   10.5670    4.8510 O   0  0  0  0  0  0  0  0  0  0  0  0
   10.6290   12.8690    3.4170 C   0  0  0  0  0  0  0  0  0  0  0  0
   11.5040   13.6520    3.7390 O   0  0  0  0  0  0  0  0  0  0  0  0
   12.4770   13.8590   -0.7680 C   0  0  0  0  0  0  0  0  0  0  0  0
   11.6220   15.0970   -1.0480 C   0  0  0  0  0  0  0  0  0  0  0  0
   11.0330   15.0020   -2.4580 C   0  0  0  0  0  0  0  0  0  0  0  0
    7.7340   13.6510   -2.0040 C   0  0  0  0  0  0  0  0  0  0  0  0
    8.6480   14.6250   -1.8330 C   0  0  0  0  0  0  0  0  0  0  0  0
    9.7900   14.2290   -2.4160 N   0  0  0  0  0  0  0  0  0  0  0  0
    9.6160   13.0490   -2.9450 C   0  0  0  0  0  0  0  0  0  0  0  0
    8.3490   12.6500   -2.7070 N   0  0  0  0  0  0  0  0  0  0  0  0
    7.9410   11.7980   -2.9860 H   0  0  0  0  0  0  0  0  0  0  0  0
  1  2  2  0  0  0  0
  2  3  1  0  0  0  0
  3 12  1  0  0  0  0
  4  3  1  0  0  0  0
  4  6  1  0  0  0  0
  5  4  2  0  0  0  0
  6  8  1  0  0  0  0
  7  6  1  0  0  0  0
  8  9  1  0  0  0  0
  8 11  2  0  0  0  0
  9 10  1  0  0  0  0
 12 13  2  0  0  0  0
 12  9  1  0  0  0  0
 14  1  1  0  0  0  0
 15 14  1  0  0  0  0
 16 19  1  0  0  0  0
 16 15  1  0  0  0  0
 17 18  2  0  0  0  0
 19 18  1  0  0  0  0
 20 21  1  0  0  0  0
 20 19  1  0  0  0  0
 21 17  1  0  0  0  0
 22 21  1  0  0  0  0
M  END
>  <MODEL>
1

>  <REMARK>
 VINA RESULT:      -6.3      0.000      0.000
  Name = ZINC06223307
                            x       y       z     vdW  Elec       q    Type
                         _______ _______ _______ _____ _____    ______ ____

>  <TORSDO>
F 5

>  <vina_score>
-6.3

$$$$
ZINC14953235
 OpenBabel01091701293D

 35 37  0  0  1  0  0  0  0  0999 V2000
   10.5310   14.4210    2.8110 C   0  0  2  0  0  0  0  0  0  0  0  0
   11.2510   10.8750    3.9050 C   0  0  0  0  0  0  0  0  0  0  0  0
   11.4110   12.2250    3.6270 C   0  0  0  0  0  0  0  0  0  0  0  0
   10.3540   12.9570    3.1200 C   0  0  0  0  0  0  0  0  0  0  0  0
    9.1330   12.3490    2.9000 C   0  0  0  0  0  0  0  0  0  0  0  0
    8.9680   11.0000    3.1770 C   0  0  0  0  0  0  0  0  0  0  0  0
   10.0290   10.2620    3.6810 C   0  0  0  0  0  0  0  0  0  0  0  0
   12.2930   10.1550    4.3980 O   0  0  0  0  0  0  0  0  0  0  0  0
   13.7630   10.1540    2.4810 C   0  0  0  0  0  0  0  0  0  0  0  0
   13.6020   10.5230    3.9570 C   0  0  0  0  0  0  0  0  0  0  0  0
    7.7680   10.4000    2.9550 O   0  0  0  0  0  0  0  0  0  0  0  0
    7.3670   10.2370    1.5930 C   0  0  0  0  0  0  0  0  0  0  0  0
    7.9610   11.3670    0.7460 C   0  0  0  0  0  0  0  0  0  0  0  0
    7.4600   11.2310   -0.6940 C   0  0  0  0  0  0  0  0  0  0  0  0
    6.0320   11.2560   -0.7070 O   0  0  0  0  0  0  0  0  0  0  0  0
    5.4220   10.1950    0.0300 C   0  0  0  0  0  0  0  0  0  0  0  0
    5.8390   10.2900    1.5000 C   0  0  0  0  0  0  0  0  0  0  0  0
    9.1850   15.0460    2.5500 C   0  0  0  0  0  0  0  0  0  0  0  0
    9.0700   16.3800    2.4620 O   0  0  0  0  0  0  0  0  0  0  0  0
    8.2090   14.3450    2.4200 O   0  0  0  0  0  0  0  0  0  0  0  0
   11.3770   14.5690    1.6230 N   0  0  0  0  0  0  0  0  0  0  0  0
   12.3230   14.8200    1.7200 H   0  0  0  0  0  0  0  0  0  0  0  0
   10.8400   14.3560    0.3560 C   0  0  0  0  0  0  0  0  0  0  0  0
   10.0170   15.3190   -0.2220 C   0  0  0  0  0  0  0  0  0  0  0  0
    9.4900   15.1110   -1.4770 C   0  0  0  0  0  0  0  0  0  0  0  0
    9.7720   13.9300   -2.1660 C   0  0  0  0  0  0  0  0  0  0  0  0
   10.5940   12.9640   -1.5810 C   0  0  0  0  0  0  0  0  0  0  0  0
   11.1230   13.1770   -0.3280 C   0  0  0  0  0  0  0  0  0  0  0  0
    9.2030   13.7040   -3.5110 C   0  0  0  0  0  0  0  0  0  0  0  0
    8.7600   14.7680   -4.1650 N   0  0  0  0  0  0  0  0  0  0  0  0
    8.3720   14.6670   -5.0650 H   0  0  0  0  0  0  0  0  0  0  0  0
    8.8180   15.6590   -3.7530 H   0  0  0  0  0  0  0  0  0  0  0  0
    9.1510   12.4290   -4.0320 N   0  0  0  0  0  0  0  0  0  0  0  0
    8.2900   12.0480   -4.3180 H   0  0  0  0  0  0  0  0  0  0  0  0
    9.9760   11.8990   -4.1180 H   0  0  0  0  0  0  0  0  0  0  0  0
  1 21  1  6  0  0  0
  1  4  1  0  0  0  0
  2  8  1  0  0  0  0
  3  2  2  0  0  0  0
  4  3  1  0  0  0  0
  5  4  2  0  0  0  0
  5  6  1  0  0  0  0
  6  7  2  0  0  0  0
  7  2  1  0  0  0  0
  9 10  1  0  0  0  0
 10  8  1  0  0  0  0
 11  6  1  0  0  0  0
 12 11  1  0  0  0  0
 13 12  1  0  0  0  0
 14 13  1  0  0  0  0
 15 14  1  0  0  0  0
 15 16  1  0  0  0  0
 16 17  1  0  0  0  0
 17 12  1  0  0  0  0
 18  1  1  0  0  0  0
 19 18  1  0  0  0  0
 20 18  2  0  0  0  0
 21 22  1  0  0  0  0
 23 21  1  0  0  0  0
 24 23  1  0  0  0  0
 25 24  2  0  0  0  0
 26 27  2  0  0  0  0
 26 25  1  0  0  0  0
 27 28  1  0  0  0  0
 28 23  2  0  0  0  0
 29 26  1  0  0  0  0
 30 32  1  0  0  0  0
 30 29  2  0  0  0  0
 31 30  1  0  0  0  0
 33 29  1  0  0  0  0
 34 33  1  0  0  0  0
 35 33  1  0  0  0  0
M  END
>  <MODEL>
1

>  <REMARK>
 VINA RESULT:      -6.3      0.000      0.000
  Name = ZINC14953235
                            x       y       z     vdW  Elec       q    Type
                         _______ _______ _______ _____ _____    ______ ____

>  <TORSDO>
F 10

>  <vina_score>
-6.3

$$$$
ZINC05164508
 OpenBabel01091701283D

 22 22  0  0  1  0  0  0  0  0999 V2000
    8.8430   12.8440    1.9720 N   0  0  0  0  0  0  0  0  0  0  0  0
    8.1970   13.4630    2.3830 H   0  0  0  0  0  0  0  0  0  0  0  0
    8.7960   12.6020    0.6470 C   0  0  0  0  0  0  0  0  0  0  0  0
    7.8640   13.2080   -0.1160 N   0  0  0  0  0  0  0  0  0  0  0  0
    7.2190   13.8280    0.2950 H   0  0  0  0  0  0  0  0  0  0  0  0
    9.5930   11.8370    0.1390 O   0  0  0  0  0  0  0  0  0  0  0  0
    9.8550   12.1850    2.8010 C   0  0  2  0  0  0  0  0  0  0  0  0
    9.2160   11.6810    4.0680 C   0  0  0  0  0  0  0  0  0  0  0  0
    8.3520   10.6540    4.0230 O   0  0  0  0  0  0  0  0  0  0  0  0
    9.4810   12.2000    5.1260 O   0  0  0  0  0  0  0  0  0  0  0  0
   10.9590   13.1850    3.1490 C   0  0  0  0  0  0  0  0  0  0  0  0
   13.4330   13.0560    3.4730 C   0  0  0  0  0  0  0  0  0  0  0  0
   12.2790   12.7260    2.5250 C   0  0  0  0  0  0  0  0  0  0  0  0
   12.2320   11.2160    2.2840 C   0  0  0  0  0  0  0  0  0  0  0  0
    7.8140   12.9460   -1.5560 C   0  0  0  0  0  0  0  0  0  0  0  0
    8.0390   14.2520   -2.3210 C   0  0  0  0  0  0  0  0  0  0  0  0
    9.3260   14.1480   -3.1400 C   0  0  0  0  0  0  0  0  0  0  0  0
   10.4830   14.1870   -2.2410 N   0  0  0  0  0  0  0  0  0  0  0  0
   10.7490   15.1460   -1.3020 C   0  0  0  0  0  0  0  0  0  0  0  0
   11.9020   14.7920   -0.7020 C   0  0  0  0  0  0  0  0  0  0  0  0
   12.3330   13.6550   -1.2670 N   0  0  0  0  0  0  0  0  0  0  0  0
   11.4880   13.2860   -2.1900 C   0  0  0  0  0  0  0  0  0  0  0  0
  1  2  1  0  0  0  0
  3  1  1  0  0  0  0
  4  5  1  0  0  0  0
  4  3  1  0  0  0  0
  6  3  2  0  0  0  0
  7  1  1  6  0  0  0
  7 11  1  0  0  0  0
  7  8  1  0  0  0  0
  8 10  1  0  0  0  0
  9  8  2  0  0  0  0
 13 11  1  0  0  0  0
 13 12  1  0  0  0  0
 14 13  1  0  0  0  0
 15  4  1  0  0  0  0
 16 15  1  0  0  0  0
 17 16  1  0  0  0  0
 17 18  1  0  0  0  0
 18 22  1  0  0  0  0
 18 19  1  0  0  0  0
 19 20  2  0  0  0  0
 21 20  1  0  0  0  0
 22 21  2  0  0  0  0
M  END
>  <MODEL>
1

>  <REMARK>
 VINA RESULT:      -6.3      0.000      0.000
  Name = ZINC05164508
                            x       y       z     vdW  Elec       q    Type
                         _______ _______ _______ _____ _____    ______ ____

>  <TORSDO>
F 8

>  <vina_score>
-6.3

$$$$
ZINC18086138
 OpenBabel01091701323D

 25 26  0  0  0  0  0  0  0  0999 V2000
   11.7030   15.4230   -1.5680 C   0  0  0  0  0  0  0  0  0  0  0  0
   11.2600   14.8550   -2.6480 N   0  0  0  0  0  0  0  0  0  0  0  0
    9.0110   15.6530    2.5620 C   0  0  0  0  0  0  0  0  0  0  0  0
   10.0310   14.9960    1.7420 N   0  0  0  0  0  0  0  0  0  0  0  0
   10.3520   15.5230    0.5240 C   0  0  0  0  0  0  0  0  0  0  0  0
    9.7390   16.6360    0.0790 O   0  0  0  0  0  0  0  0  0  0  0  0
   11.3250   14.8920   -0.2540 C   0  0  0  0  0  0  0  0  0  0  0  0
   11.9620   13.6870    0.2870 C   0  0  0  0  0  0  0  0  0  0  0  0
   11.5750   13.2390    1.4980 N   0  0  0  0  0  0  0  0  0  0  0  0
   12.1950   12.0340    2.0570 C   0  0  0  0  0  0  0  0  0  0  0  0
   12.8200   13.1010   -0.3470 O   0  0  0  0  0  0  0  0  0  0  0  0
   10.6320   13.8880    2.2030 C   0  0  0  0  0  0  0  0  0  0  0  0
   10.3120   13.4560    3.2920 O   0  0  0  0  0  0  0  0  0  0  0  0
   10.3240   13.7310   -2.5540 C   0  0  0  0  0  0  0  0  0  0  0  0
    8.8940   14.2420   -2.7410 C   0  0  0  0  0  0  0  0  0  0  0  0
    7.9340   13.3790   -1.9200 C   0  0  0  0  0  0  0  0  0  0  0  0
    8.6250   12.9040   -0.7060 N   0  0  0  0  0  0  0  0  0  0  0  0
    9.6040   12.7250   -0.9320 H   0  0  0  0  0  0  0  0  0  0  0  0
    8.5590   13.6170    0.0200 H   0  0  0  0  0  0  0  0  0  0  0  0
    8.0090   11.6550   -0.2210 C   0  0  0  0  0  0  0  0  0  0  0  0
    6.6560   11.4530   -0.9090 C   0  0  0  0  0  0  0  0  0  0  0  0
    6.0130   10.1620   -0.3990 C   0  0  0  0  0  0  0  0  0  0  0  0
    5.8060   10.2590    1.1140 C   0  0  0  0  0  0  0  0  0  0  0  0
    7.1570   10.4610    1.8020 C   0  0  0  0  0  0  0  0  0  0  0  0
    7.8010   11.7520    1.2910 C   0  0  0  0  0  0  0  0  0  0  0  0
  1  7  1  0  0  0  0
  2 14  1  0  0  0  0
  2  1  2  0  0  0  0
  4 12  1  0  0  0  0
  4  3  1  0  0  0  0
  5  4  1  0  0  0  0
  6  5  2  0  0  0  0
  7  8  1  0  0  0  0
  7  5  1  0  0  0  0
  8  9  1  0  0  0  0
  9 10  1  0  0  0  0
  9 12  1  0  0  0  0
 11  8  2  0  0  0  0
 12 13  2  0  0  0  0
 15 14  1  0  0  0  0
 15 16  1  0  0  0  0
 16 17  1  0  0  0  0
 17 20  1  0  0  0  0
 17 19  1  0  0  0  0
 18 17  1  0  0  0  0
 20 25  1  0  0  0  0
 21 22  1  0  0  0  0
 21 20  1  0  0  0  0
 22 23  1  0  0  0  0
 23 24  1  0  0  0  0
 25 24  1  0  0  0  0
M  END
>  <MODEL>
1

>  <REMARK>
 VINA RESULT:      -6.3      0.000      0.000
  Name = ZINC18086138
                            x       y       z     vdW  Elec       q    Type
                         _______ _______ _______ _____ _____    ______ ____

>  <TORSDO>
F 6

>  <vina_score>
-6.3

$$$$
ZINC00133162
 OpenBabel01091701353D

 23 24  0  0  1  0  0  0  0  0999 V2000
    9.1780   13.9380    1.9100 C   0  0  0  0  0  0  0  0  0  0  0  0
    8.5810   12.9220    1.1760 C   0  0  0  0  0  0  0  0  0  0  0  0
    8.5260   13.0080   -0.2010 C   0  0  0  0  0  0  0  0  0  0  0  0
    9.0670   14.1040   -0.8490 C   0  0  0  0  0  0  0  0  0  0  0  0
    9.6620   15.1170   -0.1200 C   0  0  0  0  0  0  0  0  0  0  0  0
    9.7190   15.0360    1.2580 C   0  0  0  0  0  0  0  0  0  0  0  0
    9.2380   13.8520    3.2650 O   0  0  0  0  0  0  0  0  0  0  0  0
    9.3700   12.5460    3.8270 C   0  0  0  0  0  0  0  0  0  0  0  0
   13.4550   11.3110    3.6190 C   0  0  0  0  0  0  0  0  0  0  0  0
   12.4480   10.3650    3.6620 C   0  0  0  0  0  0  0  0  0  0  0  0
   11.1260   10.7640    3.7290 C   0  0  0  0  0  0  0  0  0  0  0  0
   10.8110   12.1100    3.7540 C   0  0  0  0  0  0  0  0  0  0  0  0
   11.8180   13.0570    3.7050 C   0  0  0  0  0  0  0  0  0  0  0  0
   13.1390   12.6570    3.6430 C   0  0  0  0  0  0  0  0  0  0  0  0
    9.0050   14.1950   -2.3530 C   0  0  0  0  0  0  0  0  0  0  0  0
    9.9280   13.1390   -2.9650 C   0  0  1  0  0  0  0  0  0  0  0  0
    9.9450   13.2590   -4.4330 N   0  0  0  0  0  0  0  0  0  0  0  0
   10.8010   13.7300   -4.7260 H   0  0  0  0  0  0  0  0  0  0  0  0
    9.9080   12.3290   -4.8510 H   0  0  0  0  0  0  0  0  0  0  0  0
    9.1380   13.8010   -4.7400 H   0  0  0  0  0  0  0  0  0  0  0  0
   11.3280   13.3320   -2.4410 C   0  0  0  0  0  0  0  0  0  0  0  0
   11.8410   12.4590   -1.5610 O   0  0  0  0  0  0  0  0  0  0  0  0
   11.9870   14.2730   -2.8150 O   0  0  0  0  0  0  0  0  0  0  0  0
  1  7  1  0  0  0  0
  2  1  2  0  0  0  0
  3  2  1  0  0  0  0
  4  3  2  0  0  0  0
  4  5  1  0  0  0  0
  5  6  2  0  0  0  0
  6  1  1  0  0  0  0
  7  8  1  0  0  0  0
  9 14  2  0  0  0  0
  9 10  1  0  0  0  0
 10 11  2  0  0  0  0
 11 12  1  0  0  0  0
 12  8  1  0  0  0  0
 13 12  2  0  0  0  0
 14 13  1  0  0  0  0
 15  4  1  0  0  0  0
 16 17  1  6  0  0  0
 16 21  1  0  0  0  0
 16 15  1  0  0  0  0
 18 17  1  0  0  0  0
 19 17  1  0  0  0  0
 20 17  1  0  0  0  0
 21 22  1  0  0  0  0
 23 21  2  0  0  0  0
M  END
>  <MODEL>
1

>  <REMARK>
 VINA RESULT:      -6.2      0.000      0.000
  Name = ZINC00133162
                            x       y       z     vdW  Elec       q    Type
                         _______ _______ _______ _____ _____    ______ ____

>  <TORSDO>
F 7

>  <vina_score>
-6.2

$$$$
ZINC06041659
 OpenBabel01091701353D

 26 27  0  0  0  0  0  0  0  0999 V2000
   10.5380   14.0860    0.2870 C   0  0  0  0  0  0  0  0  0  0  0  0
    9.8390   14.5810    1.3780 C   0  0  0  0  0  0  0  0  0  0  0  0
   10.2390   14.2770    2.6620 C   0  0  0  0  0  0  0  0  0  0  0  0
   11.3490   13.4690    2.8650 C   0  0  0  0  0  0  0  0  0  0  0  0
   12.0600   12.9650    1.7640 C   0  0  0  0  0  0  0  0  0  0  0  0
   13.0780   12.2130    2.2570 N   0  0  0  0  0  0  0  0  0  0  0  0
   13.0440   12.2290    3.5650 C   0  0  0  0  0  0  0  0  0  0  0  0
   11.9930   12.9880    3.9920 N   0  0  0  0  0  0  0  0  0  0  0  0
   11.7400   13.1620    4.9270 H   0  0  0  0  0  0  0  0  0  0  0  0
   11.6410   13.2830    0.4700 C   0  0  0  0  0  0  0  0  0  0  0  0
   13.9370   11.5700    4.3930 N   0  0  0  0  0  0  0  0  0  0  0  0
   13.8940   10.5910    4.4810 H   0  0  0  0  0  0  0  0  0  0  0  0
   14.8630   12.2690    5.0770 C   0  0  0  0  0  0  0  0  0  0  0  0
   14.9150   13.4790    4.9680 O   0  0  0  0  0  0  0  0  0  0  0  0
   15.7310   11.6280    5.8820 O   0  0  0  0  0  0  0  0  0  0  0  0
   15.7330   10.1770    5.8250 C   0  0  0  0  0  0  0  0  0  0  0  0
   10.0100   14.4870   -1.3460 S   0  0  0  0  0  0  0  0  0  0  0  0
   10.6720   13.5840   -2.2210 O   0  0  0  0  0  0  0  0  0  0  0  0
   10.1250   15.8970   -1.4750 O   0  0  0  0  0  0  0  0  0  0  0  0
    8.3940   14.1350   -1.4380 N   0  0  0  0  0  0  0  0  0  0  0  0
    8.0430   14.1090   -0.4810 H   0  0  0  0  0  0  0  0  0  0  0  0
    7.9490   12.9000   -2.0860 C   0  0  0  0  0  0  0  0  0  0  0  0
    7.1420   12.0820   -1.1100 C   0  0  0  0  0  0  0  0  0  0  0  0
    6.1970   11.4370   -1.4990 O   0  0  0  0  0  0  0  0  0  0  0  0
    8.5450   11.1780    0.5910 C   0  0  0  0  0  0  0  0  0  0  0  0
    7.4720   12.0710    0.1910 O   0  0  0  0  0  0  0  0  0  0  0  0
  1 10  2  0  0  0  0
  1  2  1  0  0  0  0
  2  3  2  0  0  0  0
  3  4  1  0  0  0  0
  4  8  1  0  0  0  0
  5  6  1  0  0  0  0
  5  4  2  0  0  0  0
  6  7  2  0  0  0  0
  7  8  1  0  0  0  0
  7 11  1  0  0  0  0
  8  9  1  0  0  0  0
 10  5  1  0  0  0  0
 11 12  1  0  0  0  0
 11 13  1  0  0  0  0
 13 15  1  0  0  0  0
 14 13  2  0  0  0  0
 16 15  1  0  0  0  0
 17  1  1  0  0  0  0
 18 17  2  0  0  0  0
 19 17  2  0  0  0  0
 20 17  1  0  0  0  0
 20 21  1  0  0  0  0
 22 20  1  0  0  0  0
 22 23  1  0  0  0  0
 23 26  1  0  0  0  0
 24 23  2  0  0  0  0
 26 25  1  0  0  0  0
M  END
>  <MODEL>
1

>  <REMARK>
 VINA RESULT:      -6.2      0.000      0.000
  Name = ZINC06041659
                            x       y       z     vdW  Elec       q    Type
                         _______ _______ _______ _____ _____    ______ ____

>  <TORSDO>
F 7

>  <vina_score>
-6.2

$$$$
ZINC04314877
 OpenBabel01091701363D

 26 28  0  0  0  0  0  0  0  0999 V2000
   12.6470   14.1490   -0.6710 C   0  0  0  0  0  0  0  0  0  0  0  0
   11.2430   13.7870   -0.8810 N   0  0  0  0  0  0  0  0  0  0  0  0
   10.6150   12.9150   -0.0050 C   0  0  0  0  0  0  0  0  0  0  0  0
    9.2840   12.5860   -0.2260 C   0  0  0  0  0  0  0  0  0  0  0  0
    8.9280   11.7160    0.7860 N   0  0  0  0  0  0  0  0  0  0  0  0
   10.0160   11.5480    1.5620 C   0  0  0  0  0  0  0  0  0  0  0  0
    8.6100   13.1470   -1.3310 C   0  0  0  0  0  0  0  0  0  0  0  0
    9.2750   13.9890   -2.1500 N   0  0  0  0  0  0  0  0  0  0  0  0
    8.5840   14.5740   -3.3000 C   0  0  0  0  0  0  0  0  0  0  0  0
    7.4440   12.8730   -1.5470 O   0  0  0  0  0  0  0  0  0  0  0  0
   11.0090   12.2590    1.0890 N   0  0  0  0  0  0  0  0  0  0  0  0
   10.5650   14.2950   -1.9270 C   0  0  0  0  0  0  0  0  0  0  0  0
   11.1340   15.0550   -2.6880 O   0  0  0  0  0  0  0  0  0  0  0  0
   10.0820   10.6760    2.7900 C   0  0  0  0  0  0  0  0  0  0  0  0
   11.2570   11.0640    3.5950 N   0  0  0  0  0  0  0  0  0  0  0  0
   11.0910   10.8130    4.5700 H   0  0  0  0  0  0  0  0  0  0  0  0
   11.4690   12.5250    3.5080 C   0  0  0  0  0  0  0  0  0  0  0  0
   12.6160   12.9180    4.4420 C   0  0  0  0  0  0  0  0  0  0  0  0
   13.8900   12.1850    4.0140 C   0  0  0  0  0  0  0  0  0  0  0  0
   13.6350   10.6750    4.0380 C   0  0  0  0  0  0  0  0  0  0  0  0
   12.4570   10.3480    3.1150 C   0  0  0  0  0  0  0  0  0  0  0  0
   15.0090   12.5210    4.9660 C   0  0  0  0  0  0  0  0  0  0  0  0
   15.7320   13.6440    4.7870 N   0  0  0  0  0  0  0  0  0  0  0  0
   16.4630   13.8620    5.4090 H   0  0  0  0  0  0  0  0  0  0  0  0
   15.5290   14.2450    4.0340 H   0  0  0  0  0  0  0  0  0  0  0  0
   15.2580   11.7800    5.8930 O   0  0  0  0  0  0  0  0  0  0  0  0
  2  1  1  0  0  0  0
  2  3  1  0  0  0  0
  3 11  1  0  0  0  0
  4  3  2  0  0  0  0
  4  5  1  0  0  0  0
  5  6  1  0  0  0  0
  6 14  1  0  0  0  0
  7  4  1  0  0  0  0
  8 12  1  0  0  0  0
  8  7  1  0  0  0  0
  9  8  1  0  0  0  0
 10  7  2  0  0  0  0
 11  6  2  0  0  0  0
 12  2  1  0  0  0  0
 13 12  2  0  0  0  0
 14 15  1  0  0  0  0
 15 16  1  0  0  0  0
 17 15  1  0  0  0  0
 17 18  1  0  0  0  0
 19 20  1  0  0  0  0
 19 18  1  0  0  0  0
 19 22  1  0  0  0  0
 21 15  1  0  0  0  0
 21 20  1  0  0  0  0
 22 26  2  0  0  0  0
 23 22  1  0  0  0  0
 23 24  1  0  0  0  0
 25 23  1  0  0  0  0
M  END
>  <MODEL>
1

>  <REMARK>
 VINA RESULT:      -6.2      0.000      0.000
  Name = ZINC04314877
                            x       y       z     vdW  Elec       q    Type
                         _______ _______ _______ _____ _____    ______ ____

>  <TORSDO>
F 3

>  <vina_score>
-6.2

$$$$
ZINC02309206
 OpenBabel01091701373D

 22 22  0  0  0  0  0  0  0  0999 V2000
   10.5180   14.1160    1.4310 C   0  0  0  0  0  0  0  0  0  0  0  0
   10.2660   13.1490    2.3860 C   0  0  0  0  0  0  0  0  0  0  0  0
    8.9890   13.1070    3.1210 C   0  0  0  0  0  0  0  0  0  0  0  0
    8.8140   12.1350    4.0390 N   0  0  0  0  0  0  0  0  0  0  0  0
    7.9680   12.0950    4.5420 H   0  0  0  0  0  0  0  0  0  0  0  0
    9.7640   11.2220    4.2830 C   0  0  0  0  0  0  0  0  0  0  0  0
   10.9500   11.2040    3.6580 N   0  0  0  0  0  0  0  0  0  0  0  0
   11.9250   10.1660    4.0030 C   0  0  0  0  0  0  0  0  0  0  0  0
    9.5410   10.3690    5.1200 O   0  0  0  0  0  0  0  0  0  0  0  0
    8.1160   13.9270    2.9040 O   0  0  0  0  0  0  0  0  0  0  0  0
   11.2630   12.1150    2.7150 C   0  0  0  0  0  0  0  0  0  0  0  0
   12.3400   12.0840    2.1500 O   0  0  0  0  0  0  0  0  0  0  0  0
    9.5410   14.9690    1.0620 N   0  0  0  0  0  0  0  0  0  0  0  0
    8.7580   15.1020    1.6430 H   0  0  0  0  0  0  0  0  0  0  0  0
    9.6440   15.6980   -0.2050 C   0  0  0  0  0  0  0  0  0  0  0  0
    9.1280   14.8160   -1.3440 C   0  0  0  0  0  0  0  0  0  0  0  0
   10.1450   14.7390   -2.4020 N   0  0  0  0  0  0  0  0  0  0  0  0
    9.8050   15.2710   -3.2040 H   0  0  0  0  0  0  0  0  0  0  0  0
   12.4450   14.2430   -1.7220 C   0  0  0  0  0  0  0  0  0  0  0  0
   11.4100   15.3440   -1.9630 C   0  0  0  0  0  0  0  0  0  0  0  0
   10.3490   13.3510   -2.8360 C   0  0  0  0  0  0  0  0  0  0  0  0
    9.3900   13.0290   -3.9840 C   0  0  0  0  0  0  0  0  0  0  0  0
  1  2  2  0  0  0  0
  2 11  1  0  0  0  0
  2  3  1  0  0  0  0
  3  4  1  0  0  0  0
  4  6  1  0  0  0  0
  4  5  1  0  0  0  0
  6  9  2  0  0  0  0
  7  8  1  0  0  0  0
  7  6  1  0  0  0  0
 10  3  2  0  0  0  0
 11  7  1  0  0  0  0
 12 11  2  0  0  0  0
 13  1  1  0  0  0  0
 13 14  1  0  0  0  0
 15 13  1  0  0  0  0
 16 15  1  0  0  0  0
 17 20  1  0  0  0  0
 17 16  1  0  0  0  0
 18 17  1  0  0  0  0
 20 19  1  0  0  0  0
 21 17  1  0  0  0  0
 22 21  1  0  0  0  0
M  END
>  <MODEL>
1

>  <REMARK>
 VINA RESULT:      -6.2      0.000      0.000
  Name = ZINC02309206
                            x       y       z     vdW  Elec       q    Type
                         _______ _______ _______ _____ _____    ______ ____

>  <TORSDO>
F 6

>  <vina_score>
-6.2

$$$$
ZINC26490873
 OpenBabel01091701233D

 27 28  0  0  1  0  0  0  0  0999 V2000
   10.6030   13.0660    2.4020 C   0  0  2  0  0  0  0  0  0  0  0  0
   11.7160   12.0000    2.6460 C   0  0  0  0  0  0  0  0  0  0  0  0
   10.7700   10.8690    3.7590 S   0  0  0  0  0  0  0  0  0  0  0  0
    9.0760   11.4390    3.3080 C   0  0  1  0  0  0  0  0  0  0  0  0
    9.3440   12.3970    2.2570 O   0  0  0  0  0  0  0  0  0  0  0  0
   12.0610   14.0210   -0.8460 C   0  0  0  0  0  0  0  0  0  0  0  0
   11.7950   13.3190    0.2800 C   0  0  0  0  0  0  0  0  0  0  0  0
   10.9010   13.8170    1.1790 N   0  0  0  0  0  0  0  0  0  0  0  0
   10.2840   14.9900    0.9480 C   0  0  0  0  0  0  0  0  0  0  0  0
   10.5400   15.6960   -0.1520 N   0  0  0  0  0  0  0  0  0  0  0  0
    9.4830   15.4180    1.7630 O   0  0  0  0  0  0  0  0  0  0  0  0
   11.4040   15.2510   -1.0560 C   0  0  0  0  0  0  0  0  0  0  0  0
   11.6550   15.9850   -2.1920 N   0  0  0  0  0  0  0  0  0  0  0  0
   12.1430   16.8380   -2.1290 H   0  0  0  0  0  0  0  0  0  0  0  0
   11.3470   15.6580   -3.0680 H   0  0  0  0  0  0  0  0  0  0  0  0
    8.2330   10.2760    2.7820 C   0  0  0  0  0  0  0  0  0  0  0  0
    8.1010   10.3860    1.3400 O   0  0  0  0  0  0  0  0  0  0  0  0
    6.9540   10.9110    0.8710 C   0  0  0  0  0  0  0  0  0  0  0  0
    5.9460   10.8690    1.5460 O   0  0  0  0  0  0  0  0  0  0  0  0
    6.9250   11.4810   -0.3470 O   0  0  0  0  0  0  0  0  0  0  0  0
    8.1140   12.2010   -0.7670 C   0  0  0  0  0  0  0  0  0  0  0  0
    7.7430   13.2060   -1.8590 C   0  0  0  0  0  0  0  0  0  0  0  0
    8.8910   13.3120   -2.8650 C   0  0  0  0  0  0  0  0  0  0  0  0
    8.8440   14.6240   -3.5250 N   0  0  0  0  0  0  0  0  0  0  0  0
    7.9750   15.0990   -3.2760 H   0  0  0  0  0  0  0  0  0  0  0  0
    9.6370   15.1870   -3.2180 H   0  0  0  0  0  0  0  0  0  0  0  0
    8.8860   14.4990   -4.5360 H   0  0  0  0  0  0  0  0  0  0  0  0
  1  8  1  6  0  0  0
  1  2  1  0  0  0  0
  2  3  1  0  0  0  0
  4 16  1  6  0  0  0
  4  3  1  0  0  0  0
  5  1  1  0  0  0  0
  5  4  1  0  0  0  0
  6  7  2  0  0  0  0
  7  8  1  0  0  0  0
  9  8  1  0  0  0  0
  9 11  2  0  0  0  0
 10  9  1  0  0  0  0
 12  6  1  0  0  0  0
 12 10  2  0  0  0  0
 13 14  1  0  0  0  0
 13 12  1  0  0  0  0
 15 13  1  0  0  0  0
 17 16  1  0  0  0  0
 18 17  1  0  0  0  0
 18 19  2  0  0  0  0
 20 18  1  0  0  0  0
 21 20  1  0  0  0  0
 22 21  1  0  0  0  0
 23 22  1  0  0  0  0
 24 25  1  0  0  0  0
 24 26  1  0  0  0  0
 24 23  1  0  0  0  0
 27 24  1  0  0  0  0
M  END
>  <MODEL>
1

>  <REMARK>
 VINA RESULT:      -6.2      0.000      0.000
  Name = ZINC26490873
                            x       y       z     vdW  Elec       q    Type
                         _______ _______ _______ _____ _____    ______ ____

>  <TORSDO>
F 10

>  <vina_score>
-6.2

$$$$
ZINC21038636
 OpenBabel01091701413D

 27 29  0  0  0  0  0  0  0  0999 V2000
   11.9940   14.1380   -0.9090 C   0  0  0  0  0  0  0  0  0  0  0  0
   10.8390   13.6450   -1.4500 N   0  0  0  0  0  0  0  0  0  0  0  0
   10.4230   14.5130   -2.4200 C   0  0  0  0  0  0  0  0  0  0  0  0
   11.2880   15.4970   -2.4800 N   0  0  0  0  0  0  0  0  0  0  0  0
   12.2800   15.2630   -1.5180 N   0  0  0  0  0  0  0  0  0  0  0  0
   13.0550   15.8410   -1.3340 H   0  0  0  0  0  0  0  0  0  0  0  0
   12.7330   13.5510    0.1080 N   0  0  0  0  0  0  0  0  0  0  0  0
   13.6960   13.7380    0.1870 H   0  0  0  0  0  0  0  0  0  0  0  0
   11.4480   13.1800    2.0260 C   0  0  0  0  0  0  0  0  0  0  0  0
   12.1100   12.6910    1.0220 N   0  0  0  0  0  0  0  0  0  0  0  0
   10.6270   10.1690    4.1060 C   0  0  0  0  0  0  0  0  0  0  0  0
   11.2750   10.9760    3.1880 C   0  0  0  0  0  0  0  0  0  0  0  0
   10.7920   12.2750    2.9880 C   0  0  0  0  0  0  0  0  0  0  0  0
    9.6750   12.6980    3.7130 C   0  0  0  0  0  0  0  0  0  0  0  0
    9.0890   11.8890    4.5720 N   0  0  0  0  0  0  0  0  0  0  0  0
    9.5260   10.6620    4.7830 C   0  0  0  0  0  0  0  0  0  0  0  0
    8.9830   14.3360   -3.4200 S   0  0  0  0  0  0  0  0  0  0  0  0
    7.6110   14.5040   -2.2460 C   0  0  0  0  0  0  0  0  0  0  0  0
    7.4910   13.2420   -1.4310 C   0  0  0  0  0  0  0  0  0  0  0  0
    7.9380   13.2160   -0.1590 N   0  0  0  0  0  0  0  0  0  0  0  0
    8.3420   14.0220    0.2370 H   0  0  0  0  0  0  0  0  0  0  0  0
    6.9930   12.2490   -1.9190 O   0  0  0  0  0  0  0  0  0  0  0  0
    7.8280   12.0530    0.5930 C   0  0  0  0  0  0  0  0  0  0  0  0
    8.6960   11.0710    0.6410 N   0  0  0  0  0  0  0  0  0  0  0  0
    8.2750   10.1540    1.4380 N   0  0  0  0  0  0  0  0  0  0  0  0
    7.1210   10.4970    1.9410 C   0  0  0  0  0  0  0  0  0  0  0  0
    6.7970   11.7170    1.4220 N   0  0  0  0  0  0  0  0  0  0  0  0
  1  7  1  0  0  0  0
  2  1  2  0  0  0  0
  3  2  1  0  0  0  0
  4  3  2  0  0  0  0
  4  5  1  0  0  0  0
  5  6  1  0  0  0  0
  5  1  1  0  0  0  0
  7  8  1  0  0  0  0
  7 10  1  0  0  0  0
  9 13  1  0  0  0  0
 10  9  2  0  0  0  0
 11 16  2  0  0  0  0
 12 11  1  0  0  0  0
 13 12  2  0  0  0  0
 13 14  1  0  0  0  0
 14 15  2  0  0  0  0
 15 16  1  0  0  0  0
 17  3  1  0  0  0  0
 17 18  1  0  0  0  0
 18 19  1  0  0  0  0
 19 20  1  0  0  0  0
 20 21  1  0  0  0  0
 20 23  1  0  0  0  0
 22 19  2  0  0  0  0
 23 24  1  0  0  0  0
 23 27  2  0  0  0  0
 24 25  1  0  0  0  0
 25 26  2  0  0  0  0
 27 26  1  0  0  0  0
M  END
>  <MODEL>
1

>  <REMARK>
 VINA RESULT:      -6.2      0.000      0.000
  Name = ZINC21038636
                            x       y       z     vdW  Elec       q    Type
                         _______ _______ _______ _____ _____    ______ ____

>  <TORSDO>
F 7

>  <vina_score>
-6.2

$$$$
ZINC27469748
 OpenBabel01091701423D

 26 27  0  0  0  0  0  0  0  0999 V2000
    9.9390   11.5080    3.3920 C   0  0  0  0  0  0  0  0  0  0  0  0
    9.4540   11.1660    2.1820 N   0  0  0  0  0  0  0  0  0  0  0  0
    8.0440   10.7780    2.0140 C   0  0  0  0  0  0  0  0  0  0  0  0
    7.4450   11.6050    0.8720 C   0  0  0  0  0  0  0  0  0  0  0  0
    8.2770   11.4520   -0.3290 N   0  0  0  0  0  0  0  0  0  0  0  0
    8.3610   10.4540   -0.5230 H   0  0  0  0  0  0  0  0  0  0  0  0
    9.6310   11.9800   -0.1090 C   0  0  0  0  0  0  0  0  0  0  0  0
   10.3200   11.1690    0.9930 C   0  0  0  0  0  0  0  0  0  0  0  0
    9.1860   11.6130    4.3410 O   0  0  0  0  0  0  0  0  0  0  0  0
   12.0650   13.0570    3.5710 C   0  0  0  0  0  0  0  0  0  0  0  0
   13.3670   12.7890    3.7580 C   0  0  0  0  0  0  0  0  0  0  0  0
   13.5310   11.4610    3.8620 O   0  0  0  0  0  0  0  0  0  0  0  0
   12.3610   10.8260    3.7560 C   0  0  0  0  0  0  0  0  0  0  0  0
   11.3810   11.7560    3.5640 C   0  0  0  0  0  0  0  0  0  0  0  0
    7.6450   12.0870   -1.4920 C   0  0  0  0  0  0  0  0  0  0  0  0
    8.1790   13.5130   -1.6470 C   0  0  0  0  0  0  0  0  0  0  0  0
    9.1310   13.6370   -3.1860 S   0  0  0  0  0  0  0  0  0  0  0  0
    8.8170   14.8750   -3.8100 O   0  0  0  0  0  0  0  0  0  0  0  0
    8.9630   12.4310   -3.9180 O   0  0  0  0  0  0  0  0  0  0  0  0
   10.8440   13.7140   -2.5920 C   0  0  0  0  0  0  0  0  0  0  0  0
   11.2060   15.1640   -2.2680 C   0  0  0  0  0  0  0  0  0  0  0  0
   11.0050   15.4140   -0.7950 C   0  0  0  0  0  0  0  0  0  0  0  0
   10.0490   16.2700   -0.3810 N   0  0  0  0  0  0  0  0  0  0  0  0
    9.9180   16.4340    0.5800 H   0  0  0  0  0  0  0  0  0  0  0  0
    9.4830   16.7310   -1.0410 H   0  0  0  0  0  0  0  0  0  0  0  0
   11.7030   14.8460    0.0180 O   0  0  0  0  0  0  0  0  0  0  0  0
  1 14  1  0  0  0  0
  1  9  2  0  0  0  0
  2  1  1  0  0  0  0
  3  2  1  0  0  0  0
  4  3  1  0  0  0  0
  5  7  1  0  0  0  0
  5  4  1  0  0  0  0
  6  5  1  0  0  0  0
  7  8  1  0  0  0  0
  8  2  1  0  0  0  0
 10 11  2  0  0  0  0
 11 12  1  0  0  0  0
 13 12  1  0  0  0  0
 14 10  1  0  0  0  0
 14 13  2  0  0  0  0
 15  5  1  0  0  0  0
 16 15  1  0  0  0  0
 17 20  1  0  0  0  0
 17 16  1  0  0  0  0
 18 17  2  0  0  0  0
 19 17  2  0  0  0  0
 20 21  1  0  0  0  0
 21 22  1  0  0  0  0
 22 23  1  0  0  0  0
 22 26  2  0  0  0  0
 23 24  1  0  0  0  0
 25 23  1  0  0  0  0
M  END
>  <MODEL>
1

>  <REMARK>
 VINA RESULT:      -6.2      0.000      0.000
  Name = ZINC27469748
                            x       y       z     vdW  Elec       q    Type
                         _______ _______ _______ _____ _____    ______ ____

>  <TORSDO>
F 7

>  <vina_score>
-6.2

$$$$
ZINC23989706
 OpenBabel01091701423D

 26 28  0  0  0  0  0  0  0  0999 V2000
   13.4390   11.6710    3.4430 C   0  0  0  0  0  0  0  0  0  0  0  0
   12.5090   12.0050    2.3040 C   0  0  0  0  0  0  0  0  0  0  0  0
   12.6640   13.0040    1.4400 C   0  0  0  0  0  0  0  0  0  0  0  0
   11.6020   12.9780    0.5530 N   0  0  0  0  0  0  0  0  0  0  0  0
   11.0290   13.5970   -0.5500 C   0  0  0  0  0  0  0  0  0  0  0  0
   11.3720   14.7020   -1.3470 C   0  0  0  0  0  0  0  0  0  0  0  0
   10.5710   15.0480   -2.3760 N   0  0  0  0  0  0  0  0  0  0  0  0
   10.8090   15.8210   -2.9360 H   0  0  0  0  0  0  0  0  0  0  0  0
    9.4530   14.3520   -2.6490 C   0  0  0  0  0  0  0  0  0  0  0  0
    9.0860   13.2880   -1.9120 N   0  0  0  0  0  0  0  0  0  0  0  0
    7.8600   12.5560   -2.2410 C   0  0  0  0  0  0  0  0  0  0  0  0
    8.7560   14.6940   -3.5850 O   0  0  0  0  0  0  0  0  0  0  0  0
   12.3820   15.3410   -1.1120 O   0  0  0  0  0  0  0  0  0  0  0  0
    9.8680   12.8830   -0.8400 C   0  0  0  0  0  0  0  0  0  0  0  0
    9.7710   11.8980    0.0490 N   0  0  0  0  0  0  0  0  0  0  0  0
   10.7980   11.9430    0.8870 C   0  0  0  0  0  0  0  0  0  0  0  0
   11.3530   11.3240    1.9750 N   0  0  0  0  0  0  0  0  0  0  0  0
   10.8140   10.1540    2.6710 C   0  0  0  0  0  0  0  0  0  0  0  0
    9.9570   10.6120    3.8520 C   0  0  0  0  0  0  0  0  0  0  0  0
    8.8350   11.4230    3.3590 N   0  0  0  0  0  0  0  0  0  0  0  0
    8.9250   11.5200    2.3480 H   0  0  0  0  0  0  0  0  0  0  0  0
    7.9590   10.9580    3.5970 H   0  0  0  0  0  0  0  0  0  0  0  0
    8.8490   12.7620    3.9610 C   0  0  0  0  0  0  0  0  0  0  0  0
    8.6290   13.8140    2.8710 C   0  0  0  0  0  0  0  0  0  0  0  0
    9.7550   14.6930    2.8250 O   0  0  0  0  0  0  0  0  0  0  0  0
    9.5560   15.8480    2.0060 C   0  0  0  0  0  0  0  0  0  0  0  0
  2  1  1  0  0  0  0
  3  2  2  0  0  0  0
  4 16  1  0  0  0  0
  4  3  1  0  0  0  0
  5  4  1  0  0  0  0
  6 13  2  0  0  0  0
  6  5  1  0  0  0  0
  7  6  1  0  0  0  0
  8  7  1  0  0  0  0
  9  7  1  0  0  0  0
  9 10  1  0  0  0  0
 10 14  1  0  0  0  0
 11 10  1  0  0  0  0
 12  9  2  0  0  0  0
 14  5  2  0  0  0  0
 14 15  1  0  0  0  0
 15 16  2  0  0  0  0
 16 17  1  0  0  0  0
 17  2  1  0  0  0  0
 17 18  1  0  0  0  0
 18 19  1  0  0  0  0
 20 22  1  0  0  0  0
 20 19  1  0  0  0  0
 20 23  1  0  0  0  0
 21 20  1  0  0  0  0
 24 23  1  0  0  0  0
 25 24  1  0  0  0  0
 26 25  1  0  0  0  0
M  END
>  <MODEL>
1

>  <REMARK>
 VINA RESULT:      -6.2      0.000      0.000
  Name = ZINC23989706
                            x       y       z     vdW  Elec       q    Type
                         _______ _______ _______ _____ _____    ______ ____

>  <TORSDO>
F 6

>  <vina_score>
-6.2

$$$$
ZINC00399536
 OpenBabel01091701423D

 26 27  0  0  1  0  0  0  0  0999 V2000
    8.3260   11.9970    0.9510 C   0  0  0  0  0  0  0  0  0  0  0  0
    9.5040   11.3700    0.5700 C   0  0  0  0  0  0  0  0  0  0  0  0
   10.7020   11.7480    1.1420 C   0  0  0  0  0  0  0  0  0  0  0  0
   10.7280   12.7430    2.1020 C   0  0  0  0  0  0  0  0  0  0  0  0
    9.5550   13.3650    2.4870 C   0  0  0  0  0  0  0  0  0  0  0  0
    8.3540   12.9930    1.9150 C   0  0  0  0  0  0  0  0  0  0  0  0
    7.1450   11.6290    0.3870 O   0  0  0  0  0  0  0  0  0  0  0  0
    6.9400   11.9940   -0.8910 C   0  0  0  0  0  0  0  0  0  0  0  0
    6.3670   11.2430   -1.6540 O   0  0  0  0  0  0  0  0  0  0  0  0
    7.3740   13.1910   -1.3280 O   0  0  0  0  0  0  0  0  0  0  0  0
    8.3700   13.1870   -2.3830 C   0  0  0  0  0  0  0  0  0  0  0  0
   11.9800   14.9560   -0.9390 C   0  0  0  0  0  0  0  0  0  0  0  0
   10.7560   15.4450   -0.5230 C   0  0  0  0  0  0  0  0  0  0  0  0
    9.5880   14.8730   -0.9900 C   0  0  0  0  0  0  0  0  0  0  0  0
    9.6440   13.8110   -1.8740 C   0  0  0  0  0  0  0  0  0  0  0  0
   10.8680   13.3190   -2.2860 C   0  0  0  0  0  0  0  0  0  0  0  0
   12.0370   13.8950   -1.8230 C   0  0  0  0  0  0  0  0  0  0  0  0
   12.0360   13.1490    2.7300 C   0  0  0  0  0  0  0  0  0  0  0  0
   12.7700   11.9040    3.2310 C   0  0  2  0  0  0  0  0  0  0  0  0
   11.8000   11.0080    3.8860 N   0  0  0  0  0  0  0  0  0  0  0  0
   11.0110   10.8450    3.2600 H   0  0  0  0  0  0  0  0  0  0  0  0
   12.2510   10.1200    4.1040 H   0  0  0  0  0  0  0  0  0  0  0  0
   11.4660   11.4400    4.7470 H   0  0  0  0  0  0  0  0  0  0  0  0
   13.8480   12.3120    4.2020 C   0  0  0  0  0  0  0  0  0  0  0  0
   14.5350   11.3750    4.8740 O   0  0  0  0  0  0  0  0  0  0  0  0
   14.0940   13.4820    4.3750 O   0  0  0  0  0  0  0  0  0  0  0  0
  1  6  1  0  0  0  0
  2  1  2  0  0  0  0
  2  3  1  0  0  0  0
  3  4  2  0  0  0  0
  4  5  1  0  0  0  0
  4 18  1  0  0  0  0
  6  5  2  0  0  0  0
  7  1  1  0  0  0  0
  8  7  1  0  0  0  0
  9  8  2  0  0  0  0
 10  8  1  0  0  0  0
 11 15  1  0  0  0  0
 11 10  1  0  0  0  0
 12 13  1  0  0  0  0
 14 13  2  0  0  0  0
 15 14  1  0  0  0  0
 16 15  2  0  0  0  0
 16 17  1  0  0  0  0
 17 12  2  0  0  0  0
 19 18  1  1  0  0  0
 19 20  1  0  0  0  0
 19 24  1  0  0  0  0
 20 22  1  0  0  0  0
 20 23  1  0  0  0  0
 21 20  1  0  0  0  0
 24 26  2  0  0  0  0
 24 25  1  0  0  0  0
M  END
>  <MODEL>
1

>  <REMARK>
 VINA RESULT:      -6.2      0.000      0.000
  Name = ZINC00399536
                            x       y       z     vdW  Elec       q    Type
                         _______ _______ _______ _____ _____    ______ ____

>  <TORSDO>
F 9

>  <vina_score>
-6.2

$$$$
ZINC27082580
 OpenBabel01091701433D

 26 27  0  0  0  0  0  0  0  0999 V2000
    8.6530   14.1800   -0.4090 N   0  0  0  0  0  0  0  0  0  0  0  0
    8.4970   14.7740    0.3610 H   0  0  0  0  0  0  0  0  0  0  0  0
    9.1200   12.2530    4.3920 C   0  0  0  0  0  0  0  0  0  0  0  0
    8.5260   11.7950    3.0840 C   0  0  0  0  0  0  0  0  0  0  0  0
    8.5950   12.6220    1.9720 C   0  0  0  0  0  0  0  0  0  0  0  0
    9.1920   13.8380    2.0530 O   0  0  0  0  0  0  0  0  0  0  0  0
    8.0410   12.1760    0.7610 C   0  0  0  0  0  0  0  0  0  0  0  0
    8.0920   13.0150   -0.4510 C   0  0  0  0  0  0  0  0  0  0  0  0
    7.4380   10.9120    0.7380 C   0  0  0  0  0  0  0  0  0  0  0  0
    7.4120   10.1620    1.8940 C   0  0  0  0  0  0  0  0  0  0  0  0
    7.9430   10.6150    3.0140 N   0  0  0  0  0  0  0  0  0  0  0  0
    6.8280   10.3800   -0.5330 C   0  0  0  0  0  0  0  0  0  0  0  0
    5.4290   10.6680   -0.5460 O   0  0  0  0  0  0  0  0  0  0  0  0
    5.1950   11.1050   -1.3790 H   0  0  0  0  0  0  0  0  0  0  0  0
    9.5210   14.6160   -1.5050 C   0  0  0  0  0  0  0  0  0  0  0  0
   10.8450   15.1290   -0.9340 C   0  0  0  0  0  0  0  0  0  0  0  0
   11.1390   14.4310    0.3200 N   0  0  0  0  0  0  0  0  0  0  0  0
   10.7060   14.7170    1.1560 H   0  0  0  0  0  0  0  0  0  0  0  0
   12.0050   13.3980    0.3280 C   0  0  0  0  0  0  0  0  0  0  0  0
   12.4740   12.9880   -0.7170 O   0  0  0  0  0  0  0  0  0  0  0  0
   12.3810   12.7660    1.5970 C   0  0  0  0  0  0  0  0  0  0  0  0
   13.0840   13.3580    2.6250 C   0  0  0  0  0  0  0  0  0  0  0  0
   13.2180   12.4010    3.6350 C   0  0  0  0  0  0  0  0  0  0  0  0
   12.6080   11.2660    3.2160 C   0  0  0  0  0  0  0  0  0  0  0  0
   12.0910   11.4760    1.9820 N   0  0  0  0  0  0  0  0  0  0  0  0
   11.3490   10.4940    1.1870 C   0  0  0  0  0  0  0  0  0  0  0  0
  1  2  1  0  0  0  0
  4  3  1  0  0  0  0
  5  6  1  0  0  0  0
  5  4  2  0  0  0  0
  7  5  1  0  0  0  0
  8  1  1  0  0  0  0
  8  7  1  0  0  0  0
  9  7  2  0  0  0  0
  9 10  1  0  0  0  0
 10 11  2  0  0  0  0
 11  4  1  0  0  0  0
 12  9  1  0  0  0  0
 13 12  1  0  0  0  0
 14 13  1  0  0  0  0
 15 16  1  0  0  0  0
 15  1  1  0  0  0  0
 16 17  1  0  0  0  0
 17 19  1  0  0  0  0
 17 18  1  0  0  0  0
 19 21  1  0  0  0  0
 20 19  2  0  0  0  0
 21 25  1  0  0  0  0
 21 22  2  0  0  0  0
 22 23  1  0  0  0  0
 24 23  2  0  0  0  0
 25 24  1  0  0  0  0
 26 25  1  0  0  0  0
M  END
>  <MODEL>
1

>  <REMARK>
 VINA RESULT:      -6.2      0.000      0.000
  Name = ZINC27082580
                            x       y       z     vdW  Elec       q    Type
                         _______ _______ _______ _____ _____    ______ ____

>  <TORSDO>
F 7

>  <vina_score>
-6.2

$$$$
ZINC04226538
 OpenBabel01091701433D

 22 23  0  0  1  0  0  0  0  0999 V2000
   11.6320   15.2660   -1.2040 C   0  0  0  0  0  0  0  0  0  0  0  0
   11.1380   14.1040   -0.3820 C   0  0  0  0  0  0  0  0  0  0  0  0
    9.8580   13.7250   -0.5980 N   0  0  0  0  0  0  0  0  0  0  0  0
    9.2810   14.1800   -1.2540 H   0  0  0  0  0  0  0  0  0  0  0  0
    9.4100   12.6610    0.1580 C   0  0  0  0  0  0  0  0  0  0  0  0
    8.0870   12.2310   -0.0310 C   0  0  0  0  0  0  0  0  0  0  0  0
    7.6030   11.1660    0.7100 C   0  0  1  0  0  0  0  0  0  0  0  0
    8.4240   10.5150    1.6470 C   0  0  0  0  0  0  0  0  0  0  0  0
    9.7070   10.9190    1.8420 C   0  0  0  0  0  0  0  0  0  0  0  0
   10.2240   11.9950    1.1040 C   0  0  0  0  0  0  0  0  0  0  0  0
   11.5580   12.4340    1.2890 C   0  0  0  0  0  0  0  0  0  0  0  0
   11.9980   13.5070    0.5300 C   0  0  0  0  0  0  0  0  0  0  0  0
    6.2110   10.7100    0.5150 C   0  0  0  0  0  0  0  0  0  0  0  0
    5.8340   10.1820   -0.6660 O   0  0  0  0  0  0  0  0  0  0  0  0
    5.4060   10.8100    1.4200 O   0  0  0  0  0  0  0  0  0  0  0  0
   12.3950   11.8150    2.2050 N   0  0  0  0  0  0  0  0  0  0  0  0
   12.8710   10.9900    1.9580 H   0  0  0  0  0  0  0  0  0  0  0  0
   12.5710   12.3910    3.5410 C   0  0  0  0  0  0  0  0  0  0  0  0
   13.9060   13.1370    3.6030 C   0  0  0  0  0  0  0  0  0  0  0  0
   14.7400   12.5960    4.7650 C   0  0  0  0  0  0  0  0  0  0  0  0
   15.7310   13.5580    5.1290 O   0  0  0  0  0  0  0  0  0  0  0  0
   15.3070   14.4180    5.2790 H   0  0  0  0  0  0  0  0  0  0  0  0
  1  2  1  0  0  0  0
  2 12  2  0  0  0  0
  3  2  1  0  0  0  0
  3  5  1  0  0  0  0
  4  3  1  0  0  0  0
  5 10  1  0  0  0  0
  6  5  2  0  0  0  0
  6  7  1  0  0  0  0
  7 13  1  1  0  0  0
  7  8  1  0  0  0  0
  8  9  2  0  0  0  0
 10 11  2  0  0  0  0
 10  9  1  0  0  0  0
 11 16  1  0  0  0  0
 12 11  1  0  0  0  0
 13 15  1  0  0  0  0
 14 13  2  0  0  0  0
 16 18  1  0  0  0  0
 17 16  1  0  0  0  0
 18 19  1  0  0  0  0
 19 20  1  0  0  0  0
 20 21  1  0  0  0  0
 21 22  1  0  0  0  0
M  END
>  <MODEL>
1

>  <REMARK>
 VINA RESULT:      -6.2      0.000      0.000
  Name = ZINC04226538
                            x       y       z     vdW  Elec       q    Type
                         _______ _______ _______ _____ _____    ______ ____

>  <TORSDO>
F 6

>  <vina_score>
-6.2

$$$$
ZINC05996380
 OpenBabel01091701443D

 19 19  0  0  0  0  0  0  0  0999 V2000
   10.9340   14.9070    0.0610 C   0  0  0  0  0  0  0  0  0  0  0  0
   11.6550   13.7900    0.4440 C   0  0  0  0  0  0  0  0  0  0  0  0
   11.3590   13.1450    1.6300 C   0  0  0  0  0  0  0  0  0  0  0  0
   10.3380   13.6170    2.4390 C   0  0  0  0  0  0  0  0  0  0  0  0
    9.6100   14.7380    2.0520 C   0  0  0  0  0  0  0  0  0  0  0  0
    9.9150   15.3830    0.8630 C   0  0  0  0  0  0  0  0  0  0  0  0
    8.6030   15.2020    2.8400 O   0  0  0  0  0  0  0  0  0  0  0  0
    8.5750   16.1070    3.0800 H   0  0  0  0  0  0  0  0  0  0  0  0
   11.2620   15.6060   -1.2320 C   0  0  0  0  0  0  0  0  0  0  0  0
   11.0430   14.6440   -2.4020 C   0  0  0  0  0  0  0  0  0  0  0  0
    8.6980   14.2300   -2.8440 C   0  0  0  0  0  0  0  0  0  0  0  0
    9.8610   15.0770   -3.1700 N   0  0  0  0  0  0  0  0  0  0  0  0
   10.0630   14.9920   -4.1670 H   0  0  0  0  0  0  0  0  0  0  0  0
    9.6460   16.0470   -2.9390 H   0  0  0  0  0  0  0  0  0  0  0  0
   10.0460   12.9850    3.6060 O   0  0  0  0  0  0  0  0  0  0  0  0
    9.1470   11.7670    3.4430 S   0  0  0  0  0  0  0  0  0  0  0  0
    8.6350   11.3980    4.8280 O   0  0  0  0  0  0  0  0  0  0  0  0
    8.0180   12.1940    2.6940 O   0  0  0  0  0  0  0  0  0  0  0  0
    9.9830   10.6990    3.0210 O   0  0  0  0  0  0  0  0  0  0  0  0
  1  2  2  0  0  0  0
  1  6  1  0  0  0  0
  2  3  1  0  0  0  0
  3  4  2  0  0  0  0
  4 15  1  0  0  0  0
  5  4  1  0  0  0  0
  5  7  1  0  0  0  0
  6  5  2  0  0  0  0
  7  8  1  0  0  0  0
  9  1  1  0  0  0  0
 10  9  1  0  0  0  0
 12 14  1  0  0  0  0
 12 11  1  0  0  0  0
 12 10  1  0  0  0  0
 13 12  1  0  0  0  0
 16 15  1  0  0  0  0
 16 17  1  0  0  0  0
 18 16  2  0  0  0  0
 19 16  2  0  0  0  0
M  END
>  <MODEL>
1

>  <REMARK>
 VINA RESULT:      -6.2      0.000      0.000
  Name = ZINC05996380
                            x       y       z     vdW  Elec       q    Type
                         _______ _______ _______ _____ _____    ______ ____

>  <TORSDO>
F 6

>  <vina_score>
-6.2

$$$$
ZINC06509720
 OpenBabel01091701473D

 26 27  0  0  0  0  0  0  0  0999 V2000
    8.6890   13.2510   -0.3540 C   0  0  0  0  0  0  0  0  0  0  0  0
    9.1850   13.5060    0.9360 C   0  0  0  0  0  0  0  0  0  0  0  0
    8.8340   12.6680    1.9560 N   0  0  0  0  0  0  0  0  0  0  0  0
    8.0300   11.6130    1.7460 C   0  0  0  0  0  0  0  0  0  0  0  0
    7.5260   11.3210    0.5360 N   0  0  0  0  0  0  0  0  0  0  0  0
    6.6540   10.1540    0.3790 C   0  0  0  0  0  0  0  0  0  0  0  0
    7.7460   10.8980    2.6870 O   0  0  0  0  0  0  0  0  0  0  0  0
    7.8130   12.0880   -0.5360 C   0  0  0  0  0  0  0  0  0  0  0  0
    7.3540   11.8210   -1.6310 O   0  0  0  0  0  0  0  0  0  0  0  0
    9.9970   14.5730    1.1680 N   0  0  0  0  0  0  0  0  0  0  0  0
    9.8440   15.1470    1.9520 H   0  0  0  0  0  0  0  0  0  0  0  0
   10.7380   14.7700    0.5500 H   0  0  0  0  0  0  0  0  0  0  0  0
    9.0220   14.0900   -1.4400 C   0  0  0  0  0  0  0  0  0  0  0  0
    8.3290   15.0520   -1.7000 O   0  0  0  0  0  0  0  0  0  0  0  0
   10.2410   13.7910   -2.2760 C   0  0  0  0  0  0  0  0  0  0  0  0
   11.9510   15.4070   -1.7070 C   0  0  0  0  0  0  0  0  0  0  0  0
   10.8840   15.0600   -2.6640 N   0  0  0  0  0  0  0  0  0  0  0  0
   10.1820   15.8010   -2.6620 H   0  0  0  0  0  0  0  0  0  0  0  0
   11.2860   14.9630   -3.5970 H   0  0  0  0  0  0  0  0  0  0  0  0
    9.3460   12.9230    3.3050 C   0  0  0  0  0  0  0  0  0  0  0  0
   10.7380   12.3580    3.4280 C   0  0  0  0  0  0  0  0  0  0  0  0
   11.8270   13.2080    3.4780 C   0  0  0  0  0  0  0  0  0  0  0  0
   13.1030   12.6910    3.5960 C   0  0  0  0  0  0  0  0  0  0  0  0
   13.2920   11.3220    3.6530 C   0  0  0  0  0  0  0  0  0  0  0  0
   12.2030   10.4720    3.5970 C   0  0  0  0  0  0  0  0  0  0  0  0
   10.9260   10.9890    3.4850 C   0  0  0  0  0  0  0  0  0  0  0  0
  1  2  2  0  0  0  0
  2 10  1  0  0  0  0
  2  3  1  0  0  0  0
  3 20  1  0  0  0  0
  4  3  1  0  0  0  0
  4  7  2  0  0  0  0
  5  4  1  0  0  0  0
  6  5  1  0  0  0  0
  8  1  1  0  0  0  0
  8  5  1  0  0  0  0
  9  8  2  0  0  0  0
 10 11  1  0  0  0  0
 12 10  1  0  0  0  0
 13  1  1  0  0  0  0
 14 13  2  0  0  0  0
 15 13  1  0  0  0  0
 17 18  1  0  0  0  0
 17 15  1  0  0  0  0
 17 16  1  0  0  0  0
 19 17  1  0  0  0  0
 20 21  1  0  0  0  0
 21 22  2  0  0  0  0
 21 26  1  0  0  0  0
 22 23  1  0  0  0  0
 23 24  2  0  0  0  0
 25 24  1  0  0  0  0
 26 25  2  0  0  0  0
M  END
>  <MODEL>
1

>  <REMARK>
 VINA RESULT:      -6.2      0.000      0.000
  Name = ZINC06509720
                            x       y       z     vdW  Elec       q    Type
                         _______ _______ _______ _____ _____    ______ ____

>  <TORSDO>
F 6

>  <vina_score>
-6.2

$$$$
ZINC24031219
 OpenBabel01091701483D

 25 26  0  0  0  0  0  0  0  0999 V2000
   10.9200   12.3970    1.8910 C   0  0  0  0  0  0  0  0  0  0  0  0
   10.8530   13.5600    1.1510 C   0  0  0  0  0  0  0  0  0  0  0  0
    9.8950   14.4920    1.5120 C   0  0  0  0  0  0  0  0  0  0  0  0
    9.0600   14.1860    2.5920 C   0  0  0  0  0  0  0  0  0  0  0  0
    9.6220   12.6240    3.0930 S   0  0  0  0  0  0  0  0  0  0  0  0
    8.0420   14.9410    3.1310 N   0  0  0  0  0  0  0  0  0  0  0  0
    7.3080   14.5030    3.6170 H   0  0  0  0  0  0  0  0  0  0  0  0
    8.0520   15.9200    3.0290 H   0  0  0  0  0  0  0  0  0  0  0  0
   11.8020   11.2970    1.7370 C   0  0  0  0  0  0  0  0  0  0  0  0
   11.4170   10.2810    1.1880 O   0  0  0  0  0  0  0  0  0  0  0  0
   13.0670   11.3760    2.2000 O   0  0  0  0  0  0  0  0  0  0  0  0
   13.7760   12.8620    3.9680 C   0  0  0  0  0  0  0  0  0  0  0  0
   13.2350   11.4760    3.6150 C   0  0  0  0  0  0  0  0  0  0  0  0
    9.7610   15.7280    0.8020 C   0  0  0  0  0  0  0  0  0  0  0  0
    9.6540   16.7100    0.2400 N   0  0  0  0  0  0  0  0  0  0  0  0
   11.7900   13.8080   -0.0040 C   0  0  0  0  0  0  0  0  0  0  0  0
   11.3600   12.7100   -1.3760 S   0  0  0  0  0  0  0  0  0  0  0  0
    9.6990   13.2210   -1.6690 C   0  0  0  0  0  0  0  0  0  0  0  0
    8.6110   12.5940   -1.2870 N   0  0  0  0  0  0  0  0  0  0  0  0
    7.5730   13.2480   -1.6710 N   0  0  0  0  0  0  0  0  0  0  0  0
    7.9340   14.3240   -2.3100 C   0  0  0  0  0  0  0  0  0  0  0  0
    9.3010   14.3430   -2.3370 N   0  0  0  0  0  0  0  0  0  0  0  0
   10.1030   15.2910   -2.9070 N   0  0  0  0  0  0  0  0  0  0  0  0
   10.2040   16.1730   -2.4790 H   0  0  0  0  0  0  0  0  0  0  0  0
   10.5780   15.0950   -3.7460 H   0  0  0  0  0  0  0  0  0  0  0  0
  1  5  1  0  0  0  0
  2  3  1  0  0  0  0
  2  1  2  0  0  0  0
  3  4  2  0  0  0  0
  4  5  1  0  0  0  0
  4  6  1  0  0  0  0
  6  7  1  0  0  0  0
  8  6  1  0  0  0  0
  9  1  1  0  0  0  0
  9 11  1  0  0  0  0
 10  9  2  0  0  0  0
 11 13  1  0  0  0  0
 13 12  1  0  0  0  0
 14  3  1  0  0  0  0
 15 14  3  0  0  0  0
 16  2  1  0  0  0  0
 17 16  1  0  0  0  0
 18 17  1  0  0  0  0
 18 19  2  0  0  0  0
 20 19  1  0  0  0  0
 21 20  2  0  0  0  0
 22 21  1  0  0  0  0
 22 18  1  0  0  0  0
 23 24  1  0  0  0  0
 23 22  1  0  0  0  0
 25 23  1  0  0  0  0
M  END
>  <MODEL>
1

>  <REMARK>
 VINA RESULT:      -6.2      0.000      0.000
  Name = ZINC24031219
                            x       y       z     vdW  Elec       q    Type
                         _______ _______ _______ _____ _____    ______ ____

>  <TORSDO>
F 9

>  <vina_score>
-6.2

$$$$
ZINC06282102
 OpenBabel01091701503D

 30 31  0  0  0  0  0  0  0  0999 V2000
    8.3900   10.4920    2.2120 C   0  0  0  0  0  0  0  0  0  0  0  0
    7.5490   11.5520    1.5490 C   0  0  0  0  0  0  0  0  0  0  0  0
    6.3480   11.3990    1.4470 O   0  0  0  0  0  0  0  0  0  0  0  0
    8.1550   12.7240    1.0470 C   0  0  0  0  0  0  0  0  0  0  0  0
    8.5880   13.7440    1.9110 C   0  0  0  0  0  0  0  0  0  0  0  0
    9.1730   14.8570    1.3780 N   0  0  0  0  0  0  0  0  0  0  0  0
    9.6340   15.9230    2.2700 C   0  0  0  0  0  0  0  0  0  0  0  0
    9.3300   14.9950    0.0520 C   0  0  0  0  0  0  0  0  0  0  0  0
    8.9310   14.0570   -0.8220 N   0  0  0  0  0  0  0  0  0  0  0  0
    9.1310   14.2730   -2.2570 C   0  0  0  0  0  0  0  0  0  0  0  0
    9.8520   16.0070   -0.3730 O   0  0  0  0  0  0  0  0  0  0  0  0
    8.3460   12.9180   -0.3960 C   0  0  0  0  0  0  0  0  0  0  0  0
    7.9860   12.0690   -1.1910 O   0  0  0  0  0  0  0  0  0  0  0  0
    8.4320   13.6230    3.2570 N   0  0  0  0  0  0  0  0  0  0  0  0
    8.5680   14.4030    3.8410 H   0  0  0  0  0  0  0  0  0  0  0  0
    8.1830   12.7540    3.6470 H   0  0  0  0  0  0  0  0  0  0  0  0
    8.2780   10.6180    3.6540 O   0  0  0  0  0  0  0  0  0  0  0  0
    9.4030   10.8990    4.3310 C   0  0  0  0  0  0  0  0  0  0  0  0
    9.3940   11.7480    5.1910 O   0  0  0  0  0  0  0  0  0  0  0  0
   10.6760   10.1560    4.0190 C   0  0  0  0  0  0  0  0  0  0  0  0
   11.7690   11.0770    3.9820 O   0  0  0  0  0  0  0  0  0  0  0  0
   12.4980   13.9860   -0.7900 C   0  0  0  0  0  0  0  0  0  0  0  0
   12.3030   13.2100    0.4870 C   0  0  0  0  0  0  0  0  0  0  0  0
   11.6830   11.9750    0.4570 C   0  0  0  0  0  0  0  0  0  0  0  0
   11.4970   11.2620    1.6270 C   0  0  0  0  0  0  0  0  0  0  0  0
   11.9450   11.7790    2.8320 C   0  0  0  0  0  0  0  0  0  0  0  0
   12.5750   13.0200    2.8620 C   0  0  0  0  0  0  0  0  0  0  0  0
   12.7530   13.7320    1.6850 C   0  0  0  0  0  0  0  0  0  0  0  0
   13.0160   13.5320    4.0420 O   0  0  0  0  0  0  0  0  0  0  0  0
   14.2710   13.0540    4.5280 C   0  0  0  0  0  0  0  0  0  0  0  0
  1 17  1  0  0  0  0
  2  1  1  0  0  0  0
  3  2  2  0  0  0  0
  4  2  1  0  0  0  0
  4  5  2  0  0  0  0
  5 14  1  0  0  0  0
  6  5  1  0  0  0  0
  6  7  1  0  0  0  0
  8  6  1  0  0  0  0
  9 12  1  0  0  0  0
  9  8  1  0  0  0  0
 10  9  1  0  0  0  0
 11  8  2  0  0  0  0
 12  4  1  0  0  0  0
 13 12  2  0  0  0  0
 14 16  1  0  0  0  0
 14 15  1  0  0  0  0
 17 18  1  0  0  0  0
 18 19  2  0  0  0  0
 20 18  1  0  0  0  0
 21 20  1  0  0  0  0
 22 23  1  0  0  0  0
 23 28  1  0  0  0  0
 24 23  2  0  0  0  0
 24 25  1  0  0  0  0
 25 26  2  0  0  0  0
 26 27  1  0  0  0  0
 26 21  1  0  0  0  0
 27 29  1  0  0  0  0
 28 27  2  0  0  0  0
 29 30  1  0  0  0  0
M  END
>  <MODEL>
1

>  <REMARK>
 VINA RESULT:      -6.2      0.000      0.000
  Name = ZINC06282102
                            x       y       z     vdW  Elec       q    Type
                         _______ _______ _______ _____ _____    ______ ____

>  <TORSDO>
F 9

>  <vina_score>
-6.2

$$$$
ZINC11635230
 OpenBabel01091701493D

 25 26  0  0  0  0  0  0  0  0999 V2000
    9.7320   16.2870    1.7980 C   0  0  0  0  0  0  0  0  0  0  0  0
    9.5640   15.2300    0.7370 C   0  0  0  0  0  0  0  0  0  0  0  0
    9.6790   15.5710   -0.5970 C   0  0  0  0  0  0  0  0  0  0  0  0
    9.5180   14.5990   -1.5740 C   0  0  0  0  0  0  0  0  0  0  0  0
    9.2550   13.2780   -1.2030 C   0  0  0  0  0  0  0  0  0  0  0  0
    9.1530   12.5430   -2.3820 N   0  0  0  0  0  0  0  0  0  0  0  0
    8.9790   11.5760   -2.4440 H   0  0  0  0  0  0  0  0  0  0  0  0
    9.3360   13.3790   -3.4210 C   0  0  0  0  0  0  0  0  0  0  0  0
    9.3090   13.0560   -4.5940 O   0  0  0  0  0  0  0  0  0  0  0  0
    9.1410   12.9470    0.1370 C   0  0  0  0  0  0  0  0  0  0  0  0
    9.5670   14.6260   -2.9640 N   0  0  0  0  0  0  0  0  0  0  0  0
    9.7390   15.4200   -3.5200 H   0  0  0  0  0  0  0  0  0  0  0  0
    9.2960   13.9230    1.1030 C   0  0  0  0  0  0  0  0  0  0  0  0
    9.1520   13.5020    2.8080 S   0  0  0  0  0  0  0  0  0  0  0  0
    7.8520   13.9060    3.2180 O   0  0  0  0  0  0  0  0  0  0  0  0
   10.3320   13.9730    3.4440 O   0  0  0  0  0  0  0  0  0  0  0  0
    9.1870   11.8490    2.9080 N   0  0  0  0  0  0  0  0  0  0  0  0
    9.3950   11.5020    1.9730 H   0  0  0  0  0  0  0  0  0  0  0  0
   10.1240   11.1910    3.8220 C   0  0  0  0  0  0  0  0  0  0  0  0
   11.0780   10.3020    3.0220 C   0  0  0  0  0  0  0  0  0  0  0  0
   12.5130   10.7970    3.2060 C   0  0  0  0  0  0  0  0  0  0  0  0
   12.5360   12.2640    3.0380 N   0  0  0  0  0  0  0  0  0  0  0  0
   11.6370   12.6460    3.3310 H   0  0  0  0  0  0  0  0  0  0  0  0
   12.7630   12.6070    1.6180 C   0  0  0  0  0  0  0  0  0  0  0  0
   13.6030   12.8530    3.8750 C   0  0  0  0  0  0  0  0  0  0  0  0
  2 13  1  0  0  0  0
  2  1  1  0  0  0  0
  3  2  2  0  0  0  0
  4  5  2  0  0  0  0
  4  3  1  0  0  0  0
  5 10  1  0  0  0  0
  6  5  1  0  0  0  0
  7  6  1  0  0  0  0
  8 11  1  0  0  0  0
  8  6  1  0  0  0  0
  9  8  2  0  0  0  0
 10 13  2  0  0  0  0
 11  4  1  0  0  0  0
 12 11  1  0  0  0  0
 13 14  1  0  0  0  0
 14 17  1  0  0  0  0
 14 15  2  0  0  0  0
 14 16  2  0  0  0  0
 17 19  1  0  0  0  0
 18 17  1  0  0  0  0
 20 21  1  0  0  0  0
 20 19  1  0  0  0  0
 22 21  1  0  0  0  0
 22 23  1  0  0  0  0
 22 25  1  0  0  0  0
 24 22  1  0  0  0  0
M  END
>  <MODEL>
1

>  <REMARK>
 VINA RESULT:      -6.2      0.000      0.000
  Name = ZINC11635230
                            x       y       z     vdW  Elec       q    Type
                         _______ _______ _______ _____ _____    ______ ____

>  <TORSDO>
F 6

>  <vina_score>
-6.2

$$$$
ZINC09325686
 OpenBabel01091701263D

 27 28  0  0  1  0  0  0  0  0999 V2000
    9.8060   14.5070   -0.6590 C   0  0  1  0  0  0  0  0  0  0  0  0
    8.6180   14.9720   -1.4000 N   0  0  0  0  0  0  0  0  0  0  0  0
    8.0050   15.4760   -0.7610 H   0  0  0  0  0  0  0  0  0  0  0  0
    8.9140   15.5860   -2.1580 H   0  0  0  0  0  0  0  0  0  0  0  0
    7.8840   13.8230   -1.9630 C   0  0  0  0  0  0  0  0  0  0  0  0
    8.3720   12.5370   -1.2920 C   0  0  0  0  0  0  0  0  0  0  0  0
    7.1700   11.6690   -0.9170 C   0  0  0  0  0  0  0  0  0  0  0  0
    7.3550   11.1360    0.4360 N   0  0  0  0  0  0  0  0  0  0  0  0
    8.4930   11.2160    1.1910 C   0  0  0  0  0  0  0  0  0  0  0  0
    8.2290   10.6040    2.3610 C   0  0  0  0  0  0  0  0  0  0  0  0
    6.9660   10.1540    2.3170 N   0  0  0  0  0  0  0  0  0  0  0  0
    6.4360   10.4690    1.1670 C   0  0  0  0  0  0  0  0  0  0  0  0
   11.0520   14.9070   -1.4040 C   0  0  0  0  0  0  0  0  0  0  0  0
   11.9250   13.9690   -1.8030 O   0  0  0  0  0  0  0  0  0  0  0  0
   11.2670   16.0720   -1.6430 O   0  0  0  0  0  0  0  0  0  0  0  0
    9.8130   15.1500    0.7300 C   0  0  0  0  0  0  0  0  0  0  0  0
   11.6650   13.6100    1.2980 N   0  0  0  0  0  0  0  0  0  0  0  0
   12.0430   13.7840    0.4060 H   0  0  0  0  0  0  0  0  0  0  0  0
   10.5490   14.2550    1.6940 C   0  0  0  0  0  0  0  0  0  0  0  0
   10.1370   14.1150    2.8260 O   0  0  0  0  0  0  0  0  0  0  0  0
   12.5910   10.4440    2.9210 C   0  0  0  0  0  0  0  0  0  0  0  0
   11.9720   11.3450    2.0780 C   0  0  0  0  0  0  0  0  0  0  0  0
   12.2860   12.6960    2.1550 C   0  0  0  0  0  0  0  0  0  0  0  0
   13.2140   13.1370    3.0890 C   0  0  0  0  0  0  0  0  0  0  0  0
   13.8300   12.2300    3.9310 C   0  0  0  0  0  0  0  0  0  0  0  0
   14.9950   12.7800    5.0950 Cl  0  0  0  0  0  0  0  0  0  0  0  0
   13.5190   10.8850    3.8460 C   0  0  0  0  0  0  0  0  0  0  0  0
  1 13  1  6  0  0  0
  1 16  1  0  0  0  0
  2  3  1  0  0  0  0
  2  1  1  0  0  0  0
  4  2  1  0  0  0  0
  5  2  1  0  0  0  0
  5  6  1  0  0  0  0
  6  7  1  0  0  0  0
  7  8  1  0  0  0  0
  8 12  1  0  0  0  0
  8  9  1  0  0  0  0
  9 10  2  0  0  0  0
 11 10  1  0  0  0  0
 12 11  2  0  0  0  0
 14 13  2  0  0  0  0
 15 13  1  0  0  0  0
 16 19  1  0  0  0  0
 17 19  1  0  0  0  0
 17 23  1  0  0  0  0
 18 17  1  0  0  0  0
 19 20  2  0  0  0  0
 21 27  2  0  0  0  0
 22 23  2  0  0  0  0
 22 21  1  0  0  0  0
 23 24  1  0  0  0  0
 24 25  2  0  0  0  0
 25 26  1  0  0  0  0
 27 25  1  0  0  0  0
M  END
>  <MODEL>
1

>  <REMARK>
 VINA RESULT:      -6.2      0.000      0.000
  Name = ZINC09325686
                            x       y       z     vdW  Elec       q    Type
                         _______ _______ _______ _____ _____    ______ ____

>  <TORSDO>
F 9

>  <vina_score>
-6.2

$$$$
ZINC04593373
 OpenBabel01091701263D

 26 27  0  0  0  0  0  0  0  0999 V2000
   10.4120   12.3690    2.7490 C   0  0  0  0  0  0  0  0  0  0  0  0
   10.3620   11.5850    1.4350 C   0  0  0  0  0  0  0  0  0  0  0  0
    9.1230   12.0070    0.6410 C   0  0  0  0  0  0  0  0  0  0  0  0
    9.1430   13.4660    0.4720 N   0  0  0  0  0  0  0  0  0  0  0  0
    9.0390   14.0180   -0.7530 C   0  0  0  0  0  0  0  0  0  0  0  0
    9.0570   15.2240   -0.8790 O   0  0  0  0  0  0  0  0  0  0  0  0
    9.2790   14.3130    1.6650 C   0  0  0  0  0  0  0  0  0  0  0  0
   10.5180   13.8660    2.4480 C   0  0  0  0  0  0  0  0  0  0  0  0
   14.3220   11.1280    3.9560 C   0  0  0  0  0  0  0  0  0  0  0  0
   13.8420   12.5420    4.2940 C   0  0  0  0  0  0  0  0  0  0  0  0
   12.6890   12.9200    3.3620 C   0  0  0  0  0  0  0  0  0  0  0  0
   11.5820   11.9590    3.5530 N   0  0  0  0  0  0  0  0  0  0  0  0
   11.3200   11.9500    4.5390 H   0  0  0  0  0  0  0  0  0  0  0  0
   12.0150   10.6020    3.1610 C   0  0  0  0  0  0  0  0  0  0  0  0
   13.1470   10.1540    4.0860 C   0  0  0  0  0  0  0  0  0  0  0  0
    9.1580   12.1030    3.5400 C   0  0  0  0  0  0  0  0  0  0  0  0
    8.9220   12.7820    4.6790 N   0  0  0  0  0  0  0  0  0  0  0  0
    8.1030   12.6080    5.1960 H   0  0  0  0  0  0  0  0  0  0  0  0
    9.5700   13.4520    4.9960 H   0  0  0  0  0  0  0  0  0  0  0  0
    8.3590   11.2770    3.1510 O   0  0  0  0  0  0  0  0  0  0  0  0
    8.8990   13.1350   -1.9680 C   0  0  0  0  0  0  0  0  0  0  0  0
    9.7540   13.6960   -3.1060 C   0  0  0  0  0  0  0  0  0  0  0  0
   11.1670   13.1160   -3.0150 C   0  0  0  0  0  0  0  0  0  0  0  0
   11.9510   13.8660   -1.9690 C   0  0  0  0  0  0  0  0  0  0  0  0
   12.4350   13.2150   -0.8980 O   0  0  0  0  0  0  0  0  0  0  0  0
   12.1460   15.0520   -2.0940 O   0  0  0  0  0  0  0  0  0  0  0  0
  1 16  1  0  0  0  0
  1 12  1  0  0  0  0
  2  1  1  0  0  0  0
  3  2  1  0  0  0  0
  4  3  1  0  0  0  0
  4  7  1  0  0  0  0
  5  4  1  0  0  0  0
  6  5  2  0  0  0  0
  7  8  1  0  0  0  0
  8  1  1  0  0  0  0
  9 15  1  0  0  0  0
  9 10  1  0  0  0  0
 11 12  1  0  0  0  0
 11 10  1  0  0  0  0
 12 13  1  0  0  0  0
 14 12  1  0  0  0  0
 14 15  1  0  0  0  0
 16 17  1  0  0  0  0
 17 19  1  0  0  0  0
 17 18  1  0  0  0  0
 20 16  2  0  0  0  0
 21  5  1  0  0  0  0
 22 23  1  0  0  0  0
 22 21  1  0  0  0  0
 23 24  1  0  0  0  0
 24 25  1  0  0  0  0
 26 24  2  0  0  0  0
M  END
>  <MODEL>
1

>  <REMARK>
 VINA RESULT:      -6.2      0.000      0.000
  Name = ZINC04593373
                            x       y       z     vdW  Elec       q    Type
                         _______ _______ _______ _____ _____    ______ ____

>  <TORSDO>
F 6

>  <vina_score>
-6.2

$$$$
ZINC27654081
 OpenBabel01091701283D

 27 28  0  0  0  0  0  0  0  0999 V2000
   12.1330   12.4050    1.7250 C   0  0  0  0  0  0  0  0  0  0  0  0
   12.4260   12.7190    0.4970 N   0  0  0  0  0  0  0  0  0  0  0  0
   11.6800   13.7860    0.1140 C   0  0  0  0  0  0  0  0  0  0  0  0
   11.5680   14.5360   -1.0670 C   0  0  0  0  0  0  0  0  0  0  0  0
   12.3250   14.2370   -2.1500 O   0  0  0  0  0  0  0  0  0  0  0  0
   10.7060   15.5440   -1.1000 N   0  0  0  0  0  0  0  0  0  0  0  0
   10.6180   16.0770   -1.9220 H   0  0  0  0  0  0  0  0  0  0  0  0
    9.9610   15.8440   -0.0430 C   0  0  0  0  0  0  0  0  0  0  0  0
   10.0370   15.1660    1.0900 N   0  0  0  0  0  0  0  0  0  0  0  0
   10.8710   14.1400    1.2080 C   0  0  0  0  0  0  0  0  0  0  0  0
   11.1780   13.2520    2.2080 N   0  0  0  0  0  0  0  0  0  0  0  0
    9.0730   16.9030   -0.1320 N   0  0  0  0  0  0  0  0  0  0  0  0
    9.1340   17.6520    0.5050 H   0  0  0  0  0  0  0  0  0  0  0  0
    8.3810   16.9090   -0.8320 H   0  0  0  0  0  0  0  0  0  0  0  0
   10.5890   13.2190    3.5490 C   0  0  0  0  0  0  0  0  0  0  0  0
    9.3500   12.5100    3.5070 O   0  0  0  0  0  0  0  0  0  0  0  0
    9.4660   11.1200    3.8180 C   0  0  0  0  0  0  0  0  0  0  0  0
    8.5650   10.3110    2.8820 C   0  0  0  0  0  0  0  0  0  0  0  0
    7.3470   11.0580    2.6180 O   0  0  0  0  0  0  0  0  0  0  0  0
    6.7440   10.8410    1.4390 C   0  0  0  0  0  0  0  0  0  0  0  0
    5.5370   10.8210    1.3710 O   0  0  0  0  0  0  0  0  0  0  0  0
    7.5710   10.6230    0.1990 C   0  0  0  0  0  0  0  0  0  0  0  0
    8.0740   11.9700   -0.3240 C   0  0  0  0  0  0  0  0  0  0  0  0
    7.7690   13.0190    0.6570 N   0  0  0  0  0  0  0  0  0  0  0  0
    8.6280   13.5060    0.9130 H   0  0  0  0  0  0  0  0  0  0  0  0
    7.1110   13.6840    0.2500 H   0  0  0  0  0  0  0  0  0  0  0  0
    7.3560   12.5980    1.4890 H   0  0  0  0  0  0  0  0  0  0  0  0
  1 11  1  0  0  0  0
  2  1  2  0  0  0  0
  3  2  1  0  0  0  0
  3 10  2  0  0  0  0
  4  3  1  0  0  0  0
  5  4  2  0  0  0  0
  6  4  1  0  0  0  0
  6  8  1  0  0  0  0
  7  6  1  0  0  0  0
  8  9  2  0  0  0  0
  9 10  1  0  0  0  0
 10 11  1  0  0  0  0
 11 15  1  0  0  0  0
 12  8  1  0  0  0  0
 12 13  1  0  0  0  0
 14 12  1  0  0  0  0
 16 15  1  0  0  0  0
 16 17  1  0  0  0  0
 18 17  1  0  0  0  0
 19 18  1  0  0  0  0
 20 19  1  0  0  0  0
 21 20  2  0  0  0  0
 22 20  1  0  0  0  0
 23 22  1  0  0  0  0
 23 24  1  0  0  0  0
 24 25  1  0  0  0  0
 24 27  1  0  0  0  0
 26 24  1  0  0  0  0
M  END
>  <MODEL>
1

>  <REMARK>
 VINA RESULT:      -6.2      0.000      0.000
  Name = ZINC27654081
                            x       y       z     vdW  Elec       q    Type
                         _______ _______ _______ _____ _____    ______ ____

>  <TORSDO>
F 10

>  <vina_score>
-6.2

$$$$
ZINC02538462
 OpenBabel01091701183D

 25 26  0  0  1  0  0  0  0  0999 V2000
    9.2550   12.0410    1.2200 C   0  0  0  0  0  0  0  0  0  0  0  0
    8.2770   11.1130    1.5880 C   0  0  0  0  0  0  0  0  0  0  0  0
    7.2610   10.8360    0.6920 C   0  0  0  0  0  0  0  0  0  0  0  0
    7.2440   11.4540   -0.4790 N   0  0  0  0  0  0  0  0  0  0  0  0
    8.1840   12.3300   -0.8030 C   0  0  0  0  0  0  0  0  0  0  0  0
    9.1780   12.6210    0.0240 N   0  0  0  0  0  0  0  0  0  0  0  0
   12.1920   12.2300    3.3420 N   0  0  0  0  0  0  0  0  0  0  0  0
   11.4070   11.5560    2.4810 C   0  0  0  0  0  0  0  0  0  0  0  0
   11.6390   10.1540    1.9760 C   0  0  0  0  0  0  0  0  0  0  0  0
   10.3640   12.3720    2.1460 C   0  0  0  0  0  0  0  0  0  0  0  0
   10.5330   13.5840    2.8460 C   0  0  0  0  0  0  0  0  0  0  0  0
    9.6150   14.7770    2.7840 C   0  0  0  0  0  0  0  0  0  0  0  0
   11.6250   13.4910    3.5570 N   0  0  0  0  0  0  0  0  0  0  0  0
   14.2900   12.9070    4.4010 C   0  0  0  0  0  0  0  0  0  0  0  0
   13.4250   11.7270    3.9540 C   0  0  0  0  0  0  0  0  0  0  0  0
    8.1150   13.1240   -2.3740 S   0  0  0  0  0  0  0  0  0  0  0  0
    9.8790   13.1850   -2.7730 C   0  0  0  0  0  0  0  0  0  0  0  0
   10.4300   14.5730   -2.4410 C   0  0  1  0  0  0  0  0  0  0  0  0
    9.4520   15.2870   -1.6020 N   0  0  0  0  0  0  0  0  0  0  0  0
    8.6290   14.7000   -1.4660 H   0  0  0  0  0  0  0  0  0  0  0  0
    9.8720   15.4990   -0.6970 H   0  0  0  0  0  0  0  0  0  0  0  0
    9.1780   16.1550   -2.0620 H   0  0  0  0  0  0  0  0  0  0  0  0
   11.7440   14.4320   -1.7160 C   0  0  0  0  0  0  0  0  0  0  0  0
   12.1900   13.2150   -1.3670 O   0  0  0  0  0  0  0  0  0  0  0  0
   12.3970   15.4130   -1.4530 O   0  0  0  0  0  0  0  0  0  0  0  0
  1  2  1  0  0  0  0
  1 10  1  0  0  0  0
  3  2  2  0  0  0  0
  4  3  1  0  0  0  0
  5  4  2  0  0  0  0
  5  6  1  0  0  0  0
  6  1  2  0  0  0  0
  7 13  1  0  0  0  0
  7 15  1  0  0  0  0
  8  7  1  0  0  0  0
  9  8  1  0  0  0  0
 10  8  2  0  0  0  0
 10 11  1  0  0  0  0
 11 13  2  0  0  0  0
 12 11  1  0  0  0  0
 15 14  1  0  0  0  0
 16  5  1  0  0  0  0
 17 16  1  0  0  0  0
 18 17  1  1  0  0  0
 18 23  1  0  0  0  0
 18 19  1  0  0  0  0
 19 20  1  0  0  0  0
 19 21  1  0  0  0  0
 22 19  1  0  0  0  0
 23 25  2  0  0  0  0
 23 24  1  0  0  0  0
M  END
>  <MODEL>
1

>  <REMARK>
 VINA RESULT:      -6.2      0.000      0.000
  Name = ZINC02538462
                            x       y       z     vdW  Elec       q    Type
                         _______ _______ _______ _____ _____    ______ ____

>  <TORSDO>
F 7

>  <vina_score>
-6.2

$$$$
ZINC19752184
 OpenBabel01091701283D

 24 25  0  0  1  0  0  0  0  0999 V2000
    9.7870   13.2140   -1.2300 C   0  0  0  0  0  0  0  0  0  0  0  0
   10.8950   13.5960   -0.6660 N   0  0  0  0  0  0  0  0  0  0  0  0
   10.8370   13.3490    0.6700 C   0  0  0  0  0  0  0  0  0  0  0  0
   11.7310   13.5510    1.7240 C   0  0  0  0  0  0  0  0  0  0  0  0
   11.3750   13.1860    3.0060 C   0  0  0  0  0  0  0  0  0  0  0  0
   10.1250   12.6160    3.2540 C   0  0  0  0  0  0  0  0  0  0  0  0
    9.2330   12.4110    2.2190 C   0  0  0  0  0  0  0  0  0  0  0  0
    9.5810   12.7750    0.9250 C   0  0  0  0  0  0  0  0  0  0  0  0
    8.9370   12.7060   -0.2960 N   0  0  0  0  0  0  0  0  0  0  0  0
   10.7810   13.1590   -3.5010 C   0  0  0  0  0  0  0  0  0  0  0  0
    9.4860   13.3230   -2.7020 C   0  0  2  0  0  0  0  0  0  0  0  0
    8.8980   14.6390   -2.9870 N   0  0  0  0  0  0  0  0  0  0  0  0
    9.5120   15.1570   -3.6150 H   0  0  0  0  0  0  0  0  0  0  0  0
    7.9860   14.5160   -3.4250 H   0  0  0  0  0  0  0  0  0  0  0  0
    8.7890   15.1570   -2.1140 H   0  0  0  0  0  0  0  0  0  0  0  0
   12.2460   13.3820    4.0320 O   0  0  0  0  0  0  0  0  0  0  0  0
   13.5220   12.7480    3.9300 C   0  0  0  0  0  0  0  0  0  0  0  0
    9.7850   12.2590    4.5230 O   0  0  0  0  0  0  0  0  0  0  0  0
    9.5280   10.8730    4.7590 C   0  0  0  0  0  0  0  0  0  0  0  0
    7.5920   12.1770   -0.5400 C   0  0  0  0  0  0  0  0  0  0  0  0
    7.4640   10.7950    0.1030 C   0  0  0  0  0  0  0  0  0  0  0  0
    6.0270   10.5540    0.4910 C   0  0  0  0  0  0  0  0  0  0  0  0
    5.6270   10.7810    1.7520 O   0  0  0  0  0  0  0  0  0  0  0  0
    5.2390   10.1530   -0.3320 O   0  0  0  0  0  0  0  0  0  0  0  0
  1  2  2  0  0  0  0
  1  9  1  0  0  0  0
  2  3  1  0  0  0  0
  3  8  2  0  0  0  0
  3  4  1  0  0  0  0
  4  5  2  0  0  0  0
  5  6  1  0  0  0  0
  5 16  1  0  0  0  0
  6 18  1  0  0  0  0
  7  6  2  0  0  0  0
  8  7  1  0  0  0  0
  9  8  1  0  0  0  0
 11 10  1  6  0  0  0
 11  1  1  0  0  0  0
 12 11  1  0  0  0  0
 12 15  1  0  0  0  0
 13 12  1  0  0  0  0
 14 12  1  0  0  0  0
 17 16  1  0  0  0  0
 18 19  1  0  0  0  0
 20  9  1  0  0  0  0
 20 21  1  0  0  0  0
 21 22  1  0  0  0  0
 22 23  1  0  0  0  0
 24 22  2  0  0  0  0
M  END
>  <MODEL>
1

>  <REMARK>
 VINA RESULT:      -6.2      0.000      0.000
  Name = ZINC19752184
                            x       y       z     vdW  Elec       q    Type
                         _______ _______ _______ _____ _____    ______ ____

>  <TORSDO>
F 7

>  <vina_score>
-6.2

$$$$
ZINC07417784
 OpenBabel01091701313D

 20 21  0  0  0  0  0  0  0  0999 V2000
    8.5290   13.5310    3.2270 C   0  0  0  0  0  0  0  0  0  0  0  0
    9.0970   14.0850    2.0610 C   0  0  0  0  0  0  0  0  0  0  0  0
    9.6200   15.3600    1.7260 C   0  0  0  0  0  0  0  0  0  0  0  0
   10.0980   15.5480    0.4770 N   0  0  0  0  0  0  0  0  0  0  0  0
   10.4670   16.4230    0.2190 H   0  0  0  0  0  0  0  0  0  0  0  0
   10.0740   14.5280   -0.4310 C   0  0  0  0  0  0  0  0  0  0  0  0
    9.5930   13.3410   -0.1340 N   0  0  0  0  0  0  0  0  0  0  0  0
    9.6360   16.2620    2.5440 O   0  0  0  0  0  0  0  0  0  0  0  0
    9.1000   13.0770    1.0820 C   0  0  0  0  0  0  0  0  0  0  0  0
    8.5520   11.9740    1.6590 N   0  0  0  0  0  0  0  0  0  0  0  0
    8.2130   12.2910    2.9800 N   0  0  0  0  0  0  0  0  0  0  0  0
   10.7080   14.8120   -2.0510 S   0  0  0  0  0  0  0  0  0  0  0  0
   10.3470   13.2110   -2.8150 C   0  0  0  0  0  0  0  0  0  0  0  0
    9.3200   13.4000   -3.9330 C   0  0  0  0  0  0  0  0  0  0  0  0
    9.0010   12.1290   -4.5060 O   0  0  0  0  0  0  0  0  0  0  0  0
    9.8000   11.5790   -4.5360 H   0  0  0  0  0  0  0  0  0  0  0  0
    8.3520   10.6760    1.0090 C   0  0  0  0  0  0  0  0  0  0  0  0
    6.8930   10.5450    0.5680 C   0  0  0  0  0  0  0  0  0  0  0  0
    6.0450   11.1670    1.5350 O   0  0  0  0  0  0  0  0  0  0  0  0
    6.5880   11.6470    2.1810 H   0  0  0  0  0  0  0  0  0  0  0  0
  2  1  1  0  0  0  0
  3  2  1  0  0  0  0
  3  8  2  0  0  0  0
  4  3  1  0  0  0  0
  5  4  1  0  0  0  0
  6  7  2  0  0  0  0
  6  4  1  0  0  0  0
  7  9  1  0  0  0  0
  9 10  1  0  0  0  0
  9  2  2  0  0  0  0
 10 11  1  0  0  0  0
 11  1  2  0  0  0  0
 12  6  1  0  0  0  0
 13 12  1  0  0  0  0
 14 13  1  0  0  0  0
 15 14  1  0  0  0  0
 16 15  1  0  0  0  0
 17 10  1  0  0  0  0
 18 17  1  0  0  0  0
 18 19  1  0  0  0  0
 19 20  1  0  0  0  0
M  END
>  <MODEL>
1

>  <REMARK>
 VINA RESULT:      -6.2      0.000      0.000
  Name = ZINC07417784
                            x       y       z     vdW  Elec       q    Type
                         _______ _______ _______ _____ _____    ______ ____

>  <TORSDO>
F 7

>  <vina_score>
-6.2

$$$$
ZINC07873396
 OpenBabel01091701363D

 25 25  0  0  0  0  0  0  0  0999 V2000
    8.5020   11.1540    2.1430 C   0  0  0  0  0  0  0  0  0  0  0  0
    8.8360   11.0720    0.8400 N   0  0  0  0  0  0  0  0  0  0  0  0
    9.4390   10.3580    0.5300 H   0  0  0  0  0  0  0  0  0  0  0  0
    8.3430   11.9670   -0.0390 C   0  0  0  0  0  0  0  0  0  0  0  0
    8.6750   11.8850   -1.3430 N   0  0  0  0  0  0  0  0  0  0  0  0
    9.2780   11.1720   -1.6520 H   0  0  0  0  0  0  0  0  0  0  0  0
    7.5980   12.8480    0.3440 O   0  0  0  0  0  0  0  0  0  0  0  0
    7.7600   12.0330    2.5250 O   0  0  0  0  0  0  0  0  0  0  0  0
    9.0530   10.1540    3.1260 C   0  0  0  0  0  0  0  0  0  0  0  0
   10.7790   10.5640    3.5030 S   0  0  0  0  0  0  0  0  0  0  0  0
   11.8000   13.7630    0.6030 C   0  0  0  0  0  0  0  0  0  0  0  0
   11.9940   12.5250    0.1930 N   0  0  0  0  0  0  0  0  0  0  0  0
   11.7030   11.4720    1.0300 N   0  0  0  0  0  0  0  0  0  0  0  0
   11.2310   11.7070    2.2390 C   0  0  0  0  0  0  0  0  0  0  0  0
   11.1670   13.4920    2.2520 S   0  0  0  0  0  0  0  0  0  0  0  0
   12.0230   14.9590   -0.0690 N   0  0  0  0  0  0  0  0  0  0  0  0
   12.7950   15.5210    0.1690 H   0  0  0  0  0  0  0  0  0  0  0  0
   11.1080   15.3820   -1.1330 C   0  0  0  0  0  0  0  0  0  0  0  0
    9.7650   16.6980    0.5100 C   0  0  0  0  0  0  0  0  0  0  0  0
    9.7110   15.5950   -0.5490 C   0  0  0  0  0  0  0  0  0  0  0  0
    8.1390   12.8580   -2.2980 C   0  0  0  0  0  0  0  0  0  0  0  0
    9.1810   13.1330   -3.3850 C   0  0  0  0  0  0  0  0  0  0  0  0
   10.4630   12.9290   -2.8640 F   0  0  0  0  0  0  0  0  0  0  0  0
    9.0600   14.4560   -3.8220 F   0  0  0  0  0  0  0  0  0  0  0  0
    8.9710   12.2640   -4.4610 F   0  0  0  0  0  0  0  0  0  0  0  0
  1  8  2  0  0  0  0
  1  9  1  0  0  0  0
  2  1  1  0  0  0  0
  3  2  1  0  0  0  0
  4  7  2  0  0  0  0
  4  2  1  0  0  0  0
  5  4  1  0  0  0  0
  6  5  1  0  0  0  0
  9 10  1  0  0  0  0
 11 15  1  0  0  0  0
 12 11  2  0  0  0  0
 12 13  1  0  0  0  0
 13 14  2  0  0  0  0
 14 15  1  0  0  0  0
 14 10  1  0  0  0  0
 16 17  1  0  0  0  0
 16 11  1  0  0  0  0
 18 20  1  0  0  0  0
 18 16  1  0  0  0  0
 20 19  1  0  0  0  0
 21  5  1  0  0  0  0
 22 23  1  0  0  0  0
 22 21  1  0  0  0  0
 24 22  1  0  0  0  0
 25 22  1  0  0  0  0
M  END
>  <MODEL>
1

>  <REMARK>
 VINA RESULT:      -6.1      0.000      0.000
  Name = ZINC07873396
                            x       y       z     vdW  Elec       q    Type
                         _______ _______ _______ _____ _____    ______ ____

>  <TORSDO>
F 8

>  <vina_score>
-6.1

$$$$
ZINC06086015
 OpenBabel01091701373D

 29 30  0  0  0  0  0  0  0  0999 V2000
    9.8940   15.8030    0.7590 C   0  0  0  0  0  0  0  0  0  0  0  0
    9.6950   16.8690    1.3040 O   0  0  0  0  0  0  0  0  0  0  0  0
   11.0090   12.7310    2.3110 C   0  0  0  0  0  0  0  0  0  0  0  0
   11.1150   13.7000    1.2900 C   0  0  0  0  0  0  0  0  0  0  0  0
   12.1000   13.6990    0.1500 C   0  0  0  0  0  0  0  0  0  0  0  0
   10.1450   14.6470    1.5360 C   0  0  0  0  0  0  0  0  0  0  0  0
    9.4570   14.2690    2.6720 N   0  0  0  0  0  0  0  0  0  0  0  0
    8.7070   14.7630    3.0750 H   0  0  0  0  0  0  0  0  0  0  0  0
    9.9710   13.1220    3.1390 C   0  0  0  0  0  0  0  0  0  0  0  0
    9.4970   12.3800    4.3630 C   0  0  0  0  0  0  0  0  0  0  0  0
   11.8430   11.5270    2.4630 C   0  0  0  0  0  0  0  0  0  0  0  0
   11.5190   10.4900    1.9170 O   0  0  0  0  0  0  0  0  0  0  0  0
   12.9650   11.5740    3.2080 O   0  0  0  0  0  0  0  0  0  0  0  0
   14.4010   12.8540    4.7000 C   0  0  0  0  0  0  0  0  0  0  0  0
   13.5600   12.8800    3.4230 C   0  0  0  0  0  0  0  0  0  0  0  0
    9.8720   15.7100   -0.7450 C   0  0  0  0  0  0  0  0  0  0  0  0
    8.6130   15.0690   -1.1720 N   0  0  0  0  0  0  0  0  0  0  0  0
    8.2030   14.5820   -0.3750 H   0  0  0  0  0  0  0  0  0  0  0  0
    7.9710   15.7830   -1.5140 H   0  0  0  0  0  0  0  0  0  0  0  0
    8.8750   14.0930   -2.2470 C   0  0  0  0  0  0  0  0  0  0  0  0
    8.0990   12.8070   -1.9560 C   0  0  0  0  0  0  0  0  0  0  0  0
    8.6760   12.1340   -0.7100 C   0  0  0  0  0  0  0  0  0  0  0  0
    7.7140   11.1200   -0.2250 N   0  0  0  0  0  0  0  0  0  0  0  0
    8.0970   10.1920   -0.3980 H   0  0  0  0  0  0  0  0  0  0  0  0
    7.4930   11.2880    1.2270 C   0  0  0  0  0  0  0  0  0  0  0  0
    6.5220   10.2040    1.7030 C   0  0  0  0  0  0  0  0  0  0  0  0
    5.3020   10.3050    0.9640 O   0  0  0  0  0  0  0  0  0  0  0  0
    5.4710   10.1710   -0.4490 C   0  0  0  0  0  0  0  0  0  0  0  0
    6.4310   11.2540   -0.9470 C   0  0  0  0  0  0  0  0  0  0  0  0
  1  2  2  0  0  0  0
  1  6  1  0  0  0  0
  3 11  1  0  0  0  0
  3  9  2  0  0  0  0
  4  6  2  0  0  0  0
  4  3  1  0  0  0  0
  5  4  1  0  0  0  0
  6  7  1  0  0  0  0
  7  8  1  0  0  0  0
  7  9  1  0  0  0  0
  9 10  1  0  0  0  0
 11 13  1  0  0  0  0
 12 11  2  0  0  0  0
 13 15  1  0  0  0  0
 15 14  1  0  0  0  0
 16  1  1  0  0  0  0
 17 16  1  0  0  0  0
 17 18  1  0  0  0  0
 19 17  1  0  0  0  0
 20 21  1  0  0  0  0
 20 17  1  0  0  0  0
 21 22  1  0  0  0  0
 22 23  1  0  0  0  0
 23 25  1  0  0  0  0
 24 23  1  0  0  0  0
 25 26  1  0  0  0  0
 27 26  1  0  0  0  0
 28 27  1  0  0  0  0
 29 28  1  0  0  0  0
 29 23  1  0  0  0  0
M  END
>  <MODEL>
1

>  <REMARK>
 VINA RESULT:      -6.1      0.000      0.000
  Name = ZINC06086015
                            x       y       z     vdW  Elec       q    Type
                         _______ _______ _______ _____ _____    ______ ____

>  <TORSDO>
F 10

>  <vina_score>
-6.1

$$$$
ZINC05116227
 OpenBabel01091701363D

 22 22  0  0  0  0  0  0  0  0999 V2000
    9.9650   14.3180   -1.1340 N   0  0  0  0  0  0  0  0  0  0  0  0
   11.3600   11.2500    2.4450 C   0  0  0  0  0  0  0  0  0  0  0  0
   10.7780   12.5640    1.9950 C   0  0  0  0  0  0  0  0  0  0  0  0
   10.6400   12.8330    0.6470 C   0  0  0  0  0  0  0  0  0  0  0  0
   10.1030   14.0450    0.2330 C   0  0  0  0  0  0  0  0  0  0  0  0
    9.7090   14.9880    1.1730 C   0  0  0  0  0  0  0  0  0  0  0  0
    9.8420   14.7170    2.5200 C   0  0  0  0  0  0  0  0  0  0  0  0
   10.3790   13.5050    2.9350 C   0  0  0  0  0  0  0  0  0  0  0  0
   10.5170   13.2320    4.3000 N   0  0  0  0  0  0  0  0  0  0  0  0
   10.3830   13.9480    4.9620 H   0  0  0  0  0  0  0  0  0  0  0  0
   10.7510   12.3230    4.6000 H   0  0  0  0  0  0  0  0  0  0  0  0
   11.1390   14.6790   -1.9320 C   0  0  0  0  0  0  0  0  0  0  0  0
   12.2780   15.1000   -1.0020 C   0  0  0  0  0  0  0  0  0  0  0  0
   11.5810   13.4730   -2.7640 C   0  0  0  0  0  0  0  0  0  0  0  0
    8.6450   14.2400   -1.7650 C   0  0  0  0  0  0  0  0  0  0  0  0
    8.2810   12.7740   -2.0080 C   0  0  0  0  0  0  0  0  0  0  0  0
    7.1380   12.3700   -1.0750 C   0  0  0  0  0  0  0  0  0  0  0  0
    7.4840   11.0490   -0.3860 C   0  0  0  0  0  0  0  0  0  0  0  0
    7.1550   11.1900    1.3920 S   0  0  0  0  0  0  0  0  0  0  0  0
    5.6810   10.8380    1.5460 O   0  0  0  0  0  0  0  0  0  0  0  0
    7.2480   12.5480    1.8020 O   0  0  0  0  0  0  0  0  0  0  0  0
    7.8460   10.1710    2.1010 O   0  0  0  0  0  0  0  0  0  0  0  0
  1  5  1  0  0  0  0
  3  2  1  0  0  0  0
  3  8  2  0  0  0  0
  4  3  1  0  0  0  0
  5  4  2  0  0  0  0
  5  6  1  0  0  0  0
  6  7  2  0  0  0  0
  7  8  1  0  0  0  0
  8  9  1  0  0  0  0
  9 11  1  0  0  0  0
  9 10  1  0  0  0  0
 12  1  1  0  0  0  0
 12 13  1  0  0  0  0
 14 12  1  0  0  0  0
 15  1  1  0  0  0  0
 16 15  1  0  0  0  0
 16 17  1  0  0  0  0
 17 18  1  0  0  0  0
 18 19  1  0  0  0  0
 19 20  2  0  0  0  0
 19 21  2  0  0  0  0
 19 22  1  0  0  0  0
M  END
>  <MODEL>
1

>  <REMARK>
 VINA RESULT:      -6.1      0.000      0.000
  Name = ZINC05116227
                            x       y       z     vdW  Elec       q    Type
                         _______ _______ _______ _____ _____    ______ ____

>  <TORSDO>
F 8

>  <vina_score>
-6.1

$$$$
ZINC05499507
 OpenBabel01091701383D

 25 26  0  0  1  0  0  0  0  0999 V2000
   10.0470   14.2250    2.0600 C   0  0  0  0  0  0  0  0  0  0  0  0
   10.5520   13.8750    0.7310 N   0  0  0  0  0  0  0  0  0  0  0  0
   11.7840   13.3660    0.4440 C   0  0  0  0  0  0  0  0  0  0  0  0
   11.8980   13.1740   -0.8370 N   0  0  0  0  0  0  0  0  0  0  0  0
   10.7500   13.5460   -1.4540 C   0  0  0  0  0  0  0  0  0  0  0  0
   10.3050   13.5630   -2.7860 C   0  0  0  0  0  0  0  0  0  0  0  0
    9.0770   14.0080   -3.0370 N   0  0  0  0  0  0  0  0  0  0  0  0
    8.2890   14.4260   -2.0640 C   0  0  0  0  0  0  0  0  0  0  0  0
    8.6650   14.4280   -0.8020 N   0  0  0  0  0  0  0  0  0  0  0  0
    9.8740   14.0010   -0.4540 C   0  0  0  0  0  0  0  0  0  0  0  0
   11.1250   13.1280   -3.8120 N   0  0  0  0  0  0  0  0  0  0  0  0
   11.1820   13.6430   -4.6490 H   0  0  0  0  0  0  0  0  0  0  0  0
   11.6510   12.3020   -3.7070 H   0  0  0  0  0  0  0  0  0  0  0  0
    8.7140   13.5120    2.3040 C   0  0  2  0  0  0  0  0  0  0  0  0
    7.8190   14.3970    2.9810 O   0  0  0  0  0  0  0  0  0  0  0  0
    7.4200   15.0050    2.3400 H   0  0  0  0  0  0  0  0  0  0  0  0
    8.9510   12.2680    3.1630 C   0  0  0  0  0  0  0  0  0  0  0  0
    8.5760   11.0740    2.3760 N   0  0  0  0  0  0  0  0  0  0  0  0
    8.1300   10.3960    2.9940 H   0  0  0  0  0  0  0  0  0  0  0  0
   10.8990   10.4630    2.8280 C   0  0  0  0  0  0  0  0  0  0  0  0
    9.7820   10.4620    1.7820 C   0  0  0  0  0  0  0  0  0  0  0  0
    7.6230   11.4500    1.3110 C   0  0  0  0  0  0  0  0  0  0  0  0
    6.5390   10.3740    1.2160 C   0  0  0  0  0  0  0  0  0  0  0  0
    5.2750   10.9410    1.5680 O   0  0  0  0  0  0  0  0  0  0  0  0
    4.7930   11.1830    0.7620 H   0  0  0  0  0  0  0  0  0  0  0  0
  2  1  1  0  0  0  0
  3  2  1  0  0  0  0
  4  3  2  0  0  0  0
  5  4  1  0  0  0  0
  5 10  2  0  0  0  0
  6  5  1  0  0  0  0
  7  6  2  0  0  0  0
  7  8  1  0  0  0  0
  8  9  2  0  0  0  0
  9 10  1  0  0  0  0
 10  2  1  0  0  0  0
 11 13  1  0  0  0  0
 11  6  1  0  0  0  0
 12 11  1  0  0  0  0
 14  1  1  1  0  0  0
 14 15  1  0  0  0  0
 14 17  1  0  0  0  0
 16 15  1  0  0  0  0
 18 19  1  0  0  0  0
 18 17  1  0  0  0  0
 21 18  1  0  0  0  0
 21 20  1  0  0  0  0
 22 18  1  0  0  0  0
 23 22  1  0  0  0  0
 23 24  1  0  0  0  0
 25 24  1  0  0  0  0
M  END
>  <MODEL>
1

>  <REMARK>
 VINA RESULT:      -6.1      0.000      0.000
  Name = ZINC05499507
                            x       y       z     vdW  Elec       q    Type
                         _______ _______ _______ _____ _____    ______ ____

>  <TORSDO>
F 10

>  <vina_score>
-6.1

$$$$
ZINC05840091
 OpenBabel01091701373D

 26 28  0  0  1  0  0  0  0  0999 V2000
    8.7220   13.2170   -0.9850 C   0  0  0  0  0  0  0  0  0  0  0  0
    9.4460   12.4710   -0.0770 C   0  0  0  0  0  0  0  0  0  0  0  0
    8.9240   11.2850    0.4200 C   0  0  0  0  0  0  0  0  0  0  0  0
    7.6710   10.8490    0.0040 C   0  0  0  0  0  0  0  0  0  0  0  0
    6.9490   11.5970   -0.9040 C   0  0  0  0  0  0  0  0  0  0  0  0
    7.4690   12.7850   -1.3960 C   0  0  0  0  0  0  0  0  0  0  0  0
    9.6570   10.5280    1.3410 N   0  0  0  0  0  0  0  0  0  0  0  0
    9.9180    9.6040    1.1230 H   0  0  0  0  0  0  0  0  0  0  0  0
   10.0090   11.0650    2.5280 C   0  0  0  0  0  0  0  0  0  0  0  0
    9.0990   11.4130    3.4210 N   0  0  0  0  0  0  0  0  0  0  0  0
    9.3890   11.9860    4.5840 C   0  0  0  0  0  0  0  0  0  0  0  0
   10.5670   12.5550    4.8250 N   0  0  0  0  0  0  0  0  0  0  0  0
   11.4500   12.4970    3.8310 C   0  0  2  0  0  0  0  0  0  0  0  0
   12.4010   13.2600    3.3930 N   0  0  0  0  0  0  0  0  0  0  0  0
   12.7950   12.8960    2.1650 C   0  0  0  0  0  0  0  0  0  0  0  0
   12.2700   11.7690    1.7740 N   0  0  0  0  0  0  0  0  0  0  0  0
   11.4560   11.2840    2.8900 C   0  0  2  0  0  0  0  0  0  0  0  0
    6.7530   13.5230   -2.2850 O   0  0  0  0  0  0  0  0  0  0  0  0
    5.8240   13.4160   -2.3420 H   0  0  0  0  0  0  0  0  0  0  0  0
    9.2880   14.5050   -1.5240 C   0  0  0  0  0  0  0  0  0  0  0  0
   10.3100   15.0040   -0.5800 N   0  0  0  0  0  0  0  0  0  0  0  0
   10.5630   14.2530    0.0620 H   0  0  0  0  0  0  0  0  0  0  0  0
    9.6540   15.7200    1.6660 C   0  0  0  0  0  0  0  0  0  0  0  0
    9.7680   16.1380    0.1980 C   0  0  0  0  0  0  0  0  0  0  0  0
   11.5170   15.4300   -1.3190 C   0  0  0  0  0  0  0  0  0  0  0  0
   12.3560   14.1920   -1.6450 C   0  0  0  0  0  0  0  0  0  0  0  0
  1  2  1  0  0  0  0
  2  3  2  0  0  0  0
  3  7  1  0  0  0  0
  4  3  1  0  0  0  0
  5  4  2  0  0  0  0
  6  1  2  0  0  0  0
  6  5  1  0  0  0  0
  7  9  1  0  0  0  0
  8  7  1  0  0  0  0
  9 17  1  0  0  0  0
  9 10  2  0  0  0  0
 10 11  1  0  0  0  0
 11 12  2  0  0  0  0
 13 14  1  6  0  0  0
 13 12  1  0  0  0  0
 15 14  1  0  0  0  0
 16 15  1  0  0  0  0
 17 16  1  6  0  0  0
 17 13  1  0  0  0  0
 18  6  1  0  0  0  0
 19 18  1  0  0  0  0
 20  1  1  0  0  0  0
 20 21  1  0  0  0  0
 21 22  1  0  0  0  0
 21 24  1  0  0  0  0
 24 23  1  0  0  0  0
 25 21  1  0  0  0  0
 26 25  1  0  0  0  0
M  END
>  <MODEL>
1

>  <REMARK>
 VINA RESULT:      -6.1      0.000      0.000
  Name = ZINC05840091
                            x       y       z     vdW  Elec       q    Type
                         _______ _______ _______ _____ _____    ______ ____

>  <TORSDO>
F 7

>  <vina_score>
-6.1

$$$$
ZINC20843215
 OpenBabel01091701373D

 21 21  0  0  0  0  0  0  0  0999 V2000
   10.2970   14.0650    2.2030 S   0  0  0  0  0  0  0  0  0  0  0  0
    7.7840   11.3770    0.9110 C   0  0  0  0  0  0  0  0  0  0  0  0
    7.0840   12.0090    1.8090 N   0  0  0  0  0  0  0  0  0  0  0  0
    7.7860   12.9460    2.3370 N   0  0  0  0  0  0  0  0  0  0  0  0
    8.9850   12.9600    1.8030 C   0  0  0  0  0  0  0  0  0  0  0  0
    9.0220   11.9560    0.8790 N   0  0  0  0  0  0  0  0  0  0  0  0
   10.0760   11.6070    0.0820 N   0  0  0  0  0  0  0  0  0  0  0  0
   10.9880   11.5900    0.4510 H   0  0  0  0  0  0  0  0  0  0  0  0
    9.9220   11.3720   -0.8620 H   0  0  0  0  0  0  0  0  0  0  0  0
    5.7890   10.1530    0.0920 C   0  0  0  0  0  0  0  0  0  0  0  0
    7.3170   10.2200    0.0650 C   0  0  0  0  0  0  0  0  0  0  0  0
    9.7900   15.5160    1.2470 C   0  0  0  0  0  0  0  0  0  0  0  0
   10.0850   15.2840   -0.2130 C   0  0  0  0  0  0  0  0  0  0  0  0
    9.0760   15.0650   -1.0780 N   0  0  0  0  0  0  0  0  0  0  0  0
    8.1450   15.0560   -0.7570 H   0  0  0  0  0  0  0  0  0  0  0  0
   11.2310   15.2960   -0.6080 O   0  0  0  0  0  0  0  0  0  0  0  0
    9.3500   14.8490   -2.4350 N   0  0  0  0  0  0  0  0  0  0  0  0
    9.7760   15.5570   -2.9700 H   0  0  0  0  0  0  0  0  0  0  0  0
    9.0300   13.6720   -3.0080 C   0  0  0  0  0  0  0  0  0  0  0  0
    9.3240   13.4400   -4.4680 C   0  0  0  0  0  0  0  0  0  0  0  0
    8.5060   12.8000   -2.3490 O   0  0  0  0  0  0  0  0  0  0  0  0
  2  3  2  0  0  0  0
  3  4  1  0  0  0  0
  5  1  1  0  0  0  0
  5  4  2  0  0  0  0
  6  2  1  0  0  0  0
  6  5  1  0  0  0  0
  7  8  1  0  0  0  0
  7  6  1  0  0  0  0
  9  7  1  0  0  0  0
 11 10  1  0  0  0  0
 11  2  1  0  0  0  0
 12  1  1  0  0  0  0
 13 12  1  0  0  0  0
 14 15  1  0  0  0  0
 14 13  1  0  0  0  0
 16 13  2  0  0  0  0
 17 14  1  0  0  0  0
 18 17  1  0  0  0  0
 19 17  1  0  0  0  0
 19 21  2  0  0  0  0
 20 19  1  0  0  0  0
M  END
>  <MODEL>
1

>  <REMARK>
 VINA RESULT:      -6.1      0.000      0.000
  Name = ZINC20843215
                            x       y       z     vdW  Elec       q    Type
                         _______ _______ _______ _____ _____    ______ ____

>  <TORSDO>
F 6

>  <vina_score>
-6.1

$$$$
ZINC20407276
 OpenBabel01091701383D

 23 24  0  0  0  0  0  0  0  0999 V2000
    8.9320   13.8130    1.2860 C   0  0  0  0  0  0  0  0  0  0  0  0
    9.5390   14.0600    0.0860 N   0  0  0  0  0  0  0  0  0  0  0  0
    8.8770   13.3530   -0.8770 C   0  0  0  0  0  0  0  0  0  0  0  0
    7.9010   12.6960   -0.2980 N   0  0  0  0  0  0  0  0  0  0  0  0
    7.9390   12.9840    1.0730 N   0  0  0  0  0  0  0  0  0  0  0  0
    7.3270   12.6240    1.7560 H   0  0  0  0  0  0  0  0  0  0  0  0
    9.3030   14.3410    2.5130 N   0  0  0  0  0  0  0  0  0  0  0  0
    8.7250   15.0010    2.9610 H   0  0  0  0  0  0  0  0  0  0  0  0
   11.0670   12.8220    2.7580 C   0  0  0  0  0  0  0  0  0  0  0  0
   10.5010   13.9370    3.1170 N   0  0  0  0  0  0  0  0  0  0  0  0
   15.4460   13.0070    5.1850 C   0  0  0  0  0  0  0  0  0  0  0  0
   14.2410   12.4720    4.4550 C   0  0  0  0  0  0  0  0  0  0  0  0
   14.0110   11.1770    4.1630 C   0  0  0  0  0  0  0  0  0  0  0  0
   12.7810   11.1180    3.4810 C   0  0  0  0  0  0  0  0  0  0  0  0
   12.3200   12.3990    3.3920 C   0  0  0  0  0  0  0  0  0  0  0  0
   13.2180   13.2080    3.9890 O   0  0  0  0  0  0  0  0  0  0  0  0
    9.2660   13.3280   -2.5950 S   0  0  0  0  0  0  0  0  0  0  0  0
   11.0780   13.2700   -2.6340 C   0  0  0  0  0  0  0  0  0  0  0  0
   11.6340   14.5820   -2.1440 C   0  0  0  0  0  0  0  0  0  0  0  0
   10.9790   15.7300   -2.4030 N   0  0  0  0  0  0  0  0  0  0  0  0
   11.3420   16.5880   -2.0830 H   0  0  0  0  0  0  0  0  0  0  0  0
   10.1360   15.7130   -2.9140 H   0  0  0  0  0  0  0  0  0  0  0  0
   12.6710   14.6040   -1.5160 O   0  0  0  0  0  0  0  0  0  0  0  0
  1  7  1  0  0  0  0
  2  1  2  0  0  0  0
  3  4  2  0  0  0  0
  3  2  1  0  0  0  0
  4  5  1  0  0  0  0
  5  1  1  0  0  0  0
  5  6  1  0  0  0  0
  7  8  1  0  0  0  0
  7 10  1  0  0  0  0
  9 10  2  0  0  0  0
  9 15  1  0  0  0  0
 12 11  1  0  0  0  0
 13 12  2  0  0  0  0
 14 13  1  0  0  0  0
 15 14  2  0  0  0  0
 15 16  1  0  0  0  0
 16 12  1  0  0  0  0
 17  3  1  0  0  0  0
 18 17  1  0  0  0  0
 18 19  1  0  0  0  0
 19 23  2  0  0  0  0
 20 19  1  0  0  0  0
 20 21  1  0  0  0  0
 22 20  1  0  0  0  0
M  END
>  <MODEL>
1

>  <REMARK>
 VINA RESULT:      -6.1      0.000      0.000
  Name = ZINC20407276
                            x       y       z     vdW  Elec       q    Type
                         _______ _______ _______ _____ _____    ______ ____

>  <TORSDO>
F 6

>  <vina_score>
-6.1

$$$$
ZINC19751959
 OpenBabel01091701403D

 23 24  0  0  1  0  0  0  0  0999 V2000
    9.5220   13.4160   -0.3790 N   0  0  0  0  0  0  0  0  0  0  0  0
    9.8270   13.1670    0.9460 C   0  0  0  0  0  0  0  0  0  0  0  0
   10.9040   13.4840    1.7620 C   0  0  0  0  0  0  0  0  0  0  0  0
   10.9100   13.0780    3.0820 C   0  0  0  0  0  0  0  0  0  0  0  0
    9.8360   12.3500    3.6000 C   0  0  0  0  0  0  0  0  0  0  0  0
    8.7600   12.0300    2.7990 C   0  0  0  0  0  0  0  0  0  0  0  0
    8.7450   12.4360    1.4610 C   0  0  0  0  0  0  0  0  0  0  0  0
    7.8540   12.2790    0.4470 N   0  0  0  0  0  0  0  0  0  0  0  0
    8.3090   12.8520   -0.6280 C   0  0  0  0  0  0  0  0  0  0  0  0
   11.5860   13.3170   -1.6890 C   0  0  0  0  0  0  0  0  0  0  0  0
   10.3510   14.1510   -1.3380 C   0  0  2  0  0  0  0  0  0  0  0  0
   10.7860   15.4590   -0.7280 C   0  0  0  0  0  0  0  0  0  0  0  0
    9.8860   16.2470   -0.1190 O   0  0  0  0  0  0  0  0  0  0  0  0
   11.9440   15.7980   -0.7870 O   0  0  0  0  0  0  0  0  0  0  0  0
   11.9650   13.3870    3.8820 O   0  0  0  0  0  0  0  0  0  0  0  0
   13.2320   12.8280    3.5290 C   0  0  0  0  0  0  0  0  0  0  0  0
    9.8490   11.9590    4.9030 O   0  0  0  0  0  0  0  0  0  0  0  0
    9.8280   10.5540    5.1600 C   0  0  0  0  0  0  0  0  0  0  0  0
    7.5960   12.8860   -1.9560 C   0  0  0  0  0  0  0  0  0  0  0  0
    6.5400   11.8660   -1.9710 N   0  0  0  0  0  0  0  0  0  0  0  0
    5.8600   12.0690   -1.2380 H   0  0  0  0  0  0  0  0  0  0  0  0
    6.0730   11.8730   -2.8790 H   0  0  0  0  0  0  0  0  0  0  0  0
    6.9520   10.9470   -1.8070 H   0  0  0  0  0  0  0  0  0  0  0  0
  1  2  1  0  0  0  0
  2  7  2  0  0  0  0
  2  3  1  0  0  0  0
  3  4  2  0  0  0  0
  4  5  1  0  0  0  0
  4 15  1  0  0  0  0
  5 17  1  0  0  0  0
  6  5  2  0  0  0  0
  7  6  1  0  0  0  0
  8  7  1  0  0  0  0
  9  1  1  0  0  0  0
  9  8  2  0  0  0  0
 11 10  1  1  0  0  0
 11 12  1  0  0  0  0
 11  1  1  0  0  0  0
 12 13  1  0  0  0  0
 14 12  2  0  0  0  0
 16 15  1  0  0  0  0
 17 18  1  0  0  0  0
 19  9  1  0  0  0  0
 20 19  1  0  0  0  0
 20 23  1  0  0  0  0
 20 21  1  0  0  0  0
 22 20  1  0  0  0  0
M  END
>  <MODEL>
1

>  <REMARK>
 VINA RESULT:      -6.1      0.000      0.000
  Name = ZINC19751959
                            x       y       z     vdW  Elec       q    Type
                         _______ _______ _______ _____ _____    ______ ____

>  <TORSDO>
F 6

>  <vina_score>
-6.1

$$$$
ZINC29477247
 OpenBabel01091701443D

 26 26  0  0  1  0  0  0  0  0999 V2000
   10.1710   13.1830    2.4580 C   0  0  0  0  0  0  0  0  0  0  0  0
    9.1240   12.3410    2.5900 C   0  0  0  0  0  0  0  0  0  0  0  0
    9.1430   11.3320    3.5110 N   0  0  0  0  0  0  0  0  0  0  0  0
    8.3570   10.7420    3.5710 H   0  0  0  0  0  0  0  0  0  0  0  0
   10.1710   11.0990    4.3370 C   0  0  0  0  0  0  0  0  0  0  0  0
   11.2860   11.8560    4.3240 N   0  0  0  0  0  0  0  0  0  0  0  0
   12.0310   11.6680    4.9410 H   0  0  0  0  0  0  0  0  0  0  0  0
   10.0960   10.1760    5.1250 O   0  0  0  0  0  0  0  0  0  0  0  0
   11.3660   12.9710    3.3650 C   0  0  1  0  0  0  0  0  0  0  0  0
   12.5950   12.7470    2.4810 C   0  0  0  0  0  0  0  0  0  0  0  0
   10.1550   14.2240    1.5010 C   0  0  0  0  0  0  0  0  0  0  0  0
    9.7660   15.3330    1.8140 O   0  0  0  0  0  0  0  0  0  0  0  0
   10.5720   13.9870    0.2390 O   0  0  0  0  0  0  0  0  0  0  0  0
   12.3280   14.3590   -1.3780 C   0  0  0  0  0  0  0  0  0  0  0  0
   11.3590   15.0020   -0.3860 C   0  0  0  0  0  0  0  0  0  0  0  0
    7.9150   12.5160    1.7080 C   0  0  0  0  0  0  0  0  0  0  0  0
    7.9340   11.2640    0.4020 S   0  0  0  0  0  0  0  0  0  0  0  0
    7.5200   12.2650   -0.9880 C   0  0  0  0  0  0  0  0  0  0  0  0
    8.0300   13.4600   -1.1050 N   0  0  0  0  0  0  0  0  0  0  0  0
    8.5630   13.8420   -0.3700 H   0  0  0  0  0  0  0  0  0  0  0  0
    6.6610   11.7860   -1.9490 N   0  0  0  0  0  0  0  0  0  0  0  0
    5.7230   12.0860   -1.9650 H   0  0  0  0  0  0  0  0  0  0  0  0
    6.9840   11.1440   -2.6220 H   0  0  0  0  0  0  0  0  0  0  0  0
    7.8090   14.2330   -2.3290 C   0  0  0  0  0  0  0  0  0  0  0  0
    9.0650   14.2270   -3.1620 C   0  0  0  0  0  0  0  0  0  0  0  0
    9.3330   13.2050   -3.9360 C   0  0  0  0  0  0  0  0  0  0  0  0
  1  2  2  0  0  0  0
  1  9  1  0  0  0  0
  2  3  1  0  0  0  0
  3  4  1  0  0  0  0
  3  5  1  0  0  0  0
  5  8  2  0  0  0  0
  6  5  1  0  0  0  0
  6  7  1  0  0  0  0
  9 10  1  6  0  0  0
  9  6  1  0  0  0  0
 11 12  2  0  0  0  0
 11  1  1  0  0  0  0
 13 11  1  0  0  0  0
 14 15  1  0  0  0  0
 15 13  1  0  0  0  0
 16  2  1  0  0  0  0
 17 16  1  0  0  0  0
 18 17  1  0  0  0  0
 19 18  1  0  0  0  0
 19 20  1  0  0  0  0
 21 18  2  0  0  0  0
 22 21  1  0  0  0  0
 23 21  1  0  0  0  0
 24 19  1  0  0  0  0
 25 24  1  0  0  0  0
 26 25  2  0  0  0  0
M  END
>  <MODEL>
1

>  <REMARK>
 VINA RESULT:      -6.1      0.000      0.000
  Name = ZINC29477247
                            x       y       z     vdW  Elec       q    Type
                         _______ _______ _______ _____ _____    ______ ____

>  <TORSDO>
F 9

>  <vina_score>
-6.1

$$$$
ZINC31219118
 OpenBabel01091701483D

 30 31  0  0  0  0  0  0  0  0999 V2000
    7.8930   12.0220   -0.1140 C   0  0  0  0  0  0  0  0  0  0  0  0
    7.1340   10.8540   -0.0220 C   0  0  0  0  0  0  0  0  0  0  0  0
    7.0920   10.1530    1.1660 C   0  0  0  0  0  0  0  0  0  0  0  0
    7.8050   10.6040    2.2630 C   0  0  0  0  0  0  0  0  0  0  0  0
    8.5540   11.7640    2.1800 C   0  0  0  0  0  0  0  0  0  0  0  0
    8.6050   12.4740    0.9980 C   0  0  0  0  0  0  0  0  0  0  0  0
    8.9000   12.5040   -2.2940 N   0  0  0  0  0  0  0  0  0  0  0  0
    9.5670   11.8030   -2.1120 H   0  0  0  0  0  0  0  0  0  0  0  0
    7.9430   12.7760   -1.3850 C   0  0  0  0  0  0  0  0  0  0  0  0
    7.1200   13.6410   -1.6100 O   0  0  0  0  0  0  0  0  0  0  0  0
    8.9490   13.2520   -3.5530 C   0  0  0  0  0  0  0  0  0  0  0  0
   10.3530   13.1490   -4.1530 C   0  0  0  0  0  0  0  0  0  0  0  0
   11.3940   13.3630   -3.0520 C   0  0  0  0  0  0  0  0  0  0  0  0
   11.2900   14.7330   -2.5430 N   0  0  0  0  0  0  0  0  0  0  0  0
   11.9770   15.2890   -3.0540 H   0  0  0  0  0  0  0  0  0  0  0  0
   11.8130   13.4090   -0.1870 C   0  0  0  0  0  0  0  0  0  0  0  0
   11.5310   15.0380   -0.9330 S   0  0  0  0  0  0  0  0  0  0  0  0
   10.2990   15.5790   -0.4770 O   0  0  0  0  0  0  0  0  0  0  0  0
   12.7230   15.8110   -0.8850 O   0  0  0  0  0  0  0  0  0  0  0  0
    9.4530   12.3330    3.5850 S   0  0  0  0  0  0  0  0  0  0  0  0
   10.0030   13.5940    3.2320 O   0  0  0  0  0  0  0  0  0  0  0  0
    8.6020   12.1610    4.7100 O   0  0  0  0  0  0  0  0  0  0  0  0
   10.7320   11.3020    3.7970 N   0  0  0  0  0  0  0  0  0  0  0  0
   10.3610   10.3550    3.7250 H   0  0  0  0  0  0  0  0  0  0  0  0
   11.8880   11.3740    2.8990 C   0  0  0  0  0  0  0  0  0  0  0  0
   13.1290   11.6660    3.7020 C   0  0  0  0  0  0  0  0  0  0  0  0
   13.6560   12.8640    4.0550 C   0  0  0  0  0  0  0  0  0  0  0  0
   14.8150   12.8910    4.8070 C   0  0  0  0  0  0  0  0  0  0  0  0
   15.3970   11.7180    5.1600 C   0  0  0  0  0  0  0  0  0  0  0  0
   14.2910   10.5220    4.4300 S   0  0  0  0  0  0  0  0  0  0  0  0
  1  2  2  0  0  0  0
  1  6  1  0  0  0  0
  2  3  1  0  0  0  0
  3  4  2  0  0  0  0
  5  4  1  0  0  0  0
  5 20  1  0  0  0  0
  6  5  2  0  0  0  0
  7  8  1  0  0  0  0
  7  9  1  0  0  0  0
  9  1  1  0  0  0  0
 10  9  2  0  0  0  0
 11  7  1  0  0  0  0
 12 11  1  0  0  0  0
 12 13  1  0  0  0  0
 13 14  1  0  0  0  0
 14 17  1  0  0  0  0
 15 14  1  0  0  0  0
 17 19  2  0  0  0  0
 17 18  2  0  0  0  0
 17 16  1  0  0  0  0
 20 23  1  0  0  0  0
 20 22  2  0  0  0  0
 21 20  2  0  0  0  0
 24 23  1  0  0  0  0
 25 26  1  0  0  0  0
 25 23  1  0  0  0  0
 26 27  2  0  0  0  0
 26 30  1  0  0  0  0
 27 28  1  0  0  0  0
 28 29  2  0  0  0  0
 30 29  1  0  0  0  0
M  END
>  <MODEL>
1

>  <REMARK>
 VINA RESULT:      -6.1      0.000      0.000
  Name = ZINC31219118
                            x       y       z     vdW  Elec       q    Type
                         _______ _______ _______ _____ _____    ______ ____

>  <TORSDO>
F 10

>  <vina_score>
-6.1

$$$$
ZINC04972884
 OpenBabel01091701473D

 23 23  0  0  1  0  0  0  0  0999 V2000
   11.5030   13.6500   -0.1740 C   0  0  1  0  0  0  0  0  0  0  0  0
   11.7580   13.6340    1.3460 C   0  0  0  0  0  0  0  0  0  0  0  0
   11.5360   12.2470    1.7780 N   0  0  0  0  0  0  0  0  0  0  0  0
   11.9660   11.7060    2.9350 C   0  0  0  0  0  0  0  0  0  0  0  0
   12.5950   12.3820    3.7240 O   0  0  0  0  0  0  0  0  0  0  0  0
   10.7680   11.5470    0.7400 C   0  0  0  0  0  0  0  0  0  0  0  0
   10.5060   12.5230   -0.3870 C   0  0  0  0  0  0  0  0  0  0  0  0
    9.6340   12.4210   -1.3180 N   0  0  0  0  0  0  0  0  0  0  0  0
    9.6190   13.3480   -2.3690 N   0  0  0  0  0  0  0  0  0  0  0  0
   10.4180   13.4680   -2.9310 H   0  0  0  0  0  0  0  0  0  0  0  0
    8.5100   14.0740   -2.6110 C   0  0  0  0  0  0  0  0  0  0  0  0
    7.3840   13.8380   -1.9090 N   0  0  0  0  0  0  0  0  0  0  0  0
    6.5730   14.3690   -2.0850 H   0  0  0  0  0  0  0  0  0  0  0  0
    7.3710   13.1350   -1.2200 H   0  0  0  0  0  0  0  0  0  0  0  0
    8.5250   14.9420   -3.4620 O   0  0  0  0  0  0  0  0  0  0  0  0
   10.9090   14.9690   -0.5970 C   0  0  0  0  0  0  0  0  0  0  0  0
   11.4710   15.6480   -1.4230 O   0  0  0  0  0  0  0  0  0  0  0  0
    9.7560   15.3900   -0.0540 O   0  0  0  0  0  0  0  0  0  0  0  0
    9.4680   16.4010    2.1420 C   0  0  0  0  0  0  0  0  0  0  0  0
    9.7870   16.6490    0.6670 C   0  0  0  0  0  0  0  0  0  0  0  0
   11.6980   10.4170    3.2160 O   0  0  0  0  0  0  0  0  0  0  0  0
   10.8900   10.1530    4.3930 C   0  0  0  0  0  0  0  0  0  0  0  0
    9.5030   10.7750    4.2100 C   0  0  0  0  0  0  0  0  0  0  0  0
  1 16  1  1  0  0  0
  1  2  1  0  0  0  0
  2  3  1  0  0  0  0
  3  4  1  0  0  0  0
  4 21  1  0  0  0  0
  4  5  2  0  0  0  0
  6  3  1  0  0  0  0
  7  1  1  0  0  0  0
  7  6  1  0  0  0  0
  8  7  2  0  0  0  0
  9  8  1  0  0  0  0
 10  9  1  0  0  0  0
 11  9  1  0  0  0  0
 11 12  1  0  0  0  0
 12 14  1  0  0  0  0
 13 12  1  0  0  0  0
 15 11  2  0  0  0  0
 16 18  1  0  0  0  0
 17 16  2  0  0  0  0
 18 20  1  0  0  0  0
 20 19  1  0  0  0  0
 21 22  1  0  0  0  0
 23 22  1  0  0  0  0
M  END
>  <MODEL>
1

>  <REMARK>
 VINA RESULT:      -6.1      0.000      0.000
  Name = ZINC04972884
                            x       y       z     vdW  Elec       q    Type
                         _______ _______ _______ _____ _____    ______ ____

>  <TORSDO>
F 6

>  <vina_score>
-6.1

$$$$
ZINC22791525
 OpenBabel01091701483D

 26 27  0  0  0  0  0  0  0  0999 V2000
    8.3510   12.4310    2.1920 S   0  0  0  0  0  0  0  0  0  0  0  0
    7.6370   11.2050    2.1310 O   0  0  0  0  0  0  0  0  0  0  0  0
    7.8630   13.5640    2.8960 O   0  0  0  0  0  0  0  0  0  0  0  0
    9.8390   12.0810    2.8310 N   0  0  0  0  0  0  0  0  0  0  0  0
   10.8450   11.3530    2.0450 C   0  0  0  0  0  0  0  0  0  0  0  0
   12.1610   12.1470    2.0920 C   0  0  0  0  0  0  0  0  0  0  0  0
   12.5270   12.3950    3.4930 N   0  0  0  0  0  0  0  0  0  0  0  0
   12.5510   11.4940    3.9710 H   0  0  0  0  0  0  0  0  0  0  0  0
   11.5240   13.2310    4.1660 C   0  0  0  0  0  0  0  0  0  0  0  0
   10.1850   12.4860    4.2020 C   0  0  0  0  0  0  0  0  0  0  0  0
   13.8640   12.9960    3.5890 C   0  0  0  0  0  0  0  0  0  0  0  0
   14.6060   12.4030    4.7880 C   0  0  0  0  0  0  0  0  0  0  0  0
   15.7250   13.2800    5.1550 N   0  0  0  0  0  0  0  0  0  0  0  0
   16.5460   13.0330    4.6020 H   0  0  0  0  0  0  0  0  0  0  0  0
   15.4720   14.2510    4.9710 H   0  0  0  0  0  0  0  0  0  0  0  0
   15.9360   13.1660    6.1460 H   0  0  0  0  0  0  0  0  0  0  0  0
    9.0120   13.7570   -2.0920 C   0  0  0  0  0  0  0  0  0  0  0  0
    8.2290   12.6430   -1.8190 C   0  0  0  0  0  0  0  0  0  0  0  0
    8.0340   12.2380   -0.5130 C   0  0  0  0  0  0  0  0  0  0  0  0
    8.6090   12.9470    0.5260 C   0  0  0  0  0  0  0  0  0  0  0  0
    9.3870   14.0640    0.2590 C   0  0  0  0  0  0  0  0  0  0  0  0
    9.5890   14.4690   -1.0520 C   0  0  0  0  0  0  0  0  0  0  0  0
    9.4130   13.1220   -4.3480 C   0  0  0  0  0  0  0  0  0  0  0  0
    9.2080   14.1510   -3.3770 O   0  0  0  0  0  0  0  0  0  0  0  0
    9.9520   14.7600    1.2800 O   0  0  0  0  0  0  0  0  0  0  0  0
    9.7180   16.1690    1.3110 C   0  0  0  0  0  0  0  0  0  0  0  0
  1  4  1  0  0  0  0
  1  3  2  0  0  0  0
  2  1  2  0  0  0  0
  4 10  1  0  0  0  0
  5  6  1  0  0  0  0
  5  4  1  0  0  0  0
  6  7  1  0  0  0  0
  7 11  1  0  0  0  0
  7  8  1  0  0  0  0
  7  9  1  0  0  0  0
  9 10  1  0  0  0  0
 11 12  1  0  0  0  0
 12 13  1  0  0  0  0
 13 16  1  0  0  0  0
 14 13  1  0  0  0  0
 15 13  1  0  0  0  0
 17 18  2  0  0  0  0
 17 22  1  0  0  0  0
 18 19  1  0  0  0  0
 19 20  2  0  0  0  0
 20  1  1  0  0  0  0
 21 20  1  0  0  0  0
 21 25  1  0  0  0  0
 22 21  2  0  0  0  0
 23 24  1  0  0  0  0
 24 17  1  0  0  0  0
 25 26  1  0  0  0  0
M  END
>  <MODEL>
1

>  <REMARK>
 VINA RESULT:      -6.1      0.000      0.000
  Name = ZINC22791525
                            x       y       z     vdW  Elec       q    Type
                         _______ _______ _______ _____ _____    ______ ____

>  <TORSDO>
F 7

>  <vina_score>
-6.1

$$$$
ZINC01839390
 OpenBabel01091701243D

 19 19  0  0  0  0  0  0  0  0999 V2000
    9.6490   12.4810   -1.0630 C   0  0  0  0  0  0  0  0  0  0  0  0
    8.2200   12.7340   -1.5040 C   0  0  0  0  0  0  0  0  0  0  0  0
    7.1840   12.1580   -0.8740 O   0  0  0  0  0  0  0  0  0  0  0  0
    8.0360   13.5390   -2.5230 N   0  0  0  0  0  0  0  0  0  0  0  0
    7.1170   13.7180   -2.8260 H   0  0  0  0  0  0  0  0  0  0  0  0
    9.0490   14.1230   -3.1640 C   0  0  0  0  0  0  0  0  0  0  0  0
    8.7440   14.9320   -4.1980 O   0  0  0  0  0  0  0  0  0  0  0  0
   10.3230   13.9740   -2.8670 N   0  0  0  0  0  0  0  0  0  0  0  0
   10.9980   14.4500   -3.4030 H   0  0  0  0  0  0  0  0  0  0  0  0
   10.7270   13.1940   -1.8610 C   0  0  0  0  0  0  0  0  0  0  0  0
   11.9050   13.0630   -1.5950 O   0  0  0  0  0  0  0  0  0  0  0  0
    9.6570   14.1340    0.6970 N   0  0  0  0  0  0  0  0  0  0  0  0
    9.7800   12.9020    0.3780 C   0  0  0  0  0  0  0  0  0  0  0  0
    9.7840   14.5430    2.0980 C   0  0  0  0  0  0  0  0  0  0  0  0
    8.9720   13.5940    2.9820 C   0  0  0  0  0  0  0  0  0  0  0  0
    9.4450   11.7270    4.4520 C   0  0  0  0  0  0  0  0  0  0  0  0
    9.8210   13.0960    4.0740 N   0  0  0  0  0  0  0  0  0  0  0  0
    9.6740   13.6970    4.8850 H   0  0  0  0  0  0  0  0  0  0  0  0
   11.2420   13.1710    3.7090 C   0  0  0  0  0  0  0  0  0  0  0  0
  1 13  1  0  0  0  0
  2  1  1  0  0  0  0
  2  3  2  0  0  0  0
  4  2  1  0  0  0  0
  5  4  1  0  0  0  0
  6  8  1  0  0  0  0
  6  4  1  0  0  0  0
  7  6  2  0  0  0  0
  8 10  1  0  0  0  0
  9  8  1  0  0  0  0
 10 11  2  0  0  0  0
 10  1  1  0  0  0  0
 12 14  1  0  0  0  0
 13 12  2  0  0  0  0
 14 15  1  0  0  0  0
 15 17  1  0  0  0  0
 17 16  1  0  0  0  0
 17 18  1  0  0  0  0
 19 17  1  0  0  0  0
M  END
>  <MODEL>
1

>  <REMARK>
 VINA RESULT:      -6.1      0.000      0.000
  Name = ZINC01839390
                            x       y       z     vdW  Elec       q    Type
                         _______ _______ _______ _____ _____    ______ ____

>  <TORSDO>
F 4

>  <vina_score>
-6.1

$$$$
ZINC31998538
 OpenBabel01091701253D

 22 23  0  0  0  0  0  0  0  0999 V2000
    8.5350   11.8240   -0.1290 N   0  0  0  0  0  0  0  0  0  0  0  0
    9.5120   12.4370   -0.8630 C   0  0  0  0  0  0  0  0  0  0  0  0
    8.8440   13.2380   -1.8060 C   0  0  0  0  0  0  0  0  0  0  0  0
    7.5230   13.0920   -1.6100 N   0  0  0  0  0  0  0  0  0  0  0  0
    9.6270   13.9880   -2.7070 C   0  0  0  0  0  0  0  0  0  0  0  0
   10.9490   13.9100   -2.6140 N   0  0  0  0  0  0  0  0  0  0  0  0
   11.5290   13.1410   -1.7110 C   0  0  0  0  0  0  0  0  0  0  0  0
   10.8420   12.4180   -0.8530 N   0  0  0  0  0  0  0  0  0  0  0  0
    7.3080   12.2740   -0.6390 N   0  0  0  0  0  0  0  0  0  0  0  0
    9.0320   14.7980   -3.6540 N   0  0  0  0  0  0  0  0  0  0  0  0
    8.1520   15.2010   -3.4760 H   0  0  0  0  0  0  0  0  0  0  0  0
    9.4890   14.9740   -4.5100 H   0  0  0  0  0  0  0  0  0  0  0  0
    8.7310   10.8850    0.9780 C   0  0  0  0  0  0  0  0  0  0  0  0
    8.1930   11.5010    2.2720 C   0  0  0  0  0  0  0  0  0  0  0  0
    9.1310   11.2870    3.3280 O   0  0  0  0  0  0  0  0  0  0  0  0
    9.6340   12.4910    3.9110 C   0  0  0  0  0  0  0  0  0  0  0  0
   11.1970   12.9540    3.0960 P   0  0  1  0  0  0  0  0  0  0  0  0
   12.2090   13.5690    4.1860 O   0  0  0  0  0  0  0  0  0  0  0  0
   11.8060   11.7540    2.4780 O   0  0  0  0  0  0  0  0  0  0  0  0
   10.9040   14.0530    1.9570 O   0  0  0  0  0  0  0  0  0  0  0  0
    9.7760   15.8120    0.7430 C   0  0  0  0  0  0  0  0  0  0  0  0
    9.7160   14.8470    1.9280 C   0  0  0  0  0  0  0  0  0  0  0  0
  1 13  1  0  0  0  0
  2  8  1  0  0  0  0
  2  1  1  0  0  0  0
  3  4  1  0  0  0  0
  3  2  2  0  0  0  0
  4  9  2  0  0  0  0
  5  6  2  0  0  0  0
  5  3  1  0  0  0  0
  6  7  1  0  0  0  0
  7  8  2  0  0  0  0
  9  1  1  0  0  0  0
 10 11  1  0  0  0  0
 10  5  1  0  0  0  0
 12 10  1  0  0  0  0
 13 14  1  0  0  0  0
 14 15  1  0  0  0  0
 15 16  1  0  0  0  0
 17 20  1  6  0  0  0
 17 16  1  0  0  0  0
 17 18  1  0  0  0  0
 19 17  2  0  0  0  0
 21 22  1  0  0  0  0
 22 20  1  0  0  0  0
M  END
>  <MODEL>
1

>  <REMARK>
 VINA RESULT:      -6.1      0.000      0.000
  Name = ZINC31998538
                            x       y       z     vdW  Elec       q    Type
                         _______ _______ _______ _____ _____    ______ ____

>  <TORSDO>
F 8

>  <vina_score>
-6.1

$$$$
ZINC02837242
 OpenBabel01091701273D

 21 21  0  0  0  0  0  0  0  0999 V2000
    9.5450   13.9690   -0.8580 C   0  0  0  0  0  0  0  0  0  0  0  0
   10.5030   14.3820   -1.8990 C   0  0  0  0  0  0  0  0  0  0  0  0
   10.3340   13.9030   -3.1480 N   0  0  0  0  0  0  0  0  0  0  0  0
   10.9650   14.1700   -3.8550 H   0  0  0  0  0  0  0  0  0  0  0  0
    9.3260   13.0720   -3.4490 C   0  0  0  0  0  0  0  0  0  0  0  0
    8.4170   12.6580   -2.5550 N   0  0  0  0  0  0  0  0  0  0  0  0
    7.6970   12.0530   -2.8470 H   0  0  0  0  0  0  0  0  0  0  0  0
    9.2290   12.6760   -4.5940 O   0  0  0  0  0  0  0  0  0  0  0  0
   11.4210   15.1370   -1.6380 O   0  0  0  0  0  0  0  0  0  0  0  0
    8.4650   13.0520   -1.2660 C   0  0  0  0  0  0  0  0  0  0  0  0
    7.6360   12.6680   -0.4630 O   0  0  0  0  0  0  0  0  0  0  0  0
   10.1390   13.6050    1.4020 N   0  0  0  0  0  0  0  0  0  0  0  0
    9.6540   14.4200    0.4440 C   0  0  0  0  0  0  0  0  0  0  0  0
   10.2540   14.0830    2.7810 C   0  0  0  0  0  0  0  0  0  0  0  0
   10.8020   12.9610    3.6670 C   0  0  0  0  0  0  0  0  0  0  0  0
   11.2970   11.8690    2.8030 N   0  0  0  0  0  0  0  0  0  0  0  0
   11.0940   12.0990    1.8290 H   0  0  0  0  0  0  0  0  0  0  0  0
   13.3420   12.9270    3.7000 C   0  0  0  0  0  0  0  0  0  0  0  0
   12.7590   11.7200    2.9640 C   0  0  0  0  0  0  0  0  0  0  0  0
   10.6180   10.6030    3.1480 C   0  0  0  0  0  0  0  0  0  0  0  0
    9.7450   10.8330    4.3830 C   0  0  0  0  0  0  0  0  0  0  0  0
  1 13  1  0  0  0  0
  2  9  2  0  0  0  0
  2  1  1  0  0  0  0
  3  2  1  0  0  0  0
  4  3  1  0  0  0  0
  5  3  1  0  0  0  0
  5  6  1  0  0  0  0
  6 10  1  0  0  0  0
  7  6  1  0  0  0  0
  8  5  2  0  0  0  0
 10  1  1  0  0  0  0
 10 11  2  0  0  0  0
 12 14  1  0  0  0  0
 13 12  2  0  0  0  0
 14 15  1  0  0  0  0
 16 19  1  0  0  0  0
 16 20  1  0  0  0  0
 16 15  1  0  0  0  0
 17 16  1  0  0  0  0
 19 18  1  0  0  0  0
 20 21  1  0  0  0  0
M  END
>  <MODEL>
1

>  <REMARK>
 VINA RESULT:      -6.1      0.000      0.000
  Name = ZINC02837242
                            x       y       z     vdW  Elec       q    Type
                         _______ _______ _______ _____ _____    ______ ____

>  <TORSDO>
F 6

>  <vina_score>
-6.1

$$$$
ZINC00481078
 OpenBabel01091701273D

 24 24  0  0  0  0  0  0  0  0999 V2000
    8.9630   12.5030    1.2960 C   0  0  0  0  0  0  0  0  0  0  0  0
    8.9470   13.0390    0.0220 C   0  0  0  0  0  0  0  0  0  0  0  0
    8.0160   12.6060   -0.8670 N   0  0  0  0  0  0  0  0  0  0  0  0
    7.1080   11.6740   -0.5370 C   0  0  0  0  0  0  0  0  0  0  0  0
    7.0740   11.1110    0.6820 N   0  0  0  0  0  0  0  0  0  0  0  0
    6.3990   10.4230    0.8850 H   0  0  0  0  0  0  0  0  0  0  0  0
    6.2930   11.3260   -1.3690 O   0  0  0  0  0  0  0  0  0  0  0  0
    7.9610   11.4790    1.6310 C   0  0  0  0  0  0  0  0  0  0  0  0
    7.9330   10.9750    2.7380 O   0  0  0  0  0  0  0  0  0  0  0  0
   12.0340   12.6810    3.3150 C   0  0  0  0  0  0  0  0  0  0  0  0
   11.1640   12.3520    2.3400 N   0  0  0  0  0  0  0  0  0  0  0  0
   11.4120   11.6780    1.6670 H   0  0  0  0  0  0  0  0  0  0  0  0
    9.9550   12.9440    2.2880 C   0  0  0  0  0  0  0  0  0  0  0  0
    9.6840   13.8430    3.0610 O   0  0  0  0  0  0  0  0  0  0  0  0
   11.7280   13.5130    4.1470 O   0  0  0  0  0  0  0  0  0  0  0  0
   13.2420   12.0900    3.3680 O   0  0  0  0  0  0  0  0  0  0  0  0
   14.3430   10.1540    4.3520 C   0  0  0  0  0  0  0  0  0  0  0  0
   13.2660   10.6390    3.3790 C   0  0  0  0  0  0  0  0  0  0  0  0
    7.9980   13.1750   -2.2170 C   0  0  0  0  0  0  0  0  0  0  0  0
    8.6170   14.5740   -2.1910 C   0  0  0  0  0  0  0  0  0  0  0  0
    9.8130   14.5830   -3.0600 N   0  0  0  0  0  0  0  0  0  0  0  0
    9.6560   15.2300   -3.8320 H   0  0  0  0  0  0  0  0  0  0  0  0
   10.0510   13.2310   -3.6060 C   0  0  0  0  0  0  0  0  0  0  0  0
   10.9930   15.0320   -2.2910 C   0  0  0  0  0  0  0  0  0  0  0  0
  1  8  1  0  0  0  0
  1 13  1  0  0  0  0
  2  1  2  0  0  0  0
  3  4  1  0  0  0  0
  3  2  1  0  0  0  0
  4  5  1  0  0  0  0
  5  6  1  0  0  0  0
  5  8  1  0  0  0  0
  7  4  2  0  0  0  0
  8  9  2  0  0  0  0
 10 16  1  0  0  0  0
 10 15  2  0  0  0  0
 11 10  1  0  0  0  0
 12 11  1  0  0  0  0
 13 11  1  0  0  0  0
 13 14  2  0  0  0  0
 16 18  1  0  0  0  0
 18 17  1  0  0  0  0
 19 20  1  0  0  0  0
 19  3  1  0  0  0  0
 21 24  1  0  0  0  0
 21 20  1  0  0  0  0
 22 21  1  0  0  0  0
 23 21  1  0  0  0  0
M  END
>  <MODEL>
1

>  <REMARK>
 VINA RESULT:      -6.1      0.000      0.000
  Name = ZINC00481078
                            x       y       z     vdW  Elec       q    Type
                         _______ _______ _______ _____ _____    ______ ____

>  <TORSDO>
F 6

>  <vina_score>
-6.1

$$$$
ZINC05791983
 OpenBabel01091701293D

 29 30  0  0  1  0  0  0  0  0999 V2000
    8.8170   11.4680    0.7180 C   0  0  2  0  0  0  0  0  0  0  0  0
    7.6870   11.3280    1.7210 C   0  0  0  0  0  0  0  0  0  0  0  0
    8.0170   11.2810    3.0300 N   0  0  0  0  0  0  0  0  0  0  0  0
    7.3010   11.1950    3.7000 H   0  0  0  0  0  0  0  0  0  0  0  0
    9.2880   11.3480    3.4430 C   0  0  0  0  0  0  0  0  0  0  0  0
   10.3470   11.4770    2.6340 N   0  0  0  0  0  0  0  0  0  0  0  0
    9.4960   11.2930    4.6390 O   0  0  0  0  0  0  0  0  0  0  0  0
    6.5310   11.2620    1.3620 O   0  0  0  0  0  0  0  0  0  0  0  0
   10.2190   11.5410    1.2930 C   0  0  0  0  0  0  0  0  0  0  0  0
   11.1870   11.6540    0.5730 O   0  0  0  0  0  0  0  0  0  0  0  0
   11.6300   11.5420    3.2000 C   0  0  0  0  0  0  0  0  0  0  0  0
   12.3130   10.3730    3.5070 C   0  0  0  0  0  0  0  0  0  0  0  0
   13.5750   10.4380    4.0640 C   0  0  0  0  0  0  0  0  0  0  0  0
   14.1600   11.6710    4.3170 C   0  0  0  0  0  0  0  0  0  0  0  0
   13.4750   12.8380    4.0160 C   0  0  0  0  0  0  0  0  0  0  0  0
   12.2150   12.7750    3.4540 C   0  0  0  0  0  0  0  0  0  0  0  0
   15.4020   11.7330    4.8660 O   0  0  0  0  0  0  0  0  0  0  0  0
   15.7330   10.7360    5.8370 C   0  0  0  0  0  0  0  0  0  0  0  0
    8.5750   12.7170   -0.0890 C   0  0  0  0  0  0  0  0  0  0  0  0
    8.0310   12.6320   -1.2890 C   0  0  0  0  0  0  0  0  0  0  0  0
    8.9540   13.9620    0.4960 N   0  0  0  0  0  0  0  0  0  0  0  0
    9.0920   14.0690    1.4640 H   0  0  0  0  0  0  0  0  0  0  0  0
    9.1270   15.0950   -0.4770 C   0  0  0  0  0  0  0  0  0  0  0  0
   10.6280   15.3830   -0.5680 C   0  0  0  0  0  0  0  0  0  0  0  0
   11.0280   15.5380   -2.0360 C   0  0  0  0  0  0  0  0  0  0  0  0
   12.6850   13.9680   -1.2280 C   0  0  0  0  0  0  0  0  0  0  0  0
   11.9180   14.4170   -2.4080 N   0  0  0  0  0  0  0  0  0  0  0  0
   12.5680   14.7350   -3.1260 H   0  0  0  0  0  0  0  0  0  0  0  0
   11.1180   13.2960   -2.9470 C   0  0  0  0  0  0  0  0  0  0  0  0
  1 19  1  1  0  0  0
  1  9  1  0  0  0  0
  1  2  1  0  0  0  0
  2  3  1  0  0  0  0
  3  5  1  0  0  0  0
  3  4  1  0  0  0  0
  5  7  2  0  0  0  0
  6 11  1  0  0  0  0
  6  5  1  0  0  0  0
  8  2  2  0  0  0  0
  9  6  1  0  0  0  0
 10  9  2  0  0  0  0
 11 16  2  0  0  0  0
 11 12  1  0  0  0  0
 12 13  2  0  0  0  0
 13 14  1  0  0  0  0
 14 17  1  0  0  0  0
 15 14  2  0  0  0  0
 16 15  1  0  0  0  0
 17 18  1  0  0  0  0
 19 21  2  0  0  0  0
 20 19  1  0  0  0  0
 21 22  1  0  0  0  0
 23 21  1  0  0  0  0
 24 23  1  0  0  0  0
 25 24  1  0  0  0  0
 27 25  1  0  0  0  0
 27 26  1  0  0  0  0
 28 27  1  0  0  0  0
 29 27  1  0  0  0  0
M  END
>  <MODEL>
1

>  <REMARK>
 VINA RESULT:      -6.1      0.000      0.000
  Name = ZINC05791983
                            x       y       z     vdW  Elec       q    Type
                         _______ _______ _______ _____ _____    ______ ____

>  <TORSDO>
F 8

>  <vina_score>
-6.1

$$$$
ZINC05799862
 OpenBabel01091701303D

 25 26  0  0  0  0  0  0  0  0999 V2000
    9.4130   11.8120    1.0790 C   0  0  0  0  0  0  0  0  0  0  0  0
   10.2450   11.9840   -0.1150 C   0  0  0  0  0  0  0  0  0  0  0  0
    9.7310   12.7470   -1.2020 C   0  0  0  0  0  0  0  0  0  0  0  0
    8.5030   13.2790   -1.1180 C   0  0  0  0  0  0  0  0  0  0  0  0
    7.8860   14.0790   -2.2400 C   0  0  0  0  0  0  0  0  0  0  0  0
    8.9570   14.5610   -3.2140 C   0  0  0  0  0  0  0  0  0  0  0  0
    9.8130   13.3550   -3.6230 C   0  0  0  0  0  0  0  0  0  0  0  0
    7.7390   13.1110    0.0070 N   0  0  0  0  0  0  0  0  0  0  0  0
    6.8460   13.5220    0.0320 H   0  0  0  0  0  0  0  0  0  0  0  0
   10.6220   12.9130   -2.4060 C   0  0  0  0  0  0  0  0  0  0  0  0
   11.3570   11.4820   -0.1760 O   0  0  0  0  0  0  0  0  0  0  0  0
    8.1540   12.4070    1.0820 C   0  0  0  0  0  0  0  0  0  0  0  0
   11.1980   11.0630    2.5630 N   0  0  0  0  0  0  0  0  0  0  0  0
   11.8300   11.5990    2.0320 H   0  0  0  0  0  0  0  0  0  0  0  0
    9.8910   11.0390    2.2320 C   0  0  0  0  0  0  0  0  0  0  0  0
    9.1110   10.3760    2.8870 O   0  0  0  0  0  0  0  0  0  0  0  0
   11.6770   10.2920    3.7120 C   0  0  0  0  0  0  0  0  0  0  0  0
   13.2060   10.2670    3.7100 C   0  0  0  0  0  0  0  0  0  0  0  0
   13.7410   11.6730    3.9860 C   0  0  0  0  0  0  0  0  0  0  0  0
   15.4110   10.3690    5.1580 C   0  0  0  0  0  0  0  0  0  0  0  0
   14.6300   11.6230    5.1650 N   0  0  0  0  0  0  0  0  0  0  0  0
   14.0600   11.6540    6.0120 H   0  0  0  0  0  0  0  0  0  0  0  0
   15.5420   12.7870    5.1600 C   0  0  0  0  0  0  0  0  0  0  0  0
    7.3500   12.2820    2.1570 O   0  0  0  0  0  0  0  0  0  0  0  0
    7.5690   12.7140    2.9590 H   0  0  0  0  0  0  0  0  0  0  0  0
  1 12  2  0  0  0  0
  1 15  1  0  0  0  0
  2  1  1  0  0  0  0
  3  4  2  0  0  0  0
  3  2  1  0  0  0  0
  4  8  1  0  0  0  0
  5  4  1  0  0  0  0
  6  5  1  0  0  0  0
  7  6  1  0  0  0  0
  7 10  1  0  0  0  0
  8  9  1  0  0  0  0
  8 12  1  0  0  0  0
 10  3  1  0  0  0  0
 11  2  2  0  0  0  0
 12 24  1  0  0  0  0
 13 17  1  0  0  0  0
 14 13  1  0  0  0  0
 15 13  1  0  0  0  0
 15 16  2  0  0  0  0
 18 17  1  0  0  0  0
 18 19  1  0  0  0  0
 19 21  1  0  0  0  0
 20 21  1  0  0  0  0
 21 22  1  0  0  0  0
 23 21  1  0  0  0  0
 24 25  1  0  0  0  0
M  END
>  <MODEL>
1

>  <REMARK>
 VINA RESULT:      -6.1      0.000      0.000
  Name = ZINC05799862
                            x       y       z     vdW  Elec       q    Type
                         _______ _______ _______ _____ _____    ______ ____

>  <TORSDO>
F 6

>  <vina_score>
-6.1

$$$$
ZINC19526420
 OpenBabel01091701333D

 27 28  0  0  0  0  0  0  0  0999 V2000
   10.6860   12.1980    0.3520 C   0  0  0  0  0  0  0  0  0  0  0  0
    9.7240   11.4910    0.9110 N   0  0  0  0  0  0  0  0  0  0  0  0
    8.6180   11.5580    0.1670 C   0  0  0  0  0  0  0  0  0  0  0  0
    8.9010   12.3610   -0.9330 C   0  0  0  0  0  0  0  0  0  0  0  0
    7.8960   12.5990   -1.8860 C   0  0  0  0  0  0  0  0  0  0  0  0
    6.6780   12.0430   -1.7140 N   0  0  0  0  0  0  0  0  0  0  0  0
    6.4160   11.2680   -0.6470 C   0  0  0  0  0  0  0  0  0  0  0  0
    5.3070   10.7850   -0.5240 O   0  0  0  0  0  0  0  0  0  0  0  0
    7.3500   11.0160    0.2900 N   0  0  0  0  0  0  0  0  0  0  0  0
    7.0240   10.1660    1.4380 C   0  0  0  0  0  0  0  0  0  0  0  0
   10.2240   12.7630   -0.7940 N   0  0  0  0  0  0  0  0  0  0  0  0
   11.9590   12.3450    0.8550 N   0  0  0  0  0  0  0  0  0  0  0  0
   12.7360   12.2710    0.2550 H   0  0  0  0  0  0  0  0  0  0  0  0
   12.1570   12.6130    2.2810 C   0  0  0  0  0  0  0  0  0  0  0  0
   11.0420   13.5310    2.7880 C   0  0  0  0  0  0  0  0  0  0  0  0
   10.3720   12.9010    3.9340 N   0  0  0  0  0  0  0  0  0  0  0  0
   10.6570   13.4000    4.7760 H   0  0  0  0  0  0  0  0  0  0  0  0
    8.5630   14.1240    2.8240 C   0  0  0  0  0  0  0  0  0  0  0  0
    8.9120   13.0120    3.8150 C   0  0  0  0  0  0  0  0  0  0  0  0
   10.7840   11.4980    4.0780 C   0  0  0  0  0  0  0  0  0  0  0  0
    9.5620   10.6410    4.4130 C   0  0  0  0  0  0  0  0  0  0  0  0
    8.1220   13.2980   -2.8590 O   0  0  0  0  0  0  0  0  0  0  0  0
    8.4980   12.9220   -3.6290 H   0  0  0  0  0  0  0  0  0  0  0  0
   10.9750   13.6270   -1.7070 C   0  0  0  0  0  0  0  0  0  0  0  0
   11.0610   15.0150   -1.1280 C   0  0  0  0  0  0  0  0  0  0  0  0
    9.9210   15.5640   -0.3100 C   0  0  0  0  0  0  0  0  0  0  0  0
   12.1280   15.7470   -1.3360 C   0  0  0  0  0  0  0  0  0  0  0  0
  1 12  1  0  0  0  0
  1  2  2  0  0  0  0
  3  9  1  0  0  0  0
  3  2  1  0  0  0  0
  4 11  1  0  0  0  0
  4  3  2  0  0  0  0
  5  6  2  0  0  0  0
  5  4  1  0  0  0  0
  6  7  1  0  0  0  0
  7  8  2  0  0  0  0
  7  9  1  0  0  0  0
  9 10  1  0  0  0  0
 11  1  1  0  0  0  0
 12 14  1  0  0  0  0
 13 12  1  0  0  0  0
 14 15  1  0  0  0  0
 15 16  1  0  0  0  0
 16 20  1  0  0  0  0
 16 17  1  0  0  0  0
 18 19  1  0  0  0  0
 19 16  1  0  0  0  0
 20 21  1  0  0  0  0
 22  5  1  0  0  0  0
 23 22  1  0  0  0  0
 24 25  1  0  0  0  0
 24 11  1  0  0  0  0
 25 26  1  0  0  0  0
 27 25  2  0  0  0  0
M  END
>  <MODEL>
1

>  <REMARK>
 VINA RESULT:      -6.1      0.000      0.000
  Name = ZINC19526420
                            x       y       z     vdW  Elec       q    Type
                         _______ _______ _______ _____ _____    ______ ____

>  <TORSDO>
F 9

>  <vina_score>
-6.1

$$$$
ZINC19483528
 OpenBabel01091701173D

 21 21  0  0  1  0  0  0  0  0999 V2000
   10.9530   14.6190    0.2310 C   0  0  0  0  0  0  0  0  0  0  0  0
    9.0750   12.2890    3.2850 C   0  0  0  0  0  0  0  0  0  0  0  0
   10.3420   12.8110    3.4890 C   0  0  0  0  0  0  0  0  0  0  0  0
   10.9480   13.5600    2.4970 C   0  0  0  0  0  0  0  0  0  0  0  0
   10.2900   13.7980    1.3060 C   0  0  0  0  0  0  0  0  0  0  0  0
    9.0260   13.2780    1.0960 C   0  0  0  0  0  0  0  0  0  0  0  0
    8.4140   12.5230    2.0830 C   0  0  0  0  0  0  0  0  0  0  0  0
    9.0340   10.2590    4.5230 C   0  0  0  0  0  0  0  0  0  0  0  0
    8.4790   11.5480    4.2570 O   0  0  0  0  0  0  0  0  0  0  0  0
    7.1710   12.0120    1.8780 O   0  0  0  0  0  0  0  0  0  0  0  0
    7.0890   10.7530    1.2060 C   0  0  0  0  0  0  0  0  0  0  0  0
   11.4860   13.5320   -1.1200 S   0  0  0  0  0  0  0  0  0  0  0  0
   10.4230   14.0060   -2.5110 C   0  0  0  0  0  0  0  0  0  0  0  0
    9.2860   12.9920   -2.6520 C   0  0  2  0  0  0  0  0  0  0  0  0
    9.1690   12.5800   -4.0560 N   0  0  0  0  0  0  0  0  0  0  0  0
    9.5600   11.6440   -4.1690 H   0  0  0  0  0  0  0  0  0  0  0  0
    8.1860   12.5700   -4.3280 H   0  0  0  0  0  0  0  0  0  0  0  0
    9.6790   13.2350   -4.6470 H   0  0  0  0  0  0  0  0  0  0  0  0
    7.9920   13.6230   -2.2040 C   0  0  0  0  0  0  0  0  0  0  0  0
    7.0170   12.8590   -1.6840 O   0  0  0  0  0  0  0  0  0  0  0  0
    7.8330   14.8160   -2.3120 O   0  0  0  0  0  0  0  0  0  0  0  0
  1  5  1  0  0  0  0
  2  3  1  0  0  0  0
  2  9  1  0  0  0  0
  4  3  2  0  0  0  0
  5  4  1  0  0  0  0
  6  5  2  0  0  0  0
  6  7  1  0  0  0  0
  7  2  2  0  0  0  0
  9  8  1  0  0  0  0
 10  7  1  0  0  0  0
 11 10  1  0  0  0  0
 12  1  1  0  0  0  0
 13 12  1  0  0  0  0
 14 15  1  6  0  0  0
 14 13  1  0  0  0  0
 14 19  1  0  0  0  0
 16 15  1  0  0  0  0
 17 15  1  0  0  0  0
 18 15  1  0  0  0  0
 19 20  1  0  0  0  0
 21 19  2  0  0  0  0
M  END
>  <MODEL>
1

>  <REMARK>
 VINA RESULT:      -6.0      0.000      0.000
  Name = ZINC19483528
                            x       y       z     vdW  Elec       q    Type
                         _______ _______ _______ _____ _____    ______ ____

>  <TORSDO>
F 8

>  <vina_score>
-6.0

$$$$
ZINC20199200
 OpenBabel01091701233D

 21 21  0  0  0  0  0  0  0  0999 V2000
   11.4510   15.0120   -1.9140 C   0  0  0  0  0  0  0  0  0  0  0  0
   12.2960   11.9390    1.8490 C   0  0  0  0  0  0  0  0  0  0  0  0
   11.6290   13.1280    1.3110 N   0  0  0  0  0  0  0  0  0  0  0  0
   11.8390   13.4920    0.0100 C   0  0  0  0  0  0  0  0  0  0  0  0
   11.2280   14.5910   -0.4840 C   0  0  0  0  0  0  0  0  0  0  0  0
   10.3720   15.3410    0.3580 C   0  0  0  0  0  0  0  0  0  0  0  0
   10.1870   14.9450    1.6350 N   0  0  0  0  0  0  0  0  0  0  0  0
    9.3040   15.7120    2.5160 C   0  0  0  0  0  0  0  0  0  0  0  0
    9.8070   16.3320   -0.0660 O   0  0  0  0  0  0  0  0  0  0  0  0
   10.8120   13.8480    2.1020 C   0  0  0  0  0  0  0  0  0  0  0  0
   10.6370   13.5040    3.2550 O   0  0  0  0  0  0  0  0  0  0  0  0
   10.1540   15.1650   -2.5860 N   0  0  0  0  0  0  0  0  0  0  0  0
    9.6010   15.8510   -2.0730 H   0  0  0  0  0  0  0  0  0  0  0  0
   10.3100   15.4760   -3.5460 H   0  0  0  0  0  0  0  0  0  0  0  0
    9.4200   13.8920   -2.6090 C   0  0  0  0  0  0  0  0  0  0  0  0
    7.9440   14.1510   -2.3000 C   0  0  0  0  0  0  0  0  0  0  0  0
    7.4590   13.1380   -1.4140 O   0  0  0  0  0  0  0  0  0  0  0  0
    8.4900   12.3800   -0.7780 C   0  0  0  0  0  0  0  0  0  0  0  0
    7.9760   11.8410    0.5580 C   0  0  0  0  0  0  0  0  0  0  0  0
    7.4670   12.9190    1.3430 O   0  0  0  0  0  0  0  0  0  0  0  0
    8.0230   13.7040    1.2150 H   0  0  0  0  0  0  0  0  0  0  0  0
  1  5  1  0  0  0  0
  3  2  1  0  0  0  0
  3 10  1  0  0  0  0
  4  3  1  0  0  0  0
  5  4  2  0  0  0  0
  5  6  1  0  0  0  0
  6  7  1  0  0  0  0
  7 10  1  0  0  0  0
  7  8  1  0  0  0  0
  9  6  2  0  0  0  0
 10 11  2  0  0  0  0
 12 13  1  0  0  0  0
 12  1  1  0  0  0  0
 14 12  1  0  0  0  0
 15 12  1  0  0  0  0
 15 16  1  0  0  0  0
 16 17  1  0  0  0  0
 17 18  1  0  0  0  0
 18 19  1  0  0  0  0
 19 20  1  0  0  0  0
 21 20  1  0  0  0  0
M  END
>  <MODEL>
1

>  <REMARK>
 VINA RESULT:      -6.0      0.000      0.000
  Name = ZINC20199200
                            x       y       z     vdW  Elec       q    Type
                         _______ _______ _______ _____ _____    ______ ____

>  <TORSDO>
F 8

>  <vina_score>
-6.0

$$$$
ZINC14418737
 OpenBabel01091701343D

 25 25  0  0  1  0  0  0  0  0999 V2000
    9.5580   12.5740    0.7300 C   0  0  2  0  0  0  0  0  0  0  0  0
    8.2680   11.9450    1.2650 C   0  0  2  0  0  0  0  0  0  0  0  0
    8.5270   11.3440    2.5360 O   0  0  0  0  0  0  0  0  0  0  0  0
    8.9700   12.2620    3.5370 C   0  0  2  0  0  0  0  0  0  0  0  0
   10.2860   12.9030    3.0920 C   0  0  2  0  0  0  0  0  0  0  0  0
   10.0770   13.5980    1.7430 C   0  0  2  0  0  0  0  0  0  0  0  0
    9.1710   11.5650    4.7680 O   0  0  0  0  0  0  0  0  0  0  0  0
    8.9710   10.1540    4.6760 C   0  0  0  0  0  0  0  0  0  0  0  0
    9.2860   13.2350   -0.5350 O   0  0  0  0  0  0  0  0  0  0  0  0
    9.9260   13.6370   -2.8850 C   0  0  0  0  0  0  0  0  0  0  0  0
   10.1960   13.0840   -1.5100 C   0  0  0  0  0  0  0  0  0  0  0  0
   11.2320   12.5040   -1.2840 O   0  0  0  0  0  0  0  0  0  0  0  0
    7.7760   10.8770    0.2870 C   0  0  0  0  0  0  0  0  0  0  0  0
    7.0500   11.5340   -0.8140 N   0  0  0  0  0  0  0  0  0  0  0  0
    6.5600   10.8300   -1.3670 H   0  0  0  0  0  0  0  0  0  0  0  0
    6.3760   12.1950   -0.4300 H   0  0  0  0  0  0  0  0  0  0  0  0
    7.7140   12.0310   -1.4090 H   0  0  0  0  0  0  0  0  0  0  0  0
   11.3050   11.8770    2.9570 O   0  0  0  0  0  0  0  0  0  0  0  0
   12.5470   12.2870    2.6570 C   0  0  0  0  0  0  0  0  0  0  0  0
   13.3370   13.0900    3.6580 C   0  0  0  0  0  0  0  0  0  0  0  0
   13.0320   12.0140    1.5840 O   0  0  0  0  0  0  0  0  0  0  0  0
    9.1070   14.6680    1.8920 O   0  0  0  0  0  0  0  0  0  0  0  0
    9.5600   15.9240    1.7550 C   0  0  0  0  0  0  0  0  0  0  0  0
    9.7900   16.4960    0.3800 C   0  0  0  0  0  0  0  0  0  0  0  0
    9.7820   16.5970    2.7340 O   0  0  0  0  0  0  0  0  0  0  0  0
  1  9  1  6  0  0  0
  1  2  1  0  0  0  0
  1  6  1  0  0  0  0
  2 13  1  6  0  0  0
  2  3  1  0  0  0  0
  3  4  1  0  0  0  0
  4  7  1  1  0  0  0
  5 18  1  6  0  0  0
  5  4  1  0  0  0  0
  6 22  1  1  0  0  0
  6  5  1  0  0  0  0
  8  7  1  0  0  0  0
 10 11  1  0  0  0  0
 11 12  2  0  0  0  0
 11  9  1  0  0  0  0
 14 16  1  0  0  0  0
 14 13  1  0  0  0  0
 15 14  1  0  0  0  0
 17 14  1  0  0  0  0
 19 18  1  0  0  0  0
 19 20  1  0  0  0  0
 21 19  2  0  0  0  0
 23 22  1  0  0  0  0
 23 25  2  0  0  0  0
 24 23  1  0  0  0  0
M  END
>  <MODEL>
1

>  <REMARK>
 VINA RESULT:      -6.0      0.000      0.000
  Name = ZINC14418737
                            x       y       z     vdW  Elec       q    Type
                         _______ _______ _______ _____ _____    ______ ____

>  <TORSDO>
F 9

>  <vina_score>
-6.0

$$$$
ZINC24195016
 OpenBabel01091701393D

 30 31  0  0  1  0  0  0  0  0999 V2000
   10.5970   12.2920    2.5370 C   0  0  0  0  0  0  0  0  0  0  0  0
   11.1260   13.3320    1.8570 C   0  0  0  0  0  0  0  0  0  0  0  0
   10.5430   14.5660    1.8930 N   0  0  0  0  0  0  0  0  0  0  0  0
   10.9650   15.2950    1.3820 H   0  0  0  0  0  0  0  0  0  0  0  0
    9.4300   14.8420    2.5840 C   0  0  0  0  0  0  0  0  0  0  0  0
    8.7870   13.9080    3.3120 N   0  0  0  0  0  0  0  0  0  0  0  0
    7.9700   14.1330    3.8140 H   0  0  0  0  0  0  0  0  0  0  0  0
    8.9850   15.9740    2.5540 O   0  0  0  0  0  0  0  0  0  0  0  0
    9.3360   12.5410    3.3390 C   0  0  2  0  0  0  0  0  0  0  0  0
    9.6250   12.1790    4.7980 C   0  0  0  0  0  0  0  0  0  0  0  0
   11.2000   11.0130    2.5020 C   0  0  0  0  0  0  0  0  0  0  0  0
   10.9600   10.2540    1.5810 O   0  0  0  0  0  0  0  0  0  0  0  0
   12.0390   10.6340    3.4870 O   0  0  0  0  0  0  0  0  0  0  0  0
   14.2580   10.1530    4.3150 C   0  0  0  0  0  0  0  0  0  0  0  0
   13.3360   10.1770    3.0950 C   0  0  0  0  0  0  0  0  0  0  0  0
   12.3790   13.1270    1.0480 C   0  0  0  0  0  0  0  0  0  0  0  0
   12.3040   13.9190   -0.1690 O   0  0  0  0  0  0  0  0  0  0  0  0
   11.7130   13.3490   -1.2310 C   0  0  0  0  0  0  0  0  0  0  0  0
   11.5550   12.1510   -1.2640 O   0  0  0  0  0  0  0  0  0  0  0  0
   11.2460   14.2020   -2.3810 C   0  0  0  0  0  0  0  0  0  0  0  0
    9.8790   13.8230   -2.7480 N   0  0  0  0  0  0  0  0  0  0  0  0
    9.6340   13.0650   -3.9770 C   0  0  0  0  0  0  0  0  0  0  0  0
    8.6120   14.2490   -1.7710 S   0  0  0  0  0  0  0  0  0  0  0  0
    7.6000   14.7700   -2.6220 O   0  0  0  0  0  0  0  0  0  0  0  0
    9.1610   14.9970   -0.6940 O   0  0  0  0  0  0  0  0  0  0  0  0
    7.9680   12.7630   -1.0750 C   0  0  0  0  0  0  0  0  0  0  0  0
    8.3670   12.1000    0.0370 C   0  0  0  0  0  0  0  0  0  0  0  0
    7.7060   10.9410    0.3990 C   0  0  0  0  0  0  0  0  0  0  0  0
    6.6850   10.4970   -0.3740 C   0  0  0  0  0  0  0  0  0  0  0  0
    6.6280   11.7380   -1.6570 S   0  0  0  0  0  0  0  0  0  0  0  0
  1  9  1  0  0  0  0
  2  3  1  0  0  0  0
  2  1  2  0  0  0  0
  3  5  1  0  0  0  0
  4  3  1  0  0  0  0
  5  6  1  0  0  0  0
  6  9  1  0  0  0  0
  6  7  1  0  0  0  0
  8  5  2  0  0  0  0
  9 10  1  1  0  0  0
 11  1  1  0  0  0  0
 11 13  1  0  0  0  0
 12 11  2  0  0  0  0
 15 13  1  0  0  0  0
 15 14  1  0  0  0  0
 16  2  1  0  0  0  0
 17 16  1  0  0  0  0
 18 17  1  0  0  0  0
 19 18  2  0  0  0  0
 20 18  1  0  0  0  0
 21 20  1  0  0  0  0
 21 23  1  0  0  0  0
 22 21  1  0  0  0  0
 23 26  1  0  0  0  0
 23 25  2  0  0  0  0
 24 23  2  0  0  0  0
 26 27  2  0  0  0  0
 27 28  1  0  0  0  0
 29 28  2  0  0  0  0
 30 26  1  0  0  0  0
 30 29  1  0  0  0  0
M  END
>  <MODEL>
1

>  <REMARK>
 VINA RESULT:      -6.0      0.000      0.000
  Name = ZINC24195016
                            x       y       z     vdW  Elec       q    Type
                         _______ _______ _______ _____ _____    ______ ____

>  <TORSDO>
F 10

>  <vina_score>
-6.0

$$$$
ZINC06382444
 OpenBabel01091701383D

 22 23  0  0  1  0  0  0  0  0999 V2000
    9.6140   15.1930    2.1490 C   0  0  0  0  0  0  0  0  0  0  0  0
    9.4290   15.4640    0.7220 N   0  0  0  0  0  0  0  0  0  0  0  0
    8.6920   16.0450    0.4230 H   0  0  0  0  0  0  0  0  0  0  0  0
   10.2680   14.9180   -0.1830 C   0  0  0  0  0  0  0  0  0  0  0  0
   11.4490   14.4470    0.1750 N   0  0  0  0  0  0  0  0  0  0  0  0
   12.2870   13.8370   -0.6580 C   0  0  0  0  0  0  0  0  0  0  0  0
   11.9070   13.3740   -1.8430 N   0  0  0  0  0  0  0  0  0  0  0  0
   10.6400   13.6150   -2.1800 C   0  0  0  0  0  0  0  0  0  0  0  0
    9.7410   12.9080   -2.8000 N   0  0  0  0  0  0  0  0  0  0  0  0
    8.5090   13.3880   -2.5860 C   0  0  0  0  0  0  0  0  0  0  0  0
    8.4980   14.4870   -1.8840 N   0  0  0  0  0  0  0  0  0  0  0  0
    9.8960   14.8290   -1.6380 C   0  0  1  0  0  0  0  0  0  0  0  0
    8.6680   14.0720    2.5820 C   0  0  2  0  0  0  0  0  0  0  0  0
    7.5770   14.6260    3.3210 O   0  0  0  0  0  0  0  0  0  0  0  0
    7.5520   15.5860    3.1870 H   0  0  0  0  0  0  0  0  0  0  0  0
    9.4260   13.0760    3.4620 C   0  0  0  0  0  0  0  0  0  0  0  0
   10.7060   12.7410    2.8040 N   0  0  0  0  0  0  0  0  0  0  0  0
   10.8110   13.3200    1.9710 H   0  0  0  0  0  0  0  0  0  0  0  0
   13.1610   12.9800    2.9670 C   0  0  0  0  0  0  0  0  0  0  0  0
   11.8320   13.0120    3.7220 C   0  0  0  0  0  0  0  0  0  0  0  0
   10.7120   11.3180    2.4040 C   0  0  0  0  0  0  0  0  0  0  0  0
   10.2540   11.2130    0.9470 C   0  0  0  0  0  0  0  0  0  0  0  0
  2  1  1  0  0  0  0
  3  2  1  0  0  0  0
  4  5  2  0  0  0  0
  4  2  1  0  0  0  0
  6  5  1  0  0  0  0
  7  6  2  0  0  0  0
  8  7  1  0  0  0  0
  9 10  1  0  0  0  0
  9  8  2  0  0  0  0
 10 11  2  0  0  0  0
 11 12  1  0  0  0  0
 12  8  1  6  0  0  0
 12  4  1  0  0  0  0
 13  1  1  1  0  0  0
 13 14  1  0  0  0  0
 13 16  1  0  0  0  0
 15 14  1  0  0  0  0
 17 16  1  0  0  0  0
 17 20  1  0  0  0  0
 18 17  1  0  0  0  0
 19 20  1  0  0  0  0
 21 17  1  0  0  0  0
 22 21  1  0  0  0  0
M  END
>  <MODEL>
1

>  <REMARK>
 VINA RESULT:      -6.0      0.000      0.000
  Name = ZINC06382444
                            x       y       z     vdW  Elec       q    Type
                         _______ _______ _______ _____ _____    ______ ____

>  <TORSDO>
F 8

>  <vina_score>
-6.0

$$$$
ZINC04535632
 OpenBabel01091701393D

 26 27  0  0  1  0  0  0  0  0999 V2000
   10.0800   10.8280    1.4730 C   0  0  2  0  0  0  0  0  0  0  0  0
    8.7240   10.6730    2.1220 C   0  0  0  0  0  0  0  0  0  0  0  0
    7.4650   10.7640    1.4820 C   0  0  0  0  0  0  0  0  0  0  0  0
    7.3920   10.9180   -0.0160 C   0  0  0  0  0  0  0  0  0  0  0  0
    6.4460   10.7180    2.1380 O   0  0  0  0  0  0  0  0  0  0  0  0
    8.9470   10.4270    3.4370 C   0  0  0  0  0  0  0  0  0  0  0  0
    7.9890   10.2270    4.3710 O   0  0  0  0  0  0  0  0  0  0  0  0
   10.4050   10.4140    3.6880 C   0  0  0  0  0  0  0  0  0  0  0  0
   10.9250   10.2210    4.7680 O   0  0  0  0  0  0  0  0  0  0  0  0
   11.0690   10.6480    2.5420 N   0  0  0  0  0  0  0  0  0  0  0  0
   10.5820   16.1030   -0.8330 C   0  0  0  0  0  0  0  0  0  0  0  0
   10.4510   14.7280   -0.2310 C   0  0  0  0  0  0  0  0  0  0  0  0
   10.8510   13.6170   -0.9520 C   0  0  0  0  0  0  0  0  0  0  0  0
   10.7260   12.3550   -0.4020 C   0  0  0  0  0  0  0  0  0  0  0  0
   10.2110   12.2040    0.8720 C   0  0  0  0  0  0  0  0  0  0  0  0
    9.8160   13.3150    1.5940 C   0  0  0  0  0  0  0  0  0  0  0  0
    9.9360   14.5760    1.0430 C   0  0  0  0  0  0  0  0  0  0  0  0
   12.5250   10.7120    2.3880 C   0  0  0  0  0  0  0  0  0  0  0  0
   12.9920   12.1600    2.5550 C   0  0  0  0  0  0  0  0  0  0  0  0
   13.3240   12.4000    3.9720 N   0  0  0  0  0  0  0  0  0  0  0  0
   13.7550   13.3210    4.0600 H   0  0  0  0  0  0  0  0  0  0  0  0
   12.4720   12.3570    4.5300 H   0  0  0  0  0  0  0  0  0  0  0  0
   14.2730   11.3780    4.4550 C   0  0  0  0  0  0  0  0  0  0  0  0
   15.3840   12.0630    5.2540 C   0  0  0  0  0  0  0  0  0  0  0  0
   15.0440   13.4350    5.4610 O   0  0  0  0  0  0  0  0  0  0  0  0
   14.8130   13.8430    4.6120 H   0  0  0  0  0  0  0  0  0  0  0  0
  1 15  1  1  0  0  0
  1  2  1  0  0  0  0
  1 10  1  0  0  0  0
  2  6  2  0  0  0  0
  3  2  1  0  0  0  0
  3  5  2  0  0  0  0
  4  3  1  0  0  0  0
  6  8  1  0  0  0  0
  6  7  1  0  0  0  0
  8  9  2  0  0  0  0
 10  8  1  0  0  0  0
 11 12  1  0  0  0  0
 12 17  2  0  0  0  0
 13 14  2  0  0  0  0
 13 12  1  0  0  0  0
 14 15  1  0  0  0  0
 15 16  2  0  0  0  0
 17 16  1  0  0  0  0
 18 10  1  0  0  0  0
 18 19  1  0  0  0  0
 19 20  1  0  0  0  0
 20 21  1  0  0  0  0
 20 23  1  0  0  0  0
 20 22  1  0  0  0  0
 23 24  1  0  0  0  0
 24 25  1  0  0  0  0
 26 25  1  0  0  0  0
M  END
>  <MODEL>
1

>  <REMARK>
 VINA RESULT:      -6.0      0.000      0.000
  Name = ZINC04535632
                            x       y       z     vdW  Elec       q    Type
                         _______ _______ _______ _____ _____    ______ ____

>  <TORSDO>
F 7

>  <vina_score>
-6.0

$$$$
ZINC17669880
 OpenBabel01091701393D

 25 26  0  0  0  0  0  0  0  0999 V2000
   10.8600   15.5190   -0.0710 C   0  0  0  0  0  0  0  0  0  0  0  0
   10.1640   14.6940   -1.1230 C   0  0  0  0  0  0  0  0  0  0  0  0
   10.8390   14.2550   -2.1710 N   0  0  0  0  0  0  0  0  0  0  0  0
   10.2280   13.5230   -3.0990 C   0  0  0  0  0  0  0  0  0  0  0  0
    8.9350   13.2410   -2.9760 N   0  0  0  0  0  0  0  0  0  0  0  0
    8.2580   13.6880   -1.9240 C   0  0  0  0  0  0  0  0  0  0  0  0
    8.8780   14.4160   -0.9970 N   0  0  0  0  0  0  0  0  0  0  0  0
   10.9350   13.0600   -4.1900 N   0  0  0  0  0  0  0  0  0  0  0  0
   11.5660   12.3110   -4.0870 H   0  0  0  0  0  0  0  0  0  0  0  0
   10.8100   13.4800   -5.0710 H   0  0  0  0  0  0  0  0  0  0  0  0
    6.9160   13.3990   -1.7920 N   0  0  0  0  0  0  0  0  0  0  0  0
    6.6210   12.7100   -1.1520 H   0  0  0  0  0  0  0  0  0  0  0  0
    6.2520   13.8820   -2.3350 H   0  0  0  0  0  0  0  0  0  0  0  0
    9.6790   15.9650    1.2250 S   0  0  0  0  0  0  0  0  0  0  0  0
    8.6030   12.8440    3.3340 C   0  0  0  0  0  0  0  0  0  0  0  0
    9.8250   12.2810    3.7180 C   0  0  0  0  0  0  0  0  0  0  0  0
   11.0140   12.9150    3.2940 C   0  0  0  0  0  0  0  0  0  0  0  0
   10.9240   14.0110    2.5510 N   0  0  0  0  0  0  0  0  0  0  0  0
    9.7430   14.5060    2.2120 C   0  0  0  0  0  0  0  0  0  0  0  0
    8.6040   13.9370    2.5930 N   0  0  0  0  0  0  0  0  0  0  0  0
   12.2460   12.4020    3.6440 N   0  0  0  0  0  0  0  0  0  0  0  0
   12.3610   11.4310    3.7580 H   0  0  0  0  0  0  0  0  0  0  0  0
   13.0120   13.0080    3.7780 H   0  0  0  0  0  0  0  0  0  0  0  0
    9.8690   11.0960    4.5200 C   0  0  0  0  0  0  0  0  0  0  0  0
    9.9040   10.1550    5.1560 N   0  0  0  0  0  0  0  0  0  0  0  0
  1 14  1  0  0  0  0
  2  7  1  0  0  0  0
  2  1  1  0  0  0  0
  3  2  2  0  0  0  0
  4  5  2  0  0  0  0
  4  3  1  0  0  0  0
  5  6  1  0  0  0  0
  6 11  1  0  0  0  0
  6  7  2  0  0  0  0
  8  9  1  0  0  0  0
  8  4  1  0  0  0  0
 10  8  1  0  0  0  0
 11 12  1  0  0  0  0
 13 11  1  0  0  0  0
 14 19  1  0  0  0  0
 15 16  1  0  0  0  0
 16 24  1  0  0  0  0
 17 21  1  0  0  0  0
 17 16  2  0  0  0  0
 18 17  1  0  0  0  0
 19 18  2  0  0  0  0
 19 20  1  0  0  0  0
 20 15  2  0  0  0  0
 21 22  1  0  0  0  0
 21 23  1  0  0  0  0
 24 25  3  0  0  0  0
M  END
>  <MODEL>
1

>  <REMARK>
 VINA RESULT:      -6.0      0.000      0.000
  Name = ZINC17669880
                            x       y       z     vdW  Elec       q    Type
                         _______ _______ _______ _____ _____    ______ ____

>  <TORSDO>
F 7

>  <vina_score>
-6.0

$$$$
ZINC27792258
 OpenBabel01091701403D

 22 22  0  0  1  0  0  0  0  0999 V2000
   10.0790   13.1820    1.2550 C   0  0  1  0  0  0  0  0  0  0  0  0
   10.8000   14.0200    0.2310 C   0  0  0  0  0  0  0  0  0  0  0  0
   11.9620   13.5500   -0.3510 C   0  0  0  0  0  0  0  0  0  0  0  0
   12.6220   14.3170   -1.2940 C   0  0  0  0  0  0  0  0  0  0  0  0
   12.1240   15.5560   -1.6480 C   0  0  0  0  0  0  0  0  0  0  0  0
   10.9640   16.0280   -1.0620 C   0  0  0  0  0  0  0  0  0  0  0  0
   10.3020   15.2600   -0.1230 C   0  0  0  0  0  0  0  0  0  0  0  0
    8.4560   14.0350    2.9520 C   0  0  0  0  0  0  0  0  0  0  0  0
    9.9320   13.9780    2.5540 C   0  0  1  0  0  0  0  0  0  0  0  0
   10.7000   13.3250    3.6160 N   0  0  0  0  0  0  0  0  0  0  0  0
   10.1310   12.6320    4.4410 O   0  0  0  0  0  0  0  0  0  0  0  0
   11.9070   13.4750    3.6760 O   0  0  0  0  0  0  0  0  0  0  0  0
    8.4350   12.7410    0.6270 S   0  0  0  0  0  0  0  0  0  0  0  0
    8.7690   11.9970   -0.9930 C   0  0  0  0  0  0  0  0  0  0  0  0
    8.0340   12.7860   -2.0780 C   0  0  1  0  0  0  0  0  0  0  0  0
    7.2180   13.8360   -1.4520 N   0  0  0  0  0  0  0  0  0  0  0  0
    7.8030   14.3950   -0.8310 H   0  0  0  0  0  0  0  0  0  0  0  0
    6.8210   14.4340   -2.1770 H   0  0  0  0  0  0  0  0  0  0  0  0
    6.4650   13.4060   -0.9150 H   0  0  0  0  0  0  0  0  0  0  0  0
    9.0390   13.4180   -3.0060 C   0  0  0  0  0  0  0  0  0  0  0  0
    8.7840   14.6170   -3.5540 O   0  0  0  0  0  0  0  0  0  0  0  0
   10.0730   12.8480   -3.2570 O   0  0  0  0  0  0  0  0  0  0  0  0
  1  2  1  6  0  0  0
  1  9  1  0  0  0  0
  3  2  2  0  0  0  0
  4  3  1  0  0  0  0
  5  4  2  0  0  0  0
  5  6  1  0  0  0  0
  6  7  2  0  0  0  0
  7  2  1  0  0  0  0
  9  8  1  1  0  0  0
  9 10  1  0  0  0  0
 10 12  2  0  0  0  0
 10 11  2  0  0  0  0
 13  1  1  0  0  0  0
 14 13  1  0  0  0  0
 15 20  1  6  0  0  0
 15 16  1  0  0  0  0
 15 14  1  0  0  0  0
 16 19  1  0  0  0  0
 16 17  1  0  0  0  0
 18 16  1  0  0  0  0
 21 20  2  0  0  0  0
 22 20  1  0  0  0  0
M  END
>  <MODEL>
1

>  <REMARK>
 VINA RESULT:      -6.0      0.000      0.000
  Name = ZINC27792258
                            x       y       z     vdW  Elec       q    Type
                         _______ _______ _______ _____ _____    ______ ____

>  <TORSDO>
F 8

>  <vina_score>
-6.0

$$$$
ZINC03624639
 OpenBabel01091701453D

 21 21  0  0  0  0  0  0  0  0999 V2000
    8.3020   12.0990    0.0600 C   0  0  0  0  0  0  0  0  0  0  0  0
    7.7690   13.1090    0.9940 N   0  0  0  0  0  0  0  0  0  0  0  0
    8.0470   14.0360    0.6740 H   0  0  0  0  0  0  0  0  0  0  0  0
    6.7520   13.0380    1.0210 H   0  0  0  0  0  0  0  0  0  0  0  0
    8.3080   12.8880    2.3490 C   0  0  0  0  0  0  0  0  0  0  0  0
    9.7390   12.3600    2.2400 C   0  0  0  0  0  0  0  0  0  0  0  0
   10.7990   13.2350    3.4240 S   0  0  0  0  0  0  0  0  0  0  0  0
   12.7450   12.5080    3.0060 P   0  0  0  0  0  0  0  0  0  0  0  0
   13.8370   13.5760    3.5150 O   0  0  0  0  0  0  0  0  0  0  0  0
   12.9080   12.2890    1.4190 O   0  0  0  0  0  0  0  0  0  0  0  0
   12.9520   11.2200    3.7060 O   0  0  0  0  0  0  0  0  0  0  0  0
    7.8370   12.4330   -1.3590 C   0  0  0  0  0  0  0  0  0  0  0  0
    8.1190   13.9080   -1.6540 C   0  0  0  0  0  0  0  0  0  0  0  0
   12.3520   13.9460   -1.6180 C   0  0  0  0  0  0  0  0  0  0  0  0
   11.6670   15.1420   -0.9500 C   0  0  0  0  0  0  0  0  0  0  0  0
   10.1860   14.8830   -0.8710 C   0  0  0  0  0  0  0  0  0  0  0  0
    9.5650   14.1130   -1.7780 N   0  0  0  0  0  0  0  0  0  0  0  0
   10.2150   13.5200   -2.7900 C   0  0  0  0  0  0  0  0  0  0  0  0
    9.5970   12.8260   -3.5690 O   0  0  0  0  0  0  0  0  0  0  0  0
    9.5430   15.3770    0.0290 O   0  0  0  0  0  0  0  0  0  0  0  0
   11.6970   13.7070   -2.9830 C   0  0  0  0  0  0  0  0  0  0  0  0
  1  2  1  0  0  0  0
  2  4  1  0  0  0  0
  2  5  1  0  0  0  0
  3  2  1  0  0  0  0
  6  5  1  0  0  0  0
  6  7  1  0  0  0  0
  8  7  1  0  0  0  0
  8  9  1  0  0  0  0
  8 11  1  0  0  0  0
 10  8  2  0  0  0  0
 12  1  1  0  0  0  0
 13 12  1  0  0  0  0
 14 15  1  0  0  0  0
 15 16  1  0  0  0  0
 16 20  2  0  0  0  0
 17 13  1  0  0  0  0
 17 16  1  0  0  0  0
 18 17  1  0  0  0  0
 19 18  2  0  0  0  0
 21 18  1  0  0  0  0
 21 14  1  0  0  0  0
M  END
>  <MODEL>
1

>  <REMARK>
 VINA RESULT:      -6.0      0.000      0.000
  Name = ZINC03624639
                            x       y       z     vdW  Elec       q    Type
                         _______ _______ _______ _____ _____    ______ ____

>  <TORSDO>
F 8

>  <vina_score>
-6.0

$$$$
ZINC03677371
 OpenBabel01091701463D

 23 24  0  0  1  0  0  0  0  0999 V2000
    9.0830   12.5730    3.3560 C   0  0  0  0  0  0  0  0  0  0  0  0
   10.1260   13.4660    3.1530 C   0  0  0  0  0  0  0  0  0  0  0  0
   10.3660   13.9750    1.8920 C   0  0  0  0  0  0  0  0  0  0  0  0
    9.5610   13.6060    0.8300 C   0  0  0  0  0  0  0  0  0  0  0  0
    8.5130   12.7180    1.0280 C   0  0  0  0  0  0  0  0  0  0  0  0
    8.2740   12.2010    2.2940 C   0  0  0  0  0  0  0  0  0  0  0  0
    8.8510   12.0680    4.5950 O   0  0  0  0  0  0  0  0  0  0  0  0
   10.3310   10.1590    4.5100 C   0  0  0  0  0  0  0  0  0  0  0  0
    8.8990   10.6460    4.7360 C   0  0  0  0  0  0  0  0  0  0  0  0
    9.8210   14.1690   -0.5430 C   0  0  2  0  0  0  0  0  0  0  0  0
    8.6030   14.8000   -1.0810 N   0  0  0  0  0  0  0  0  0  0  0  0
    8.7730   15.1050   -2.0390 H   0  0  0  0  0  0  0  0  0  0  0  0
    7.8380   14.1250   -1.0690 H   0  0  0  0  0  0  0  0  0  0  0  0
    8.3550   15.6040   -0.5060 H   0  0  0  0  0  0  0  0  0  0  0  0
   10.2490   13.0590   -1.4680 C   0  0  0  0  0  0  0  0  0  0  0  0
   11.1290   12.1370   -1.0480 O   0  0  0  0  0  0  0  0  0  0  0  0
    9.7990   12.9990   -2.5880 O   0  0  0  0  0  0  0  0  0  0  0  0
   10.9310   15.2200   -0.4610 C   0  0  0  0  0  0  0  0  0  0  0  0
   11.5320   15.7150   -1.7790 C   0  0  0  0  0  0  0  0  0  0  0  0
   12.3420   14.7910   -0.8660 C   0  0  0  0  0  0  0  0  0  0  0  0
    7.7220   12.3560   -0.0140 O   0  0  0  0  0  0  0  0  0  0  0  0
    7.5180   10.9570   -0.2190 C   0  0  0  0  0  0  0  0  0  0  0  0
    6.0180   10.6500   -0.1890 C   0  0  0  0  0  0  0  0  0  0  0  0
  1  7  1  0  0  0  0
  2  1  1  0  0  0  0
  3  2  2  0  0  0  0
  4  5  2  0  0  0  0
  4  3  1  0  0  0  0
  5  6  1  0  0  0  0
  6  1  2  0  0  0  0
  7  9  1  0  0  0  0
  8  9  1  0  0  0  0
 10 15  1  6  0  0  0
 10 18  1  0  0  0  0
 10  4  1  0  0  0  0
 11 13  1  0  0  0  0
 11 10  1  0  0  0  0
 11 14  1  0  0  0  0
 12 11  1  0  0  0  0
 15 16  1  0  0  0  0
 17 15  2  0  0  0  0
 19 20  1  0  0  0  0
 19 18  1  0  0  0  0
 20 18  1  0  0  0  0
 21  5  1  0  0  0  0
 22 23  1  0  0  0  0
 22 21  1  0  0  0  0
M  END
>  <MODEL>
1

>  <REMARK>
 VINA RESULT:      -6.0      0.000      0.000
  Name = ZINC03677371
                            x       y       z     vdW  Elec       q    Type
                         _______ _______ _______ _____ _____    ______ ____

>  <TORSDO>
F 8

>  <vina_score>
-6.0

$$$$
ZINC09636029
 OpenBabel01091701473D

 24 25  0  0  0  0  0  0  0  0999 V2000
   10.4890   13.0760    2.7640 N   0  0  0  0  0  0  0  0  0  0  0  0
   10.5330   13.4060    1.5090 C   0  0  0  0  0  0  0  0  0  0  0  0
    9.5000   12.9150    0.5800 C   0  0  0  0  0  0  0  0  0  0  0  0
    9.2270   13.6190   -0.5970 C   0  0  0  0  0  0  0  0  0  0  0  0
    8.2560   13.1560   -1.4680 C   0  0  0  0  0  0  0  0  0  0  0  0
    7.5570   11.9900   -1.1760 C   0  0  0  0  0  0  0  0  0  0  0  0
    7.8220   11.2910   -0.0020 C   0  0  0  0  0  0  0  0  0  0  0  0
    8.7910   11.7480    0.8720 C   0  0  0  0  0  0  0  0  0  0  0  0
    7.9900   13.8400   -2.6130 O   0  0  0  0  0  0  0  0  0  0  0  0
    9.0910   14.0970   -3.4870 C   0  0  0  0  0  0  0  0  0  0  0  0
    6.6070   11.5350   -2.0370 O   0  0  0  0  0  0  0  0  0  0  0  0
    5.7320   11.8690   -1.9890 H   0  0  0  0  0  0  0  0  0  0  0  0
    7.1330   10.1540    0.2810 O   0  0  0  0  0  0  0  0  0  0  0  0
    6.3100   10.1690    1.4500 C   0  0  0  0  0  0  0  0  0  0  0  0
   11.4720   13.5430    3.6470 N   0  0  0  0  0  0  0  0  0  0  0  0
   11.3970   14.4460    4.0320 H   0  0  0  0  0  0  0  0  0  0  0  0
   15.6790   10.1540    4.8960 C   0  0  0  0  0  0  0  0  0  0  0  0
   14.5550   11.1030    4.5700 C   0  0  0  0  0  0  0  0  0  0  0  0
   14.6650   12.4750    4.8880 C   0  0  0  0  0  0  0  0  0  0  0  0
   13.6290   13.2870    4.5760 N   0  0  0  0  0  0  0  0  0  0  0  0
   12.5340   12.7440    3.9720 C   0  0  0  0  0  0  0  0  0  0  0  0
   12.4890   11.4500    3.7050 N   0  0  0  0  0  0  0  0  0  0  0  0
   15.6660   12.9130    5.4290 O   0  0  0  0  0  0  0  0  0  0  0  0
   13.4630   10.6620    3.9880 N   0  0  0  0  0  0  0  0  0  0  0  0
  1 15  1  0  0  0  0
  2  1  2  0  0  0  0
  3  8  1  0  0  0  0
  3  2  1  0  0  0  0
  4  3  2  0  0  0  0
  5  6  2  0  0  0  0
  5  4  1  0  0  0  0
  6  7  1  0  0  0  0
  7 13  1  0  0  0  0
  7  8  2  0  0  0  0
  9  5  1  0  0  0  0
 10  9  1  0  0  0  0
 11 12  1  0  0  0  0
 11  6  1  0  0  0  0
 13 14  1  0  0  0  0
 15 21  1  0  0  0  0
 15 16  1  0  0  0  0
 18 19  1  0  0  0  0
 18 17  1  0  0  0  0
 19 23  2  0  0  0  0
 20 19  1  0  0  0  0
 21 20  1  0  0  0  0
 22 21  2  0  0  0  0
 22 24  1  0  0  0  0
 24 18  2  0  0  0  0
M  END
>  <MODEL>
1

>  <REMARK>
 VINA RESULT:      -6.0      0.000      0.000
  Name = ZINC09636029
                            x       y       z     vdW  Elec       q    Type
                         _______ _______ _______ _____ _____    ______ ____

>  <TORSDO>
F 6

>  <vina_score>
-6.0

$$$$
ZINC29550972
 OpenBabel01091701483D

 19 19  0  0  1  0  0  0  0  0999 V2000
   10.2940   14.2530    2.1840 C   0  0  0  0  0  0  0  0  0  0  0  0
    9.8160   13.6000    0.9630 N   0  0  0  0  0  0  0  0  0  0  0  0
    9.2800   12.7760    1.0230 H   0  0  0  0  0  0  0  0  0  0  0  0
   11.2170   14.9890   -0.4450 C   0  0  0  0  0  0  0  0  0  0  0  0
   11.4790   15.5120   -1.6930 C   0  0  0  0  0  0  0  0  0  0  0  0
   10.7140   15.2130   -2.7270 N   0  0  0  0  0  0  0  0  0  0  0  0
   10.9290   15.5980   -3.6080 H   0  0  0  0  0  0  0  0  0  0  0  0
    9.6710   14.4140   -2.6140 C   0  0  0  0  0  0  0  0  0  0  0  0
    9.3360   13.8550   -1.3990 C   0  0  0  0  0  0  0  0  0  0  0  0
   10.1180   14.1440   -0.2820 C   0  0  1  0  0  0  0  0  0  0  0  0
   10.5080   13.2010    3.2750 C   0  0  0  0  0  0  0  0  0  0  0  0
   12.1050   12.3640    3.0070 P   0  0  0  0  0  0  0  0  0  0  0  0
   13.3040   13.3350    3.4690 O   0  0  0  0  0  0  0  0  0  0  0  0
   12.2720   12.0120    1.4450 O   0  0  0  0  0  0  0  0  0  0  0  0
   12.1480   11.1160    3.8010 O   0  0  0  0  0  0  0  0  0  0  0  0
    9.1610   11.9750    3.2090 P   0  0  0  0  0  0  0  0  0  0  0  0
    7.8140   12.6840    2.6860 O   0  0  0  0  0  0  0  0  0  0  0  0
    8.9120   11.3710    4.6810 O   0  0  0  0  0  0  0  0  0  0  0  0
    9.5340   10.8810    2.2840 O   0  0  0  0  0  0  0  0  0  0  0  0
  1 11  1  0  0  0  0
  2  3  1  0  0  0  0
  2  1  1  0  0  0  0
  4 10  1  0  0  0  0
  5  4  2  0  0  0  0
  6  8  1  0  0  0  0
  6  5  1  0  0  0  0
  7  6  1  0  0  0  0
  8  9  2  0  0  0  0
  9 10  1  0  0  0  0
 10  2  1  6  0  0  0
 12 11  1  0  0  0  0
 12 13  1  0  0  0  0
 12 15  1  0  0  0  0
 14 12  2  0  0  0  0
 16 11  1  0  0  0  0
 16 18  1  0  0  0  0
 17 16  1  0  0  0  0
 19 16  2  0  0  0  0
M  END
>  <MODEL>
1

>  <REMARK>
 VINA RESULT:      -6.0      0.000      0.000
  Name = ZINC29550972
                            x       y       z     vdW  Elec       q    Type
                         _______ _______ _______ _____ _____    ______ ____

>  <TORSDO>
F 5

>  <vina_score>
-6.0

$$$$
ZINC14709525
 OpenBabel01091701303D

 19 19  0  0  1  0  0  0  0  0999 V2000
    9.1550   10.7180    2.6700 C   0  0  0  0  0  0  0  0  0  0  0  0
    9.1400   11.8760    3.6330 C   0  0  0  0  0  0  0  0  0  0  0  0
    8.5560   11.7760    4.6930 O   0  0  0  0  0  0  0  0  0  0  0  0
    9.8060   13.0810    3.3020 C   0  0  1  0  0  0  0  0  0  0  0  0
    9.0940   14.1430    2.7740 C   0  0  0  0  0  0  0  0  0  0  0  0
    7.8170   14.3540    3.1550 N   0  0  0  0  0  0  0  0  0  0  0  0
    7.3920   13.7530    3.8090 H   0  0  0  0  0  0  0  0  0  0  0  0
    9.7430   15.0630    1.7740 C   0  0  0  0  0  0  0  0  0  0  0  0
   11.2170   13.2000    3.5150 C   0  0  0  0  0  0  0  0  0  0  0  0
   12.3360   13.2950    3.6830 N   0  0  0  0  0  0  0  0  0  0  0  0
    7.6920   10.7950    1.6080 S   0  0  0  0  0  0  0  0  0  0  0  0
    8.4710   13.2810   -1.2940 C   0  0  0  0  0  0  0  0  0  0  0  0
    7.5820   12.7160   -0.4230 N   0  0  0  0  0  0  0  0  0  0  0  0
    6.6200   12.9110   -0.3450 H   0  0  0  0  0  0  0  0  0  0  0  0
    8.3040   11.8240    0.3160 C   0  0  0  0  0  0  0  0  0  0  0  0
    9.5420   11.8800   -0.1160 N   0  0  0  0  0  0  0  0  0  0  0  0
    9.6350   12.7410   -1.0660 N   0  0  0  0  0  0  0  0  0  0  0  0
    9.0250   14.0960   -3.5700 C   0  0  0  0  0  0  0  0  0  0  0  0
    8.1630   14.3330   -2.3280 C   0  0  0  0  0  0  0  0  0  0  0  0
  1  2  1  0  0  0  0
  2  3  2  0  0  0  0
  4  5  1  1  0  0  0
  4  9  1  0  0  0  0
  4  2  1  0  0  0  0
  5  6  2  0  0  0  0
  6  7  1  0  0  0  0
  8  5  1  0  0  0  0
  9 10  3  0  0  0  0
 11  1  1  0  0  0  0
 12 17  2  0  0  0  0
 12 13  1  0  0  0  0
 13 14  1  0  0  0  0
 13 15  1  0  0  0  0
 15 11  1  0  0  0  0
 16 15  2  0  0  0  0
 17 16  1  0  0  0  0
 18 19  1  0  0  0  0
 19 12  1  0  0  0  0
M  END
>  <MODEL>
1

>  <REMARK>
 VINA RESULT:      -6.0      0.000      0.000
  Name = ZINC14709525
                            x       y       z     vdW  Elec       q    Type
                         _______ _______ _______ _____ _____    ______ ____

>  <TORSDO>
F 7

>  <vina_score>
-6.0

$$$$
ZINC09216860
 OpenBabel01091701343D

 34 36  0  0  0  0  0  0  0  0999 V2000
    8.1750   12.4090   -0.8430 C   0  0  0  0  0  0  0  0  0  0  0  0
    9.3280   12.4880   -1.5370 N   0  0  0  0  0  0  0  0  0  0  0  0
   10.1690   12.1740   -1.1310 H   0  0  0  0  0  0  0  0  0  0  0  0
    7.1370   12.7960   -1.3440 O   0  0  0  0  0  0  0  0  0  0  0  0
    9.1080   12.2920    1.4630 C   0  0  0  0  0  0  0  0  0  0  0  0
    8.1730   11.8510    0.5240 C   0  0  0  0  0  0  0  0  0  0  0  0
    7.2290   10.8860    0.8870 C   0  0  0  0  0  0  0  0  0  0  0  0
    6.0580   10.3370   -0.2710 Cl  0  0  0  0  0  0  0  0  0  0  0  0
    7.2360   10.3650    2.1660 C   0  0  0  0  0  0  0  0  0  0  0  0
    8.1670   10.8070    3.0900 C   0  0  0  0  0  0  0  0  0  0  0  0
    8.1650   10.1530    4.6990 Cl  0  0  0  0  0  0  0  0  0  0  0  0
    9.1010   11.7690    2.7380 C   0  0  0  0  0  0  0  0  0  0  0  0
   10.2810   12.3220    3.9230 S   0  0  0  0  0  0  0  0  0  0  0  0
    9.5930   12.4270    5.1620 O   0  0  0  0  0  0  0  0  0  0  0  0
   10.9610   13.4230    3.3340 O   0  0  0  0  0  0  0  0  0  0  0  0
   11.3990   11.1150    4.1020 N   0  0  0  0  0  0  0  0  0  0  0  0
   10.9960   10.2750    3.6870 H   0  0  0  0  0  0  0  0  0  0  0  0
   12.7390   11.2670    3.5300 C   0  0  0  0  0  0  0  0  0  0  0  0
   13.2450   10.1540    2.6100 C   0  0  0  0  0  0  0  0  0  0  0  0
   13.8280   10.3080    4.0160 C   0  0  0  0  0  0  0  0  0  0  0  0
    9.3300   13.0400   -2.8930 C   0  0  0  0  0  0  0  0  0  0  0  0
   10.7550   13.0120   -3.4530 C   0  0  0  0  0  0  0  0  0  0  0  0
   11.5410   14.2040   -2.9040 C   0  0  0  0  0  0  0  0  0  0  0  0
   10.7630   14.8460   -1.7840 C   0  0  0  0  0  0  0  0  0  0  0  0
   11.0150   14.6880   -0.4010 C   0  0  0  0  0  0  0  0  0  0  0  0
   10.0660   15.4510    0.2750 C   0  0  0  0  0  0  0  0  0  0  0  0
    9.2870   16.0350   -0.6590 N   0  0  0  0  0  0  0  0  0  0  0  0
    8.5270   16.6350   -0.4810 H   0  0  0  0  0  0  0  0  0  0  0  0
    9.7410   15.6430   -1.9240 N   0  0  0  0  0  0  0  0  0  0  0  0
    9.9460   15.5840    1.6450 N   0  0  0  0  0  0  0  0  0  0  0  0
   10.3510   16.3570    2.1010 H   0  0  0  0  0  0  0  0  0  0  0  0
    9.4560   14.9070    2.1640 H   0  0  0  0  0  0  0  0  0  0  0  0
   12.0490   13.8950    0.1900 C   0  0  0  0  0  0  0  0  0  0  0  0
   12.8700   13.2650    0.6600 N   0  0  0  0  0  0  0  0  0  0  0  0
  1  6  1  0  0  0  0
  2  3  1  0  0  0  0
  2  1  1  0  0  0  0
  4  1  2  0  0  0  0
  5 12  2  0  0  0  0
  6  7  2  0  0  0  0
  6  5  1  0  0  0  0
  7  9  1  0  0  0  0
  8  7  1  0  0  0  0
  9 10  2  0  0  0  0
 10 11  1  0  0  0  0
 12 10  1  0  0  0  0
 12 13  1  0  0  0  0
 13 16  1  0  0  0  0
 13 14  2  0  0  0  0
 15 13  2  0  0  0  0
 17 16  1  0  0  0  0
 18 20  1  0  0  0  0
 18 16  1  0  0  0  0
 19 18  1  0  0  0  0
 19 20  1  0  0  0  0
 21  2  1  0  0  0  0
 22 23  1  0  0  0  0
 22 21  1  0  0  0  0
 23 24  1  0  0  0  0
 24 25  1  0  0  0  0
 25 33  1  0  0  0  0
 25 26  2  0  0  0  0
 26 30  1  0  0  0  0
 27 28  1  0  0  0  0
 27 26  1  0  0  0  0
 29 24  2  0  0  0  0
 29 27  1  0  0  0  0
 30 31  1  0  0  0  0
 30 32  1  0  0  0  0
 33 34  3  0  0  0  0
M  END
>  <MODEL>
1

>  <REMARK>
 VINA RESULT:      -5.9      0.000      0.000
  Name = ZINC09216860
                            x       y       z     vdW  Elec       q    Type
                         _______ _______ _______ _____ _____    ______ ____

>  <TORSDO>
F 10

>  <vina_score>
-5.9

$$$$
ZINC02267972
 OpenBabel01091701333D

 23 23  0  0  0  0  0  0  0  0999 V2000
   10.4480   13.9030    2.6880 N   0  0  0  0  0  0  0  0  0  0  0  0
   10.4470   14.7060    3.2570 H   0  0  0  0  0  0  0  0  0  0  0  0
   10.1430   14.0020    1.3790 C   0  0  0  0  0  0  0  0  0  0  0  0
   10.1460   12.9020    0.6010 N   0  0  0  0  0  0  0  0  0  0  0  0
   10.3050   12.0170    1.0010 H   0  0  0  0  0  0  0  0  0  0  0  0
    9.8650   15.0840    0.9000 O   0  0  0  0  0  0  0  0  0  0  0  0
    9.9250   13.0190   -0.7760 C   0  0  0  0  0  0  0  0  0  0  0  0
   11.0000   13.1420   -1.6460 C   0  0  0  0  0  0  0  0  0  0  0  0
   10.7780   13.2530   -3.0040 C   0  0  0  0  0  0  0  0  0  0  0  0
    9.4870   13.2500   -3.4980 C   0  0  0  0  0  0  0  0  0  0  0  0
    8.4130   13.1340   -2.6340 C   0  0  0  0  0  0  0  0  0  0  0  0
    8.6290   13.0180   -1.2750 C   0  0  0  0  0  0  0  0  0  0  0  0
   10.7610   12.6860    3.2260 N   0  0  0  0  0  0  0  0  0  0  0  0
   12.1970   12.5940    3.5190 C   0  0  0  0  0  0  0  0  0  0  0  0
   12.8820   11.8040    2.4350 C   0  0  0  0  0  0  0  0  0  0  0  0
   13.0340   12.2880    1.3380 O   0  0  0  0  0  0  0  0  0  0  0  0
   13.5720   10.2180    4.0760 C   0  0  0  0  0  0  0  0  0  0  0  0
   13.3230   10.5610    2.6870 O   0  0  0  0  0  0  0  0  0  0  0  0
    9.9600   12.4220    4.4290 C   0  0  0  0  0  0  0  0  0  0  0  0
    8.8260   11.4900    4.0820 C   0  0  0  0  0  0  0  0  0  0  0  0
    8.4860   10.6350    4.8650 O   0  0  0  0  0  0  0  0  0  0  0  0
    8.1950   11.6110    2.9030 O   0  0  0  0  0  0  0  0  0  0  0  0
    7.9910   10.3950    2.1370 C   0  0  0  0  0  0  0  0  0  0  0  0
  1 13  1  0  0  0  0
  1  2  1  0  0  0  0
  3  1  1  0  0  0  0
  4  5  1  0  0  0  0
  4  3  1  0  0  0  0
  6  3  2  0  0  0  0
  7  4  1  0  0  0  0
  8  7  2  0  0  0  0
  9  8  1  0  0  0  0
 10  9  2  0  0  0  0
 10 11  1  0  0  0  0
 11 12  2  0  0  0  0
 12  7  1  0  0  0  0
 13 14  1  0  0  0  0
 13 19  1  0  0  0  0
 15 18  1  0  0  0  0
 15 14  1  0  0  0  0
 16 15  2  0  0  0  0
 18 17  1  0  0  0  0
 20 19  1  0  0  0  0
 20 21  2  0  0  0  0
 22 20  1  0  0  0  0
 23 22  1  0  0  0  0
M  END
>  <MODEL>
1

>  <REMARK>
 VINA RESULT:      -5.9      0.000      0.000
  Name = ZINC02267972
                            x       y       z     vdW  Elec       q    Type
                         _______ _______ _______ _____ _____    ______ ____

>  <TORSDO>
F 8

>  <vina_score>
-5.9

$$$$
ZINC19504327
 OpenBabel01091701353D

 20 20  0  0  1  0  0  0  0  0999 V2000
    9.0570   13.5290   -1.5850 C   0  0  0  0  0  0  0  0  0  0  0  0
    8.4510   12.4530   -0.9570 C   0  0  0  0  0  0  0  0  0  0  0  0
    8.7710   12.1490    0.3540 C   0  0  0  0  0  0  0  0  0  0  0  0
    9.6970   12.9140    1.0380 C   0  0  0  0  0  0  0  0  0  0  0  0
   10.3090   13.9850    0.4140 C   0  0  0  0  0  0  0  0  0  0  0  0
    9.9950   14.2950   -0.8990 C   0  0  0  0  0  0  0  0  0  0  0  0
    9.3100   13.0080   -3.8920 C   0  0  0  0  0  0  0  0  0  0  0  0
    8.7410   13.8330   -2.8730 O   0  0  0  0  0  0  0  0  0  0  0  0
   10.0420   12.5780    2.4660 C   0  0  1  0  0  0  0  0  0  0  0  0
   11.1300   13.4520    2.9250 N   0  0  0  0  0  0  0  0  0  0  0  0
   11.3890   14.0940    2.1740 H   0  0  0  0  0  0  0  0  0  0  0  0
   10.8170   13.9870    3.7360 H   0  0  0  0  0  0  0  0  0  0  0  0
   11.9360   12.8850    3.1820 H   0  0  0  0  0  0  0  0  0  0  0  0
    8.8310   12.7830    3.3380 C   0  0  0  0  0  0  0  0  0  0  0  0
    7.9560   13.7610    3.0520 O   0  0  0  0  0  0  0  0  0  0  0  0
    8.6460   12.0690    4.2950 O   0  0  0  0  0  0  0  0  0  0  0  0
   10.5960   15.3490   -1.5140 O   0  0  0  0  0  0  0  0  0  0  0  0
   11.9380   15.1580   -1.9630 C   0  0  0  0  0  0  0  0  0  0  0  0
   12.8260   15.4540   -0.9230 F   0  0  0  0  0  0  0  0  0  0  0  0
   12.1130   13.8280   -2.3600 F   0  0  0  0  0  0  0  0  0  0  0  0
  1  2  2  0  0  0  0
  1  6  1  0  0  0  0
  2  3  1  0  0  0  0
  3  4  2  0  0  0  0
  5  4  1  0  0  0  0
  6  5  2  0  0  0  0
  7  8  1  0  0  0  0
  8  1  1  0  0  0  0
  9  4  1  6  0  0  0
  9 10  1  0  0  0  0
  9 14  1  0  0  0  0
 10 13  1  0  0  0  0
 10 12  1  0  0  0  0
 11 10  1  0  0  0  0
 14 16  1  0  0  0  0
 15 14  2  0  0  0  0
 17  6  1  0  0  0  0
 18 17  1  0  0  0  0
 18 19  1  0  0  0  0
 20 18  1  0  0  0  0
M  END
>  <MODEL>
1

>  <REMARK>
 VINA RESULT:      -5.9      0.000      0.000
  Name = ZINC19504327
                            x       y       z     vdW  Elec       q    Type
                         _______ _______ _______ _____ _____    ______ ____

>  <TORSDO>
F 6

>  <vina_score>
-5.9

$$$$
ZINC31820560
 OpenBabel01091701363D

 20 20  0  0  1  0  0  0  0  0999 V2000
    9.1820   13.9860    0.3120 C   0  0  0  0  0  0  0  0  0  0  0  0
    8.2340   13.1470   -0.0820 N   0  0  0  0  0  0  0  0  0  0  0  0
    7.7100   12.6550    0.5900 H   0  0  0  0  0  0  0  0  0  0  0  0
    7.9820   12.9610   -1.3760 C   0  0  1  0  0  0  0  0  0  0  0  0
    8.7380   13.6520   -2.3190 C   0  0  0  0  0  0  0  0  0  0  0  0
    9.7290   14.5200   -1.8680 C   0  0  0  0  0  0  0  0  0  0  0  0
    9.9190   14.6600   -0.5580 N   0  0  0  0  0  0  0  0  0  0  0  0
    6.9860   12.0860   -1.7790 N   0  0  0  0  0  0  0  0  0  0  0  0
    6.0590   12.2220   -1.4760 H   0  0  0  0  0  0  0  0  0  0  0  0
    7.2040   11.3280   -2.3680 H   0  0  0  0  0  0  0  0  0  0  0  0
   10.5040   15.2290   -2.7710 N   0  0  0  0  0  0  0  0  0  0  0  0
   10.3230   15.1600   -3.7360 H   0  0  0  0  0  0  0  0  0  0  0  0
   11.2370   15.8030   -2.4480 H   0  0  0  0  0  0  0  0  0  0  0  0
    9.4720   14.2040    2.0350 S   0  0  0  0  0  0  0  0  0  0  0  0
    9.9610   12.5210    2.4870 C   0  0  0  0  0  0  0  0  0  0  0  0
    8.8300   11.8490    3.2230 C   0  0  0  0  0  0  0  0  0  0  0  0
    8.6520   12.0800    4.4010 O   0  0  0  0  0  0  0  0  0  0  0  0
    8.0220   10.9890    2.5750 N   0  0  0  0  0  0  0  0  0  0  0  0
    6.0910   10.4510    1.2790 C   0  0  0  0  0  0  0  0  0  0  0  0
    6.9170   11.4770    1.8350 O   0  0  0  0  0  0  0  0  0  0  0  0
  1 14  1  0  0  0  0
  2  1  1  0  0  0  0
  2  3  1  0  0  0  0
  4  8  1  6  0  0  0
  4  2  1  0  0  0  0
  5  6  2  0  0  0  0
  5  4  1  0  0  0  0
  6  7  1  0  0  0  0
  7  1  2  0  0  0  0
  8  9  1  0  0  0  0
 10  8  1  0  0  0  0
 11 13  1  0  0  0  0
 11  6  1  0  0  0  0
 12 11  1  0  0  0  0
 14 15  1  0  0  0  0
 15 16  1  0  0  0  0
 16 17  2  0  0  0  0
 18 16  1  0  0  0  0
 19 20  1  0  0  0  0
 20 18  1  0  0  0  0
M  END
>  <MODEL>
1

>  <REMARK>
 VINA RESULT:      -5.9      0.000      0.000
  Name = ZINC31820560
                            x       y       z     vdW  Elec       q    Type
                         _______ _______ _______ _____ _____    ______ ____

>  <TORSDO>
F 7

>  <vina_score>
-5.9

$$$$
ZINC02033672
 OpenBabel01091701363D

 22 22  0  0  1  0  0  0  0  0999 V2000
    9.7030   14.8990    2.4980 C   0  0  0  0  0  0  0  0  0  0  0  0
    8.4500   14.1390    2.4700 N   0  0  0  0  0  0  0  0  0  0  0  0
    7.6040   14.5750    2.7210 H   0  0  0  0  0  0  0  0  0  0  0  0
   10.9650   10.1550    1.6030 C   0  0  0  0  0  0  0  0  0  0  0  0
    9.6490   10.8860    1.6680 C   0  0  0  0  0  0  0  0  0  0  0  0
    8.4680   10.2350    1.3520 C   0  0  0  0  0  0  0  0  0  0  0  0
    7.2790   10.9450    1.4260 C   0  0  0  0  0  0  0  0  0  0  0  0
    5.9710   10.2780    1.0920 C   0  0  0  0  0  0  0  0  0  0  0  0
    7.3090   12.2150    1.7930 N   0  0  0  0  0  0  0  0  0  0  0  0
    8.4560   12.8090    2.0890 C   0  0  0  0  0  0  0  0  0  0  0  0
    9.6100   12.1600    2.0230 N   0  0  0  0  0  0  0  0  0  0  0  0
    9.4400   16.3340    2.0350 C   0  0  0  0  0  0  0  0  0  0  0  0
    9.7660   16.4560    0.5460 C   0  0  0  0  0  0  0  0  0  0  0  0
   10.5660   15.2310    0.0970 C   0  0  0  0  0  0  0  0  0  0  0  0
   10.0090   14.7170   -1.2320 C   0  0  2  0  0  0  0  0  0  0  0  0
    8.5950   15.1060   -1.3810 N   0  0  0  0  0  0  0  0  0  0  0  0
    8.4840   16.0870   -1.1250 H   0  0  0  0  0  0  0  0  0  0  0  0
    8.3060   14.9730   -2.3500 H   0  0  0  0  0  0  0  0  0  0  0  0
    8.0170   14.5290   -0.7710 H   0  0  0  0  0  0  0  0  0  0  0  0
   10.1080   13.2140   -1.2700 C   0  0  0  0  0  0  0  0  0  0  0  0
   11.2990   12.6160   -1.1060 O   0  0  0  0  0  0  0  0  0  0  0  0
    9.1170   12.5460   -1.4490 O   0  0  0  0  0  0  0  0  0  0  0  0
  2  1  1  0  0  0  0
  2  3  1  0  0  0  0
  4  5  1  0  0  0  0
  5 11  2  0  0  0  0
  6  7  2  0  0  0  0
  6  5  1  0  0  0  0
  7  9  1  0  0  0  0
  8  7  1  0  0  0  0
  9 10  2  0  0  0  0
 10  2  1  0  0  0  0
 11 10  1  0  0  0  0
 12  1  1  0  0  0  0
 13 12  1  0  0  0  0
 14 13  1  0  0  0  0
 15 16  1  1  0  0  0
 15 14  1  0  0  0  0
 16 17  1  0  0  0  0
 16 19  1  0  0  0  0
 18 16  1  0  0  0  0
 20 15  1  0  0  0  0
 20 21  1  0  0  0  0
 22 20  2  0  0  0  0
M  END
>  <MODEL>
1

>  <REMARK>
 VINA RESULT:      -5.9      0.000      0.000
  Name = ZINC02033672
                            x       y       z     vdW  Elec       q    Type
                         _______ _______ _______ _____ _____    ______ ____

>  <TORSDO>
F 8

>  <vina_score>
-5.9

$$$$
ZINC05543801
 OpenBabel01091701393D

 30 32  0  0  1  0  0  0  0  0999 V2000
    8.9920   12.8330   -0.5670 C   0  0  0  0  0  0  0  0  0  0  0  0
    9.9010   12.7810    0.4680 C   0  0  0  0  0  0  0  0  0  0  0  0
   10.8510   13.7760    0.2430 C   0  0  0  0  0  0  0  0  0  0  0  0
   10.5010   14.4240   -0.9260 C   0  0  0  0  0  0  0  0  0  0  0  0
    9.3610   13.8420   -1.4120 N   0  0  0  0  0  0  0  0  0  0  0  0
    8.8870   14.1060   -2.2320 H   0  0  0  0  0  0  0  0  0  0  0  0
    9.8770   11.8200    1.6290 C   0  0  2  0  0  0  0  0  0  0  0  0
    9.9310   12.5890    2.9690 C   0  0  0  0  0  0  0  0  0  0  0  0
   10.8000   11.6470    3.8350 C   0  0  0  0  0  0  0  0  0  0  0  0
   11.6270   10.8960    2.8840 N   0  0  0  0  0  0  0  0  0  0  0  0
   11.1270   10.9690    1.6380 C   0  0  0  0  0  0  0  0  0  0  0  0
   11.6080   10.4310    0.6640 O   0  0  0  0  0  0  0  0  0  0  0  0
   12.8400   10.1580    3.2460 C   0  0  0  0  0  0  0  0  0  0  0  0
   13.7870   11.0750    3.9760 C   0  0  0  0  0  0  0  0  0  0  0  0
   14.7140   10.5520    4.8580 C   0  0  0  0  0  0  0  0  0  0  0  0
   15.5770   11.3940    5.5330 C   0  0  0  0  0  0  0  0  0  0  0  0
   15.5150   12.7590    5.3250 C   0  0  0  0  0  0  0  0  0  0  0  0
   14.5890   13.2830    4.4430 C   0  0  0  0  0  0  0  0  0  0  0  0
   13.7240   12.4400    3.7690 C   0  0  0  0  0  0  0  0  0  0  0  0
   11.2280   15.5450   -1.5410 C   0  0  0  0  0  0  0  0  0  0  0  0
   11.9990   15.3330   -2.6260 O   0  0  0  0  0  0  0  0  0  0  0  0
   11.1330   16.6620   -1.0700 O   0  0  0  0  0  0  0  0  0  0  0  0
    7.8190   11.9530   -0.7340 C   0  0  0  0  0  0  0  0  0  0  0  0
    6.9200   12.2730   -1.4910 O   0  0  0  0  0  0  0  0  0  0  0  0
    7.7390   10.7390   -0.0130 C   0  0  0  0  0  0  0  0  0  0  0  0
    7.1640   10.1540    2.3240 C   0  0  0  0  0  0  0  0  0  0  0  0
    6.7830   10.5750    0.9290 C   0  0  2  0  0  0  0  0  0  0  0  0
    5.4710   10.7910    0.6160 N   0  0  0  0  0  0  0  0  0  0  0  0
    5.2220   11.0660   -0.2970 H   0  0  0  0  0  0  0  0  0  0  0  0
    4.7750   10.6710    1.3010 H   0  0  0  0  0  0  0  0  0  0  0  0
  1  2  2  0  0  0  0
  3  2  1  0  0  0  0
  4  3  2  0  0  0  0
  5  4  1  0  0  0  0
  5  1  1  0  0  0  0
  6  5  1  0  0  0  0
  7  2  1  6  0  0  0
  7 11  1  0  0  0  0
  7  8  1  0  0  0  0
  8  9  1  0  0  0  0
 10 13  1  0  0  0  0
 10  9  1  0  0  0  0
 11 10  1  0  0  0  0
 12 11  2  0  0  0  0
 13 14  1  0  0  0  0
 14 15  1  0  0  0  0
 15 16  2  0  0  0  0
 17 16  1  0  0  0  0
 18 17  2  0  0  0  0
 19 14  2  0  0  0  0
 19 18  1  0  0  0  0
 20 22  1  0  0  0  0
 20  4  1  0  0  0  0
 21 20  2  0  0  0  0
 23  1  1  0  0  0  0
 23 25  1  0  0  0  0
 24 23  2  0  0  0  0
 27 25  1  6  0  0  0
 27 26  1  0  0  0  0
 28 27  1  0  0  0  0
 28 30  1  0  0  0  0
 29 28  1  0  0  0  0
M  END
>  <MODEL>
1

>  <REMARK>
 VINA RESULT:      -5.9      0.000      0.000
  Name = ZINC05543801
                            x       y       z     vdW  Elec       q    Type
                         _______ _______ _______ _____ _____    ______ ____

>  <TORSDO>
F 7

>  <vina_score>
-5.9

$$$$
ZINC20843205
 OpenBabel01091701413D

 20 21  0  0  0  0  0  0  0  0999 V2000
   11.1510   13.8420   -0.6840 C   0  0  0  0  0  0  0  0  0  0  0  0
   12.2660   13.2040   -0.4650 N   0  0  0  0  0  0  0  0  0  0  0  0
   12.3660   12.9040    0.7800 N   0  0  0  0  0  0  0  0  0  0  0  0
   11.3100   13.3390    1.4300 C   0  0  0  0  0  0  0  0  0  0  0  0
   10.5000   13.9450    0.5140 N   0  0  0  0  0  0  0  0  0  0  0  0
    9.2900   14.5360    0.7470 N   0  0  0  0  0  0  0  0  0  0  0  0
    9.0060   15.3060    0.2020 H   0  0  0  0  0  0  0  0  0  0  0  0
    8.7020   14.1920    1.4570 H   0  0  0  0  0  0  0  0  0  0  0  0
   10.8870   13.2980   -3.0890 C   0  0  0  0  0  0  0  0  0  0  0  0
   10.6660   14.3620   -2.0120 C   0  0  0  0  0  0  0  0  0  0  0  0
   10.9960   13.1640    3.1550 S   0  0  0  0  0  0  0  0  0  0  0  0
   10.2480   11.5160    3.1740 C   0  0  0  0  0  0  0  0  0  0  0  0
    8.9940   11.5250    2.3390 C   0  0  0  0  0  0  0  0  0  0  0  0
    7.9590   12.2990    2.5100 N   0  0  0  0  0  0  0  0  0  0  0  0
    7.0730   12.0330    1.6150 N   0  0  0  0  0  0  0  0  0  0  0  0
    7.5140   11.0810    0.8410 C   0  0  0  0  0  0  0  0  0  0  0  0
    8.7360   10.7380    1.2800 O   0  0  0  0  0  0  0  0  0  0  0  0
    6.7850   10.4770   -0.3300 C   0  0  0  0  0  0  0  0  0  0  0  0
    6.4050   11.5110   -1.2410 O   0  0  0  0  0  0  0  0  0  0  0  0
    7.4850   12.3580   -1.6430 C   0  0  0  0  0  0  0  0  0  0  0  0
  1  2  2  0  0  0  0
  1  5  1  0  0  0  0
  2  3  1  0  0  0  0
  3  4  2  0  0  0  0
  4 11  1  0  0  0  0
  5  6  1  0  0  0  0
  5  4  1  0  0  0  0
  6  8  1  0  0  0  0
  7  6  1  0  0  0  0
  9 10  1  0  0  0  0
 10  1  1  0  0  0  0
 11 12  1  0  0  0  0
 13 14  2  0  0  0  0
 13 12  1  0  0  0  0
 15 14  1  0  0  0  0
 16 17  1  0  0  0  0
 16 15  2  0  0  0  0
 17 13  1  0  0  0  0
 18 16  1  0  0  0  0
 19 18  1  0  0  0  0
 20 19  1  0  0  0  0
M  END
>  <MODEL>
1

>  <REMARK>
 VINA RESULT:      -5.9      0.000      0.000
  Name = ZINC20843205
                            x       y       z     vdW  Elec       q    Type
                         _______ _______ _______ _____ _____    ______ ____

>  <TORSDO>
F 7

>  <vina_score>
-5.9

$$$$
ZINC29496759
 OpenBabel01091701483D

 22 22  0  0  1  0  0  0  0  0999 V2000
   10.5800   13.3970    1.0850 N   0  0  0  0  0  0  0  0  0  0  0  0
   11.6440   13.6950    0.3140 C   0  0  0  0  0  0  0  0  0  0  0  0
   12.5670   12.9130    0.2270 O   0  0  0  0  0  0  0  0  0  0  0  0
   10.5360   12.1300    1.8170 C   0  0  2  0  0  0  0  0  0  0  0  0
    9.1890   11.4370    1.5570 C   0  0  0  0  0  0  0  0  0  0  0  0
    9.0370   10.2710    2.5770 C   0  0  0  0  0  0  0  0  0  0  0  0
    9.7040   11.0660    4.0990 S   0  0  0  0  0  0  0  0  0  0  0  0
    8.6310   11.6500    4.8240 O   0  0  0  0  0  0  0  0  0  0  0  0
   10.5770   10.1540    4.7530 O   0  0  0  0  0  0  0  0  0  0  0  0
   10.7050   12.4050    3.3310 C   0  0  0  0  0  0  0  0  0  0  0  0
    9.4650   14.3430    1.1910 C   0  0  0  0  0  0  0  0  0  0  0  0
    9.4740   16.5850    2.2910 C   0  0  0  0  0  0  0  0  0  0  0  0
    9.5430   15.0760    2.5310 C   0  0  0  0  0  0  0  0  0  0  0  0
   11.6890   15.0000   -0.4390 C   0  0  0  0  0  0  0  0  0  0  0  0
   11.8730   14.6690   -2.2090 S   0  0  0  0  0  0  0  0  0  0  0  0
   10.2070   14.2700   -2.6210 C   0  0  0  0  0  0  0  0  0  0  0  0
    9.2230   14.8430   -1.9850 N   0  0  0  0  0  0  0  0  0  0  0  0
    9.4110   15.4990   -1.2750 H   0  0  0  0  0  0  0  0  0  0  0  0
    7.8380   14.5110   -2.3280 C   0  0  0  0  0  0  0  0  0  0  0  0
    9.9450   13.3540   -3.6130 N   0  0  0  0  0  0  0  0  0  0  0  0
    9.0140   13.1680   -3.8770 H   0  0  0  0  0  0  0  0  0  0  0  0
   10.6860   12.8840   -4.0590 H   0  0  0  0  0  0  0  0  0  0  0  0
  1 11  1  0  0  0  0
  2  1  1  0  0  0  0
  3  2  2  0  0  0  0
  4  1  1  6  0  0  0
  4 10  1  0  0  0  0
  5  4  1  0  0  0  0
  5  6  1  0  0  0  0
  6  7  1  0  0  0  0
  7  9  2  0  0  0  0
  7  8  2  0  0  0  0
 10  7  1  0  0  0  0
 11 13  1  0  0  0  0
 12 13  1  0  0  0  0
 14  2  1  0  0  0  0
 15 14  1  0  0  0  0
 16 15  1  0  0  0  0
 16 17  1  0  0  0  0
 17 18  1  0  0  0  0
 19 17  1  0  0  0  0
 20 16  2  0  0  0  0
 21 20  1  0  0  0  0
 22 20  1  0  0  0  0
M  END
>  <MODEL>
1

>  <REMARK>
 VINA RESULT:      -5.9      0.000      0.000
  Name = ZINC29496759
                            x       y       z     vdW  Elec       q    Type
                         _______ _______ _______ _____ _____    ______ ____

>  <TORSDO>
F 7

>  <vina_score>
-5.9

$$$$
ZINC19844186
 OpenBabel01091701483D

 23 24  0  0  0  0  0  0  0  0999 V2000
    8.4920   12.8270    0.4950 N   0  0  0  0  0  0  0  0  0  0  0  0
    9.1820   13.5920    1.5430 C   0  0  0  0  0  0  0  0  0  0  0  0
    8.5660   13.2560    2.9060 C   0  0  0  0  0  0  0  0  0  0  0  0
    8.5910   11.7960    3.0830 N   0  0  0  0  0  0  0  0  0  0  0  0
    8.0400   10.9560    2.0080 C   0  0  0  0  0  0  0  0  0  0  0  0
    8.6770   11.3820    0.6820 C   0  0  0  0  0  0  0  0  0  0  0  0
   10.4480   14.4300   -2.1750 C   0  0  0  0  0  0  0  0  0  0  0  0
    9.7400   14.0200   -3.2970 C   0  0  0  0  0  0  0  0  0  0  0  0
    8.6290   13.2110   -3.1580 C   0  0  0  0  0  0  0  0  0  0  0  0
    8.2120   12.8150   -1.9010 C   0  0  0  0  0  0  0  0  0  0  0  0
    8.9130   13.2260   -0.7750 C   0  0  0  0  0  0  0  0  0  0  0  0
   10.0330   14.0350   -0.9130 C   0  0  0  0  0  0  0  0  0  0  0  0
   12.4470   15.2790   -1.2070 C   0  0  0  0  0  0  0  0  0  0  0  0
   11.5440   15.2210   -2.3140 O   0  0  0  0  0  0  0  0  0  0  0  0
    9.2230   11.1160    4.4540 S   0  0  0  0  0  0  0  0  0  0  0  0
    8.2060   10.2470    4.9300 O   0  0  0  0  0  0  0  0  0  0  0  0
    9.6590   12.2190    5.2370 O   0  0  0  0  0  0  0  0  0  0  0  0
   10.6510   10.1540    3.8820 C   0  0  0  0  0  0  0  0  0  0  0  0
   11.4780   10.9990    2.9110 C   0  0  0  0  0  0  0  0  0  0  0  0
   11.9290   12.2220    3.5880 N   0  0  0  0  0  0  0  0  0  0  0  0
   11.3770   12.3660    4.4340 H   0  0  0  0  0  0  0  0  0  0  0  0
   12.9140   12.1300    3.8370 H   0  0  0  0  0  0  0  0  0  0  0  0
   11.8090   13.0190    2.9640 H   0  0  0  0  0  0  0  0  0  0  0  0
  1  6  1  0  0  0  0
  1  2  1  0  0  0  0
  2  3  1  0  0  0  0
  3  4  1  0  0  0  0
  4 15  1  0  0  0  0
  5  4  1  0  0  0  0
  6  5  1  0  0  0  0
  7 12  2  0  0  0  0
  8  9  2  0  0  0  0
  8  7  1  0  0  0  0
  9 10  1  0  0  0  0
 10 11  2  0  0  0  0
 11  1  1  0  0  0  0
 12 11  1  0  0  0  0
 14  7  1  0  0  0  0
 14 13  1  0  0  0  0
 15 16  2  0  0  0  0
 15 17  2  0  0  0  0
 18 15  1  0  0  0  0
 19 20  1  0  0  0  0
 19 18  1  0  0  0  0
 20 22  1  0  0  0  0
 20 21  1  0  0  0  0
 23 20  1  0  0  0  0
M  END
>  <MODEL>
1

>  <REMARK>
 VINA RESULT:      -5.9      0.000      0.000
  Name = ZINC19844186
                            x       y       z     vdW  Elec       q    Type
                         _______ _______ _______ _____ _____    ______ ____

>  <TORSDO>
F 6

>  <vina_score>
-5.9

$$$$
ZINC04226539
 OpenBabel01091701243D

 24 25  0  0  1  0  0  0  0  0999 V2000
   11.6360   14.8440   -1.7130 C   0  0  0  0  0  0  0  0  0  0  0  0
   11.5440   13.8240   -0.6080 C   0  0  0  0  0  0  0  0  0  0  0  0
   12.4500   13.9420    0.3890 N   0  0  0  0  0  0  0  0  0  0  0  0
   13.1300   14.6530    0.3960 H   0  0  0  0  0  0  0  0  0  0  0  0
   12.3600   13.0040    1.3970 C   0  0  0  0  0  0  0  0  0  0  0  0
   13.2800   13.0860    2.4560 C   0  0  0  0  0  0  0  0  0  0  0  0
   13.2210   12.1610    3.4850 C   0  0  1  0  0  0  0  0  0  0  0  0
   12.2500   11.1450    3.4770 C   0  0  0  0  0  0  0  0  0  0  0  0
   11.3530   11.0500    2.4600 C   0  0  0  0  0  0  0  0  0  0  0  0
   11.3890   11.9750    1.4040 C   0  0  0  0  0  0  0  0  0  0  0  0
   10.4650   11.8990    0.3340 C   0  0  0  0  0  0  0  0  0  0  0  0
   10.5640   12.8410   -0.6760 C   0  0  0  0  0  0  0  0  0  0  0  0
   14.1870   12.2430    4.6000 C   0  0  0  0  0  0  0  0  0  0  0  0
   14.7520   11.1210    5.0850 O   0  0  0  0  0  0  0  0  0  0  0  0
   14.4710   13.3230    5.0800 O   0  0  0  0  0  0  0  0  0  0  0  0
    9.4950   10.9090    0.2950 N   0  0  0  0  0  0  0  0  0  0  0  0
    9.7590    9.9600    0.3060 H   0  0  0  0  0  0  0  0  0  0  0  0
    8.0780   11.2730    0.2350 C   0  0  0  0  0  0  0  0  0  0  0  0
    7.5350   11.4460    1.6550 C   0  0  0  0  0  0  0  0  0  0  0  0
    7.4340   12.8380    1.9610 O   0  0  0  0  0  0  0  0  0  0  0  0
    8.4100   13.3010    2.8960 C   0  0  0  0  0  0  0  0  0  0  0  0
    9.0650   14.5760    2.3610 C   0  0  0  0  0  0  0  0  0  0  0  0
   10.1160   14.9770    3.2430 O   0  0  0  0  0  0  0  0  0  0  0  0
    9.7860   14.9930    4.1540 H   0  0  0  0  0  0  0  0  0  0  0  0
  1  2  1  0  0  0  0
  2  3  1  0  0  0  0
  3  4  1  0  0  0  0
  3  5  1  0  0  0  0
  5 10  1  0  0  0  0
  5  6  2  0  0  0  0
  6  7  1  0  0  0  0
  7 13  1  6  0  0  0
  8  7  1  0  0  0  0
  9  8  2  0  0  0  0
 10  9  1  0  0  0  0
 11 10  2  0  0  0  0
 12  2  2  0  0  0  0
 12 11  1  0  0  0  0
 13 15  2  0  0  0  0
 13 14  1  0  0  0  0
 16 17  1  0  0  0  0
 16 11  1  0  0  0  0
 18 16  1  0  0  0  0
 18 19  1  0  0  0  0
 19 20  1  0  0  0  0
 20 21  1  0  0  0  0
 22 21  1  0  0  0  0
 22 23  1  0  0  0  0
 23 24  1  0  0  0  0
M  END
>  <MODEL>
1

>  <REMARK>
 VINA RESULT:      -5.9      0.000      0.000
  Name = ZINC04226539
                            x       y       z     vdW  Elec       q    Type
                         _______ _______ _______ _____ _____    ______ ____

>  <TORSDO>
F 8

>  <vina_score>
-5.9

$$$$
ZINC29005505
 OpenBabel01091701263D

 31 32  0  0  0  0  0  0  0  0999 V2000
   10.5400   12.7580    2.3550 C   0  0  0  0  0  0  0  0  0  0  0  0
   11.6420   12.1290    2.9740 C   0  0  0  0  0  0  0  0  0  0  0  0
   12.9020   12.7780    3.0470 C   0  0  0  0  0  0  0  0  0  0  0  0
   13.9290   12.1450    3.6510 N   0  0  0  0  0  0  0  0  0  0  0  0
   14.8040   12.5910    3.7140 H   0  0  0  0  0  0  0  0  0  0  0  0
   13.7720   10.9160    4.1690 C   0  0  0  0  0  0  0  0  0  0  0  0
   12.5970   10.2660    4.1160 N   0  0  0  0  0  0  0  0  0  0  0  0
   12.5220    9.3660    4.5060 H   0  0  0  0  0  0  0  0  0  0  0  0
   15.1090   10.1540    4.9200 S   0  0  0  0  0  0  0  0  0  0  0  0
   13.0530   13.8900    2.5760 O   0  0  0  0  0  0  0  0  0  0  0  0
   11.5200   10.8310    3.5340 C   0  0  0  0  0  0  0  0  0  0  0  0
   10.4590   10.2360    3.4890 O   0  0  0  0  0  0  0  0  0  0  0  0
    8.7820   11.4750    1.3580 C   0  0  0  0  0  0  0  0  0  0  0  0
    9.2700   12.1710    2.4250 C   0  0  0  0  0  0  0  0  0  0  0  0
    8.5300   12.2910    3.5490 F   0  0  0  0  0  0  0  0  0  0  0  0
    6.9270   10.5200    0.2340 C   0  0  0  0  0  0  0  0  0  0  0  0
    7.5970   10.8350    1.4560 O   0  0  0  0  0  0  0  0  0  0  0  0
    9.4810   11.4260    0.2070 O   0  0  0  0  0  0  0  0  0  0  0  0
    9.6600   12.2150   -0.2660 H   0  0  0  0  0  0  0  0  0  0  0  0
   10.7120   13.9430    1.6840 N   0  0  0  0  0  0  0  0  0  0  0  0
   11.5250   14.0920    1.1470 H   0  0  0  0  0  0  0  0  0  0  0  0
    9.6880   14.9880    1.7680 C   0  0  0  0  0  0  0  0  0  0  0  0
    9.7520   15.8660    0.5160 C   0  0  0  0  0  0  0  0  0  0  0  0
   10.9600   15.4610   -0.3310 C   0  0  0  0  0  0  0  0  0  0  0  0
   10.4990   14.9030   -1.6090 N   0  0  0  0  0  0  0  0  0  0  0  0
   10.6450   15.6110   -2.3290 H   0  0  0  0  0  0  0  0  0  0  0  0
    9.0620   14.5930   -1.5600 C   0  0  0  0  0  0  0  0  0  0  0  0
    8.6130   14.0710   -2.9270 C   0  0  0  0  0  0  0  0  0  0  0  0
    9.4010   12.9320   -3.2810 O   0  0  0  0  0  0  0  0  0  0  0  0
   10.8050   13.1980   -3.3380 C   0  0  0  0  0  0  0  0  0  0  0  0
   11.2770   13.7110   -1.9740 C   0  0  0  0  0  0  0  0  0  0  0  0
  1 14  1  0  0  0  0
  1  2  1  0  0  0  0
  2  3  1  0  0  0  0
  2 11  1  0  0  0  0
  3  4  1  0  0  0  0
  4  5  1  0  0  0  0
  4  6  1  0  0  0  0
  6  9  2  0  0  0  0
  7  6  1  0  0  0  0
  7  8  1  0  0  0  0
 10  3  2  0  0  0  0
 11  7  1  0  0  0  0
 12 11  2  0  0  0  0
 13 17  1  0  0  0  0
 13 14  2  0  0  0  0
 14 15  1  0  0  0  0
 16 17  1  0  0  0  0
 18 13  1  0  0  0  0
 19 18  1  0  0  0  0
 20 22  1  0  0  0  0
 20  1  2  0  0  0  0
 21 20  1  0  0  0  0
 23 22  1  0  0  0  0
 24 23  1  0  0  0  0
 25 27  1  0  0  0  0
 25 24  1  0  0  0  0
 26 25  1  0  0  0  0
 28 27  1  0  0  0  0
 29 28  1  0  0  0  0
 30 29  1  0  0  0  0
 30 31  1  0  0  0  0
 31 25  1  0  0  0  0
M  END
>  <MODEL>
1

>  <REMARK>
 VINA RESULT:      -5.9      0.000      0.000
  Name = ZINC29005505
                            x       y       z     vdW  Elec       q    Type
                         _______ _______ _______ _____ _____    ______ ____

>  <TORSDO>
F 8

>  <vina_score>
-5.9

$$$$
ZINC12409987
 OpenBabel01091701183D

 29 30  0  0  1  0  0  0  0  0999 V2000
   11.2010   15.0930   -1.4880 C   0  0  1  0  0  0  0  0  0  0  0  0
   11.0030   13.9830   -2.5130 C   0  0  0  0  0  0  0  0  0  0  0  0
    9.7860   13.5100   -2.5580 N   0  0  0  0  0  0  0  0  0  0  0  0
    8.7930   13.9360   -1.7950 C   0  0  0  0  0  0  0  0  0  0  0  0
   11.8990   13.5730   -3.2250 O   0  0  0  0  0  0  0  0  0  0  0  0
    9.4950   15.1820   -0.8110 S   0  0  0  0  0  0  0  0  0  0  0  0
    7.4970   13.4920   -1.7840 N   0  0  0  0  0  0  0  0  0  0  0  0
    6.7670   14.1010   -2.0390 H   0  0  0  0  0  0  0  0  0  0  0  0
    7.2160   12.1920   -1.4160 C   0  0  0  0  0  0  0  0  0  0  0  0
    8.2000   11.4940   -0.8690 N   0  0  0  0  0  0  0  0  0  0  0  0
    8.0470   10.5630   -0.5910 H   0  0  0  0  0  0  0  0  0  0  0  0
    9.0840   11.9070   -0.7410 H   0  0  0  0  0  0  0  0  0  0  0  0
    5.9590   11.6760   -1.6220 N   0  0  0  0  0  0  0  0  0  0  0  0
    5.8500   10.8200   -2.0970 H   0  0  0  0  0  0  0  0  0  0  0  0
    5.1670   12.1610   -1.2940 H   0  0  0  0  0  0  0  0  0  0  0  0
   12.2090   14.6860   -0.4110 C   0  0  0  0  0  0  0  0  0  0  0  0
   10.7920   13.9070    1.4610 N   0  0  0  0  0  0  0  0  0  0  0  0
   10.5100   14.8400    1.5970 H   0  0  0  0  0  0  0  0  0  0  0  0
   11.6180   13.5940    0.4430 C   0  0  0  0  0  0  0  0  0  0  0  0
   11.8870   12.4330    0.2150 O   0  0  0  0  0  0  0  0  0  0  0  0
   10.9710   12.6920    3.5470 C   0  0  0  0  0  0  0  0  0  0  0  0
   10.5140   11.7000    4.4000 C   0  0  0  0  0  0  0  0  0  0  0  0
    9.4260   10.9270    4.0410 C   0  0  0  0  0  0  0  0  0  0  0  0
    8.7960   11.1320    2.8260 C   0  0  0  0  0  0  0  0  0  0  0  0
    7.4350   10.1530    2.3790 Cl  0  0  0  0  0  0  0  0  0  0  0  0
    9.2460   12.1210    1.9700 C   0  0  0  0  0  0  0  0  0  0  0  0
   10.3350   12.9040    2.3260 C   0  0  0  0  0  0  0  0  0  0  0  0
   13.3350   12.8830    3.7310 C   0  0  0  0  0  0  0  0  0  0  0  0
   12.0370   13.4570    3.9030 O   0  0  0  0  0  0  0  0  0  0  0  0
  1  6  1  0  0  0  0
  1 16  1  1  0  0  0
  2  1  1  0  0  0  0
  3  2  1  0  0  0  0
  3  4  2  0  0  0  0
  4  7  1  0  0  0  0
  4  6  1  0  0  0  0
  5  2  2  0  0  0  0
  7  9  1  0  0  0  0
  8  7  1  0  0  0  0
  9 10  1  0  0  0  0
 10 12  1  0  0  0  0
 10 11  1  0  0  0  0
 13  9  2  0  0  0  0
 13 15  1  0  0  0  0
 14 13  1  0  0  0  0
 16 19  1  0  0  0  0
 17 18  1  0  0  0  0
 17 27  1  0  0  0  0
 19 17  1  0  0  0  0
 20 19  2  0  0  0  0
 21 29  1  0  0  0  0
 21 22  2  0  0  0  0
 23 22  1  0  0  0  0
 24 23  2  0  0  0  0
 25 24  1  0  0  0  0
 26 27  2  0  0  0  0
 26 24  1  0  0  0  0
 27 21  1  0  0  0  0
 28 29  1  0  0  0  0
M  END
>  <MODEL>
1

>  <REMARK>
 VINA RESULT:      -5.9      0.000      0.000
  Name = ZINC12409987
                            x       y       z     vdW  Elec       q    Type
                         _______ _______ _______ _____ _____    ______ ____

>  <TORSDO>
F 7

>  <vina_score>
-5.9

$$$$
ZINC12503222
 OpenBabel01091701303D

 29 29  0  0  0  0  0  0  0  0999 V2000
    9.8970   10.9020    2.3760 C   0  0  0  0  0  0  0  0  0  0  0  0
    7.5350   10.1540    2.1300 C   0  0  0  0  0  0  0  0  0  0  0  0
    8.6050   10.7990    1.6060 C   0  0  0  0  0  0  0  0  0  0  0  0
    8.4890   11.3390    0.4080 N   0  0  0  0  0  0  0  0  0  0  0  0
    7.3640   11.2490   -0.2760 C   0  0  0  0  0  0  0  0  0  0  0  0
    6.3480   10.3530    0.8100 S   0  0  0  0  0  0  0  0  0  0  0  0
    7.0680   11.7480   -1.5370 N   0  0  0  0  0  0  0  0  0  0  0  0
    6.3630   11.3280   -2.0810 H   0  0  0  0  0  0  0  0  0  0  0  0
    7.7610   12.8330   -2.0280 C   0  0  0  0  0  0  0  0  0  0  0  0
    7.6660   13.9890   -1.4360 N   0  0  0  0  0  0  0  0  0  0  0  0
    8.1610   14.7640   -1.7870 H   0  0  0  0  0  0  0  0  0  0  0  0
    7.0990   14.0880   -0.6370 H   0  0  0  0  0  0  0  0  0  0  0  0
    8.5540   12.6940   -3.1440 N   0  0  0  0  0  0  0  0  0  0  0  0
    8.2390   12.1590   -3.9080 H   0  0  0  0  0  0  0  0  0  0  0  0
    9.4360   13.1300   -3.1780 H   0  0  0  0  0  0  0  0  0  0  0  0
    9.6690   12.0100    3.7930 S   0  0  0  0  0  0  0  0  0  0  0  0
   10.6730   13.4630    3.3790 C   0  0  0  0  0  0  0  0  0  0  0  0
   10.0050   14.2380    2.2420 C   0  0  0  0  0  0  0  0  0  0  0  0
   10.8310   14.1050    0.9890 C   0  0  0  0  0  0  0  0  0  0  0  0
   10.3790   14.6350   -0.1910 N   0  0  0  0  0  0  0  0  0  0  0  0
   11.2880   14.4880   -1.5660 S   0  0  0  0  0  0  0  0  0  0  0  0
   11.3400   13.1020   -1.8730 O   0  0  0  0  0  0  0  0  0  0  0  0
   12.4590   15.2690   -1.3650 O   0  0  0  0  0  0  0  0  0  0  0  0
   10.4420   15.2130   -2.7930 N   0  0  0  0  0  0  0  0  0  0  0  0
    9.6820   14.6010   -3.0870 H   0  0  0  0  0  0  0  0  0  0  0  0
   10.0590   16.0980   -2.4640 H   0  0  0  0  0  0  0  0  0  0  0  0
   11.9690   13.4900    1.0270 N   0  0  0  0  0  0  0  0  0  0  0  0
   12.6500   13.7570    1.6860 H   0  0  0  0  0  0  0  0  0  0  0  0
   12.1540   12.7560    0.3970 H   0  0  0  0  0  0  0  0  0  0  0  0
  1 16  1  0  0  0  0
  3  2  2  0  0  0  0
  3  1  1  0  0  0  0
  4  3  1  0  0  0  0
  5  4  2  0  0  0  0
  5  6  1  0  0  0  0
  6  2  1  0  0  0  0
  7  5  1  0  0  0  0
  8  7  1  0  0  0  0
  9  7  1  0  0  0  0
  9 10  1  0  0  0  0
 10 12  1  0  0  0  0
 11 10  1  0  0  0  0
 13  9  2  0  0  0  0
 14 13  1  0  0  0  0
 15 13  1  0  0  0  0
 17 16  1  0  0  0  0
 18 17  1  0  0  0  0
 19 27  1  0  0  0  0
 19 18  1  0  0  0  0
 20 19  2  0  0  0  0
 21 23  2  0  0  0  0
 21 20  1  0  0  0  0
 22 21  2  0  0  0  0
 24 26  1  0  0  0  0
 24 21  1  0  0  0  0
 25 24  1  0  0  0  0
 27 28  1  0  0  0  0
 29 27  1  0  0  0  0
M  END
>  <MODEL>
1

>  <REMARK>
 VINA RESULT:      -5.9      0.000      0.000
  Name = ZINC12503222
                            x       y       z     vdW  Elec       q    Type
                         _______ _______ _______ _____ _____    ______ ____

>  <TORSDO>
F 11

>  <vina_score>
-5.9

$$$$
ZINC20423296
 OpenBabel01091701303D

 21 21  0  0  1  0  0  0  0  0999 V2000
    9.7840   13.5510    0.0100 C   0  0  1  0  0  0  0  0  0  0  0  0
   11.1330   13.2330    3.5250 C   0  0  0  0  0  0  0  0  0  0  0  0
   10.0250   12.7500    4.2060 C   0  0  0  0  0  0  0  0  0  0  0  0
    8.8430   12.5260    3.5290 C   0  0  0  0  0  0  0  0  0  0  0  0
    8.7620   12.7860    2.1690 C   0  0  0  0  0  0  0  0  0  0  0  0
    9.8700   13.2700    1.4890 C   0  0  0  0  0  0  0  0  0  0  0  0
   11.0550   13.4880    2.1650 C   0  0  0  0  0  0  0  0  0  0  0  0
   13.4590   12.7730    3.7130 C   0  0  0  0  0  0  0  0  0  0  0  0
   12.2980   13.4530    4.1930 O   0  0  0  0  0  0  0  0  0  0  0  0
    7.5980   12.5660    1.5020 O   0  0  0  0  0  0  0  0  0  0  0  0
    7.2010   11.2060    1.3210 C   0  0  0  0  0  0  0  0  0  0  0  0
    9.0010   14.7750   -0.2100 N   0  0  0  0  0  0  0  0  0  0  0  0
    8.5650   14.7370   -1.1320 H   0  0  0  0  0  0  0  0  0  0  0  0
    8.2790   14.8510    0.5060 H   0  0  0  0  0  0  0  0  0  0  0  0
    9.6170   15.5870   -0.1590 H   0  0  0  0  0  0  0  0  0  0  0  0
   11.1920   13.7370   -0.5570 C   0  0  0  0  0  0  0  0  0  0  0  0
   11.1000   14.2690   -1.9880 C   0  0  0  0  0  0  0  0  0  0  0  0
   10.8440   13.1070   -2.9500 C   0  0  0  0  0  0  0  0  0  0  0  0
    9.5110   13.2990   -3.6260 C   0  0  0  0  0  0  0  0  0  0  0  0
    9.1230   12.4550   -4.5940 O   0  0  0  0  0  0  0  0  0  0  0  0
    8.7920   14.2120   -3.2960 O   0  0  0  0  0  0  0  0  0  0  0  0
  1 16  1  1  0  0  0
  1  6  1  0  0  0  0
  2  9  1  0  0  0  0
  2  3  2  0  0  0  0
  4  3  1  0  0  0  0
  5  4  2  0  0  0  0
  6  7  2  0  0  0  0
  6  5  1  0  0  0  0
  7  2  1  0  0  0  0
  8  9  1  0  0  0  0
 10  5  1  0  0  0  0
 11 10  1  0  0  0  0
 12 15  1  0  0  0  0
 12  1  1  0  0  0  0
 12 14  1  0  0  0  0
 13 12  1  0  0  0  0
 17 16  1  0  0  0  0
 18 17  1  0  0  0  0
 19 21  1  0  0  0  0
 19 18  1  0  0  0  0
 20 19  2  0  0  0  0
M  END
>  <MODEL>
1

>  <REMARK>
 VINA RESULT:      -5.9      0.000      0.000
  Name = ZINC20423296
                            x       y       z     vdW  Elec       q    Type
                         _______ _______ _______ _____ _____    ______ ____

>  <TORSDO>
F 8

>  <vina_score>
-5.9

$$$$
ZINC04727049
 OpenBabel01091701323D

 18 17  0  0  0  0  0  0  0  0999 V2000
    9.2970   14.7720    0.5460 N   0  0  0  0  0  0  0  0  0  0  0  0
    8.7250   14.2400   -0.0550 H   0  0  0  0  0  0  0  0  0  0  0  0
    9.2680   14.5500    1.8750 C   0  0  0  0  0  0  0  0  0  0  0  0
    9.9730   15.2040    2.6140 O   0  0  0  0  0  0  0  0  0  0  0  0
   10.1780   15.8040   -0.0060 C   0  0  0  0  0  0  0  0  0  0  0  0
   11.0700   15.1940   -1.0560 C   0  0  0  0  0  0  0  0  0  0  0  0
   12.2410   15.0120   -0.8230 O   0  0  0  0  0  0  0  0  0  0  0  0
   10.5610   14.8470   -2.2490 O   0  0  0  0  0  0  0  0  0  0  0  0
    9.4940   13.1090   -3.5790 C   0  0  0  0  0  0  0  0  0  0  0  0
   10.6320   13.4430   -2.6120 C   0  0  0  0  0  0  0  0  0  0  0  0
    8.3610   13.4880    2.4420 C   0  0  0  0  0  0  0  0  0  0  0  0
    7.8200   12.6740    1.3510 N   0  0  0  0  0  0  0  0  0  0  0  0
    7.6420   13.0830    0.4740 H   0  0  0  0  0  0  0  0  0  0  0  0
    7.5660   11.3650    1.5480 C   0  0  0  0  0  0  0  0  0  0  0  0
    7.7870   10.8580    2.6340 O   0  0  0  0  0  0  0  0  0  0  0  0
    7.0490   10.5870    0.5030 C   0  0  0  0  0  0  0  0  0  0  0  0
    6.6530   11.1360   -0.5470 N   0  0  0  0  0  0  0  0  0  0  0  0
    6.2970   11.6290   -1.4930 N   0  0  0  0  0  0  0  0  0  0  0  0
  1  3  1  0  0  0  0
  2  1  1  0  0  0  0
  3 11  1  0  0  0  0
  3  4  2  0  0  0  0
  5  1  1  0  0  0  0
  6  7  2  0  0  0  0
  6  5  1  0  0  0  0
  8  6  1  0  0  0  0
  9 10  1  0  0  0  0
 10  8  1  0  0  0  0
 12 14  1  0  0  0  0
 12 11  1  0  0  0  0
 13 12  1  0  0  0  0
 14 15  2  0  0  0  0
 16 14  1  0  0  0  0
 17 16  1  0  0  0  0
 18 17  1  0  0  0  0
M  END
>  <MODEL>
1

>  <REMARK>
 VINA RESULT:      -5.9      0.000      0.000
  Name = ZINC04727049
                            x       y       z     vdW  Elec       q    Type
                         _______ _______ _______ _____ _____    ______ ____

>  <TORSDO>
F 7

>  <vina_score>
-5.9

$$$$
ZINC09951579
 OpenBabel01091701353D

 36 38  0  0  1  0  0  0  0  0999 V2000
   11.5780   12.9620    0.3450 C   0  0  0  0  0  0  0  0  0  0  0  0
   12.1840   12.2980    1.3950 C   0  0  0  0  0  0  0  0  0  0  0  0
   12.1780   10.8270    1.4800 C   0  0  0  0  0  0  0  0  0  0  0  0
   12.7900   10.2470    2.5340 N   0  0  0  0  0  0  0  0  0  0  0  0
   12.7950    9.2650    2.6060 H   0  0  0  0  0  0  0  0  0  0  0  0
   13.3920   10.9770    3.4830 C   0  0  0  0  0  0  0  0  0  0  0  0
   13.4310   12.3170    3.4720 N   0  0  0  0  0  0  0  0  0  0  0  0
   13.8840   12.7900    4.2070 H   0  0  0  0  0  0  0  0  0  0  0  0
   14.1430   10.1540    4.7830 S   0  0  0  0  0  0  0  0  0  0  0  0
   11.6360   10.1530    0.6240 O   0  0  0  0  0  0  0  0  0  0  0  0
   12.8650   13.0310    2.4770 C   0  0  0  0  0  0  0  0  0  0  0  0
   12.9120   14.2470    2.4760 O   0  0  0  0  0  0  0  0  0  0  0  0
   11.7670   14.4480    0.1840 C   0  0  1  0  0  0  0  0  0  0  0  0
   12.1120   14.7330   -1.1420 F   0  0  0  0  0  0  0  0  0  0  0  0
   10.4850   15.1580    0.5330 C   0  0  0  0  0  0  0  0  0  0  0  0
   10.1610   16.1530   -0.0720 O   0  0  0  0  0  0  0  0  0  0  0  0
    9.2910   15.6290    2.5420 C   0  0  0  0  0  0  0  0  0  0  0  0
    9.7030   14.6860    1.5170 O   0  0  0  0  0  0  0  0  0  0  0  0
   10.8160   12.2780   -0.5360 N   0  0  0  0  0  0  0  0  0  0  0  0
   10.8640   11.2960   -0.5700 H   0  0  0  0  0  0  0  0  0  0  0  0
    9.9630   12.9620   -1.3950 C   0  0  0  0  0  0  0  0  0  0  0  0
   10.4820   13.7680   -2.4000 C   0  0  0  0  0  0  0  0  0  0  0  0
    9.6340   14.4420   -3.2550 C   0  0  0  0  0  0  0  0  0  0  0  0
    8.2600   14.3300   -3.1120 C   0  0  0  0  0  0  0  0  0  0  0  0
    7.7260   13.5400   -2.1180 C   0  0  0  0  0  0  0  0  0  0  0  0
    8.5720   12.8470   -1.2480 C   0  0  0  0  0  0  0  0  0  0  0  0
    8.0070   12.0000   -0.1800 C   0  0  0  0  0  0  0  0  0  0  0  0
    8.1380   12.3660    1.1110 N   0  0  0  0  0  0  0  0  0  0  0  0
    8.6100   13.1980    1.3410 H   0  0  0  0  0  0  0  0  0  0  0  0
    7.4250   10.9720   -0.4640 O   0  0  0  0  0  0  0  0  0  0  0  0
    7.5770   11.5240    2.1710 C   0  0  0  0  0  0  0  0  0  0  0  0
    8.6040   11.3350    3.2570 C   0  0  0  0  0  0  0  0  0  0  0  0
    8.9990   10.1560    3.7700 C   0  0  0  0  0  0  0  0  0  0  0  0
    9.9700   10.4430    4.7560 C   0  0  0  0  0  0  0  0  0  0  0  0
   10.1110   11.7800    4.7870 C   0  0  0  0  0  0  0  0  0  0  0  0
    9.2840   12.3150    3.8730 O   0  0  0  0  0  0  0  0  0  0  0  0
  1  2  1  0  0  0  0
  2  3  1  0  0  0  0
  2 11  1  0  0  0  0
  3  4  1  0  0  0  0
  4  5  1  0  0  0  0
  4  6  1  0  0  0  0
  6  9  2  0  0  0  0
  7  6  1  0  0  0  0
  7  8  1  0  0  0  0
 10  3  2  0  0  0  0
 11  7  1  0  0  0  0
 12 11  2  0  0  0  0
 13 14  1  6  0  0  0
 13  1  1  0  0  0  0
 13 15  1  0  0  0  0
 15 18  1  0  0  0  0
 16 15  2  0  0  0  0
 18 17  1  0  0  0  0
 19  1  2  0  0  0  0
 20 19  1  0  0  0  0
 21 26  1  0  0  0  0
 21 19  1  0  0  0  0
 22 21  2  0  0  0  0
 23 24  2  0  0  0  0
 23 22  1  0  0  0  0
 24 25  1  0  0  0  0
 25 26  2  0  0  0  0
 26 27  1  0  0  0  0
 27 28  1  0  0  0  0
 28 29  1  0  0  0  0
 28 31  1  0  0  0  0
 30 27  2  0  0  0  0
 31 32  1  0  0  0  0
 32 33  2  0  0  0  0
 32 36  1  0  0  0  0
 33 34  1  0  0  0  0
 34 35  2  0  0  0  0
 36 35  1  0  0  0  0
M  END
>  <MODEL>
1

>  <REMARK>
 VINA RESULT:      -5.8      0.000      0.000
  Name = ZINC09951579
                            x       y       z     vdW  Elec       q    Type
                         _______ _______ _______ _____ _____    ______ ____

>  <TORSDO>
F 8

>  <vina_score>
-5.8

$$$$
ZINC29577773
 OpenBabel01091701363D

 31 32  0  0  1  0  0  0  0  0999 V2000
    9.9440   14.5930    0.9650 C   0  0  0  0  0  0  0  0  0  0  0  0
   10.5390   13.3920    0.8220 N   0  0  0  0  0  0  0  0  0  0  0  0
   10.8690   13.1090   -0.0610 H   0  0  0  0  0  0  0  0  0  0  0  0
    9.6390   14.9910    2.0690 O   0  0  0  0  0  0  0  0  0  0  0  0
   10.6890   12.5490    1.9290 C   0  0  0  0  0  0  0  0  0  0  0  0
   11.9480   12.3270    2.4650 C   0  0  0  0  0  0  0  0  0  0  0  0
   12.1010   11.4860    3.5690 C   0  0  0  0  0  0  0  0  0  0  0  0
   10.9850   10.8690    4.1320 C   0  0  0  0  0  0  0  0  0  0  0  0
    9.7210   11.0930    3.5920 C   0  0  0  0  0  0  0  0  0  0  0  0
    9.5760   11.9320    2.4840 C   0  0  0  0  0  0  0  0  0  0  0  0
   13.4430   11.2490    4.1400 C   0  0  0  0  0  0  0  0  0  0  0  0
   13.6900   10.1960    4.6930 O   0  0  0  0  0  0  0  0  0  0  0  0
   14.3920   12.2000    4.0470 O   0  0  0  0  0  0  0  0  0  0  0  0
   15.1750   12.4700    5.2400 C   0  0  0  0  0  0  0  0  0  0  0  0
    8.5350   10.4410    4.1840 C   0  0  0  0  0  0  0  0  0  0  0  0
    8.5220   10.1630    5.3660 O   0  0  0  0  0  0  0  0  0  0  0  0
    7.4690   10.1540    3.4120 O   0  0  0  0  0  0  0  0  0  0  0  0
    7.6710   10.1830    1.9740 C   0  0  0  0  0  0  0  0  0  0  0  0
   10.3090   16.8150   -0.0720 C   0  0  0  0  0  0  0  0  0  0  0  0
    9.6580   15.4420   -0.2470 C   0  0  1  0  0  0  0  0  0  0  0  0
   10.2040   14.7900   -1.4400 N   0  0  0  0  0  0  0  0  0  0  0  0
   11.4490   15.0310   -1.7900 C   0  0  0  0  0  0  0  0  0  0  0  0
   12.0030   14.4310   -2.9080 C   0  0  0  0  0  0  0  0  0  0  0  0
   11.2290   13.5720   -3.6730 C   0  0  0  0  0  0  0  0  0  0  0  0
    9.9190   13.3400   -3.2840 C   0  0  0  0  0  0  0  0  0  0  0  0
    9.4290   13.9750   -2.1440 C   0  0  0  0  0  0  0  0  0  0  0  0
    8.0300   13.7390   -1.7150 C   0  0  0  0  0  0  0  0  0  0  0  0
    7.0700   14.6320   -2.0280 N   0  0  0  0  0  0  0  0  0  0  0  0
    6.1410   14.4750   -1.7430 H   0  0  0  0  0  0  0  0  0  0  0  0
    7.2980   15.4410   -2.5410 H   0  0  0  0  0  0  0  0  0  0  0  0
    7.7490   12.7410   -1.0820 O   0  0  0  0  0  0  0  0  0  0  0  0
  1  4  2  0  0  0  0
  2  1  1  0  0  0  0
  2  5  1  0  0  0  0
  3  2  1  0  0  0  0
  5  6  2  0  0  0  0
  5 10  1  0  0  0  0
  6  7  1  0  0  0  0
  7  8  2  0  0  0  0
  7 11  1  0  0  0  0
  9  8  1  0  0  0  0
  9 15  1  0  0  0  0
 10  9  2  0  0  0  0
 11 12  2  0  0  0  0
 13 11  1  0  0  0  0
 13 14  1  0  0  0  0
 15 16  2  0  0  0  0
 17 15  1  0  0  0  0
 18 17  1  0  0  0  0
 20 21  1  6  0  0  0
 20 19  1  0  0  0  0
 20  1  1  0  0  0  0
 22 21  1  0  0  0  0
 23 22  2  0  0  0  0
 24 25  1  0  0  0  0
 24 23  1  0  0  0  0
 25 26  2  0  0  0  0
 26 27  1  0  0  0  0
 26 21  1  0  0  0  0
 27 31  2  0  0  0  0
 28 29  1  0  0  0  0
 28 27  1  0  0  0  0
 30 28  1  0  0  0  0
M  END
>  <MODEL>
1

>  <REMARK>
 VINA RESULT:      -5.8      0.000      0.000
  Name = ZINC29577773
                            x       y       z     vdW  Elec       q    Type
                         _______ _______ _______ _____ _____    ______ ____

>  <TORSDO>
F 8

>  <vina_score>
-5.8

$$$$
ZINC08652693
 OpenBabel01091701373D

 23 24  0  0  1  0  0  0  0  0999 V2000
   10.6240   12.4970    3.4790 C   0  0  2  0  0  0  0  0  0  0  0  0
    9.9240   12.2030    4.8250 C   0  0  0  0  0  0  0  0  0  0  0  0
    8.8080   11.3380    4.4510 O   0  0  0  0  0  0  0  0  0  0  0  0
    8.5970   11.4460    3.1290 C   0  0  0  0  0  0  0  0  0  0  0  0
    7.4910   11.0970    2.4870 N   0  0  0  0  0  0  0  0  0  0  0  0
    7.3890   11.2660    1.1560 C   0  0  0  0  0  0  0  0  0  0  0  0
    8.4780   11.9450    0.4210 C   0  0  2  0  0  0  0  0  0  0  0  0
    9.8080   11.9450    1.1040 C   0  0  0  0  0  0  0  0  0  0  0  0
   11.0010   11.9260    0.5180 N   0  0  0  0  0  0  0  0  0  0  0  0
   11.0680   11.9100   -0.4630 H   0  0  0  0  0  0  0  0  0  0  0  0
    6.4050   10.8610    0.5590 O   0  0  0  0  0  0  0  0  0  0  0  0
    9.6930   11.9660    2.4910 N   0  0  0  0  0  0  0  0  0  0  0  0
   13.1030   12.8000    3.3870 C   0  0  0  0  0  0  0  0  0  0  0  0
   11.9690   11.7720    3.4030 C   0  0  0  0  0  0  0  0  0  0  0  0
    8.2820   12.5370   -0.8080 C   0  0  0  0  0  0  0  0  0  0  0  0
    9.2680   12.5080   -1.7400 N   0  0  0  0  0  0  0  0  0  0  0  0
    9.0600   13.1380   -3.0460 C   0  0  0  0  0  0  0  0  0  0  0  0
    9.2800   14.6480   -2.9250 C   0  0  0  0  0  0  0  0  0  0  0  0
   10.7570   14.9260   -2.6440 C   0  0  0  0  0  0  0  0  0  0  0  0
   11.0090   14.7550   -1.1980 N   0  0  0  0  0  0  0  0  0  0  0  0
   10.7160   13.8170   -0.9190 H   0  0  0  0  0  0  0  0  0  0  0  0
   10.2310   15.7480   -0.4290 C   0  0  0  0  0  0  0  0  0  0  0  0
   12.4510   14.9110   -0.9130 C   0  0  0  0  0  0  0  0  0  0  0  0
  1 14  1  1  0  0  0
  1  2  1  0  0  0  0
  3  2  1  0  0  0  0
  4  3  1  0  0  0  0
  5  4  2  0  0  0  0
  6  5  1  0  0  0  0
  7 15  1  1  0  0  0
  7  8  1  0  0  0  0
  7  6  1  0  0  0  0
  8 12  1  0  0  0  0
  9  8  2  0  0  0  0
 10  9  1  0  0  0  0
 11  6  2  0  0  0  0
 12  4  1  0  0  0  0
 12  1  1  0  0  0  0
 13 14  1  0  0  0  0
 16 15  2  0  0  0  0
 17 18  1  0  0  0  0
 17 16  1  0  0  0  0
 18 19  1  0  0  0  0
 19 20  1  0  0  0  0
 20 21  1  0  0  0  0
 20 23  1  0  0  0  0
 20 22  1  0  0  0  0
M  END
>  <MODEL>
1

>  <REMARK>
 VINA RESULT:      -5.8      0.000      0.000
  Name = ZINC08652693
                            x       y       z     vdW  Elec       q    Type
                         _______ _______ _______ _____ _____    ______ ____

>  <TORSDO>
F 6

>  <vina_score>
-5.8

$$$$
ZINC20306534
 OpenBabel01091701233D

 21 21  0  0  1  0  0  0  0  0999 V2000
   10.7310   15.0170   -1.9140 C   0  0  0  0  0  0  0  0  0  0  0  0
   11.0640   13.7130    2.1450 C   0  0  0  0  0  0  0  0  0  0  0  0
   10.0950   14.6540    1.7880 C   0  0  0  0  0  0  0  0  0  0  0  0
    9.9940   15.0700    0.4760 C   0  0  0  0  0  0  0  0  0  0  0  0
   10.8490   14.5580   -0.4830 C   0  0  0  0  0  0  0  0  0  0  0  0
   11.8060   13.6220   -0.1380 C   0  0  0  0  0  0  0  0  0  0  0  0
   11.9230   13.2010    1.1710 C   0  0  0  0  0  0  0  0  0  0  0  0
   11.1780   13.2630    3.5470 C   0  0  0  0  0  0  0  0  0  0  0  0
   12.2440   13.3400    4.1250 O   0  0  0  0  0  0  0  0  0  0  0  0
    9.6830   11.4230    3.8280 C   0  0  0  0  0  0  0  0  0  0  0  0
   10.1010   12.7670    4.1860 O   0  0  0  0  0  0  0  0  0  0  0  0
    9.1070   14.5440   -2.5700 S   0  0  0  0  0  0  0  0  0  0  0  0
    8.9180   12.8120   -2.0640 C   0  0  0  0  0  0  0  0  0  0  0  0
    7.6790   12.6730   -1.1760 C   0  0  1  0  0  0  0  0  0  0  0  0
    6.7060   11.7850   -1.8280 N   0  0  0  0  0  0  0  0  0  0  0  0
    5.8400   12.2970   -1.9980 H   0  0  0  0  0  0  0  0  0  0  0  0
    7.0870   11.4580   -2.7160 H   0  0  0  0  0  0  0  0  0  0  0  0
    6.5170   10.9860   -1.2240 H   0  0  0  0  0  0  0  0  0  0  0  0
    8.0770   12.0890    0.1550 C   0  0  0  0  0  0  0  0  0  0  0  0
    7.3670   12.3830    1.2560 O   0  0  0  0  0  0  0  0  0  0  0  0
    9.0380   11.3620    0.2320 O   0  0  0  0  0  0  0  0  0  0  0  0
  1  5  1  0  0  0  0
  2  8  1  0  0  0  0
  3  2  1  0  0  0  0
  4  3  2  0  0  0  0
  5  6  2  0  0  0  0
  5  4  1  0  0  0  0
  6  7  1  0  0  0  0
  7  2  2  0  0  0  0
  8  9  2  0  0  0  0
  8 11  1  0  0  0  0
 10 11  1  0  0  0  0
 12 13  1  0  0  0  0
 12  1  1  0  0  0  0
 14 13  1  6  0  0  0
 14 19  1  0  0  0  0
 15 18  1  0  0  0  0
 15 14  1  0  0  0  0
 16 15  1  0  0  0  0
 17 15  1  0  0  0  0
 19 21  2  0  0  0  0
 19 20  1  0  0  0  0
M  END
>  <MODEL>
1

>  <REMARK>
 VINA RESULT:      -5.8      0.000      0.000
  Name = ZINC20306534
                            x       y       z     vdW  Elec       q    Type
                         _______ _______ _______ _____ _____    ______ ____

>  <TORSDO>
F 8

>  <vina_score>
-5.8

$$$$
ZINC19366398
 OpenBabel01091701423D

 28 28  0  0  0  0  0  0  0  0999 V2000
    8.0900   11.0840   -0.0850 C   0  0  0  0  0  0  0  0  0  0  0  0
    7.9080   11.5690    1.6530 S   0  0  0  0  0  0  0  0  0  0  0  0
    7.4980   12.9260    1.7430 O   0  0  0  0  0  0  0  0  0  0  0  0
    7.2210   10.5550    2.3750 O   0  0  0  0  0  0  0  0  0  0  0  0
    9.5460   11.5500    2.3030 C   0  0  0  0  0  0  0  0  0  0  0  0
   10.6110   11.9090    1.4970 C   0  0  0  0  0  0  0  0  0  0  0  0
   11.8960   11.8940    2.0030 C   0  0  0  0  0  0  0  0  0  0  0  0
   12.1180   11.5190    3.3220 C   0  0  0  0  0  0  0  0  0  0  0  0
   11.0460   11.1530    4.1260 C   0  0  0  0  0  0  0  0  0  0  0  0
    9.7630   11.1750    3.6160 C   0  0  0  0  0  0  0  0  0  0  0  0
   13.4180   11.5040    3.8380 N   0  0  0  0  0  0  0  0  0  0  0  0
   13.9540   10.6790    3.7970 H   0  0  0  0  0  0  0  0  0  0  0  0
   13.9380   12.6180    4.3900 C   0  0  0  0  0  0  0  0  0  0  0  0
   15.3030   12.5780    5.0270 C   0  0  0  0  0  0  0  0  0  0  0  0
   13.3090   13.6550    4.3680 O   0  0  0  0  0  0  0  0  0  0  0  0
    6.8900   11.5940   -0.8850 C   0  0  0  0  0  0  0  0  0  0  0  0
    7.3090   12.8070   -1.7170 C   0  0  0  0  0  0  0  0  0  0  0  0
    8.2610   12.3860   -2.7530 N   0  0  0  0  0  0  0  0  0  0  0  0
    7.7450   12.2020   -3.6130 H   0  0  0  0  0  0  0  0  0  0  0  0
    8.7450   11.5450   -2.4390 H   0  0  0  0  0  0  0  0  0  0  0  0
    9.2510   13.4380   -3.0180 C   0  0  0  0  0  0  0  0  0  0  0  0
    8.9340   14.6650   -2.1620 C   0  0  0  0  0  0  0  0  0  0  0  0
   10.1830   15.2370   -1.6420 N   0  0  0  0  0  0  0  0  0  0  0  0
   10.2310   16.2110   -1.9420 H   0  0  0  0  0  0  0  0  0  0  0  0
    9.7510   16.5770    0.3620 C   0  0  0  0  0  0  0  0  0  0  0  0
   10.2000   15.2160   -0.1740 C   0  0  0  0  0  0  0  0  0  0  0  0
   11.3520   14.5390   -2.1930 C   0  0  0  0  0  0  0  0  0  0  0  0
   12.3650   14.2810   -1.0770 C   0  0  0  0  0  0  0  0  0  0  0  0
  1  2  1  0  0  0  0
  2  3  2  0  0  0  0
  2  5  1  0  0  0  0
  2  4  2  0  0  0  0
  5 10  2  0  0  0  0
  6  7  2  0  0  0  0
  6  5  1  0  0  0  0
  7  8  1  0  0  0  0
  8 11  1  0  0  0  0
  8  9  2  0  0  0  0
 10  9  1  0  0  0  0
 11 13  1  0  0  0  0
 12 11  1  0  0  0  0
 13 14  1  0  0  0  0
 15 13  2  0  0  0  0
 16  1  1  0  0  0  0
 17 16  1  0  0  0  0
 18 20  1  0  0  0  0
 18 17  1  0  0  0  0
 19 18  1  0  0  0  0
 21 18  1  0  0  0  0
 21 22  1  0  0  0  0
 22 23  1  0  0  0  0
 23 26  1  0  0  0  0
 24 23  1  0  0  0  0
 26 25  1  0  0  0  0
 27 23  1  0  0  0  0
 27 28  1  0  0  0  0
M  END
>  <MODEL>
1

>  <REMARK>
 VINA RESULT:      -5.8      0.000      0.000
  Name = ZINC19366398
                            x       y       z     vdW  Elec       q    Type
                         _______ _______ _______ _____ _____    ______ ____

>  <TORSDO>
F 11

>  <vina_score>
-5.8

$$$$
ZINC20341969
 OpenBabel01091701413D

 23 23  0  0  0  0  0  0  0  0999 V2000
   12.0920   13.1220    1.5020 C   0  0  0  0  0  0  0  0  0  0  0  0
   11.0230   13.9320    1.3670 N   0  0  0  0  0  0  0  0  0  0  0  0
   10.7730   14.5440    2.0960 H   0  0  0  0  0  0  0  0  0  0  0  0
   12.4000   12.3690    0.6030 O   0  0  0  0  0  0  0  0  0  0  0  0
   10.2750   13.9030    0.2000 C   0  0  0  0  0  0  0  0  0  0  0  0
    9.1330   13.1590   -0.0770 C   0  0  0  0  0  0  0  0  0  0  0  0
    8.5490   13.3300   -1.3860 C   0  0  0  0  0  0  0  0  0  0  0  0
    7.3080   12.5810   -1.7960 C   0  0  0  0  0  0  0  0  0  0  0  0
    9.1600   14.1860   -2.2250 C   0  0  0  0  0  0  0  0  0  0  0  0
    8.7720   14.5520   -3.6340 C   0  0  0  0  0  0  0  0  0  0  0  0
   10.5380   14.7830   -1.2680 S   0  0  0  0  0  0  0  0  0  0  0  0
    8.5480   12.2510    0.9130 C   0  0  0  0  0  0  0  0  0  0  0  0
    7.4990   12.6540    1.6600 O   0  0  0  0  0  0  0  0  0  0  0  0
    9.0090   11.1360    1.0620 O   0  0  0  0  0  0  0  0  0  0  0  0
   12.9050   13.1530    2.7700 C   0  0  0  0  0  0  0  0  0  0  0  0
   12.1900   12.4300    3.8290 N   0  0  0  0  0  0  0  0  0  0  0  0
   12.7090   12.5520    4.6980 H   0  0  0  0  0  0  0  0  0  0  0  0
   13.4820   10.3500    3.8580 C   0  0  0  0  0  0  0  0  0  0  0  0
   12.1310   10.9910    3.5370 C   0  0  0  0  0  0  0  0  0  0  0  0
   10.8430   12.9820    4.0270 C   0  0  0  0  0  0  0  0  0  0  0  0
    9.8780   11.8540    4.3960 C   0  0  0  0  0  0  0  0  0  0  0  0
    8.5880   12.4030    4.6770 O   0  0  0  0  0  0  0  0  0  0  0  0
    7.9460   11.6840    4.7810 H   0  0  0  0  0  0  0  0  0  0  0  0
  1 15  1  0  0  0  0
  2  1  1  0  0  0  0
  2  3  1  0  0  0  0
  4  1  2  0  0  0  0
  5  2  1  0  0  0  0
  6  5  2  0  0  0  0
  6 12  1  0  0  0  0
  7  6  1  0  0  0  0
  8  7  1  0  0  0  0
  9  7  2  0  0  0  0
  9 11  1  0  0  0  0
 10  9  1  0  0  0  0
 11  5  1  0  0  0  0
 12 14  2  0  0  0  0
 12 13  1  0  0  0  0
 15 16  1  0  0  0  0
 16 20  1  0  0  0  0
 16 17  1  0  0  0  0
 19 16  1  0  0  0  0
 19 18  1  0  0  0  0
 20 21  1  0  0  0  0
 21 22  1  0  0  0  0
 22 23  1  0  0  0  0
M  END
>  <MODEL>
1

>  <REMARK>
 VINA RESULT:      -5.8      0.000      0.000
  Name = ZINC20341969
                            x       y       z     vdW  Elec       q    Type
                         _______ _______ _______ _____ _____    ______ ____

>  <TORSDO>
F 8

>  <vina_score>
-5.8

$$$$
ZINC01689632
 OpenBabel01091701413D

 22 22  0  0  0  0  0  0  0  0999 V2000
   10.3800   13.3980    1.0110 N   0  0  0  0  0  0  0  0  0  0  0  0
   10.7800   12.6620    0.4930 H   0  0  0  0  0  0  0  0  0  0  0  0
   10.7340   13.5860    2.2980 C   0  0  0  0  0  0  0  0  0  0  0  0
   10.2420   14.4950    2.9380 O   0  0  0  0  0  0  0  0  0  0  0  0
   11.7220   12.6910    2.9290 C   0  0  0  0  0  0  0  0  0  0  0  0
   11.5620   11.2260    2.8610 C   0  0  0  0  0  0  0  0  0  0  0  0
   12.5010   10.4610    3.4640 N   0  0  0  0  0  0  0  0  0  0  0  0
   12.4340    9.4790    3.4510 H   0  0  0  0  0  0  0  0  0  0  0  0
   13.5320   11.0730    4.0830 C   0  0  0  0  0  0  0  0  0  0  0  0
   13.6320   12.4110    4.1130 N   0  0  0  0  0  0  0  0  0  0  0  0
   14.7740   13.0160    4.8010 C   0  0  0  0  0  0  0  0  0  0  0  0
   14.3860   10.3990    4.6260 O   0  0  0  0  0  0  0  0  0  0  0  0
   10.6160   10.7230    2.2840 O   0  0  0  0  0  0  0  0  0  0  0  0
   12.7660   13.1830    3.5600 N   0  0  0  0  0  0  0  0  0  0  0  0
    9.4000   14.2880    0.3840 C   0  0  0  0  0  0  0  0  0  0  0  0
   10.1320   15.3960   -0.3770 C   0  0  0  0  0  0  0  0  0  0  0  0
   10.0480   15.1110   -1.8250 N   0  0  0  0  0  0  0  0  0  0  0  0
   10.0020   15.9940   -2.3340 H   0  0  0  0  0  0  0  0  0  0  0  0
   12.4560   14.8630   -1.4670 C   0  0  0  0  0  0  0  0  0  0  0  0
   11.2480   14.3670   -2.2640 C   0  0  0  0  0  0  0  0  0  0  0  0
    8.8310   14.3240   -2.1160 C   0  0  0  0  0  0  0  0  0  0  0  0
    9.1660   13.2800   -3.1820 C   0  0  0  0  0  0  0  0  0  0  0  0
  1  3  1  0  0  0  0
  2  1  1  0  0  0  0
  3  5  1  0  0  0  0
  3  4  2  0  0  0  0
  5 14  2  0  0  0  0
  6  5  1  0  0  0  0
  6  7  1  0  0  0  0
  7  9  1  0  0  0  0
  8  7  1  0  0  0  0
  9 10  1  0  0  0  0
  9 12  2  0  0  0  0
 10 11  1  0  0  0  0
 13  6  2  0  0  0  0
 14 10  1  0  0  0  0
 15  1  1  0  0  0  0
 16 15  1  0  0  0  0
 17 16  1  0  0  0  0
 18 17  1  0  0  0  0
 20 17  1  0  0  0  0
 20 19  1  0  0  0  0
 21 17  1  0  0  0  0
 22 21  1  0  0  0  0
M  END
>  <MODEL>
1

>  <REMARK>
 VINA RESULT:      -5.8      0.000      0.000
  Name = ZINC01689632
                            x       y       z     vdW  Elec       q    Type
                         _______ _______ _______ _____ _____    ______ ____

>  <TORSDO>
F 6

>  <vina_score>
-5.8

$$$$
ZINC19950324
 OpenBabel01091701423D

 24 24  0  0  0  0  0  0  0  0999 V2000
   10.9700   11.9240    3.0280 N   0  0  0  0  0  0  0  0  0  0  0  0
   10.8480   11.8120    1.6900 C   0  0  0  0  0  0  0  0  0  0  0  0
    9.5230   12.0540    1.0900 C   0  0  0  0  0  0  0  0  0  0  0  0
    8.4270   12.4130    2.0060 C   0  0  0  0  0  0  0  0  0  0  0  0
    8.6990   12.4930    3.3250 N   0  0  0  0  0  0  0  0  0  0  0  0
    7.9770   12.7320    3.9510 H   0  0  0  0  0  0  0  0  0  0  0  0
    7.3070   12.6320    1.5850 O   0  0  0  0  0  0  0  0  0  0  0  0
    9.3200   11.9530   -0.2740 C   0  0  0  0  0  0  0  0  0  0  0  0
   11.8030   11.5170    0.9970 O   0  0  0  0  0  0  0  0  0  0  0  0
    9.9280   12.2550    3.8030 C   0  0  0  0  0  0  0  0  0  0  0  0
   10.1070   12.3430    5.0020 O   0  0  0  0  0  0  0  0  0  0  0  0
    8.0710   12.0230   -0.7760 N   0  0  0  0  0  0  0  0  0  0  0  0
    7.3430   11.5090   -0.3570 H   0  0  0  0  0  0  0  0  0  0  0  0
    7.7960   12.8650   -1.9440 C   0  0  0  0  0  0  0  0  0  0  0  0
    9.0980   13.1200   -2.7060 C   0  0  0  0  0  0  0  0  0  0  0  0
    9.3070   14.6280   -2.8670 C   0  0  0  0  0  0  0  0  0  0  0  0
   10.6280   14.9980   -2.3410 N   0  0  0  0  0  0  0  0  0  0  0  0
   10.9760   15.7820   -2.8920 H   0  0  0  0  0  0  0  0  0  0  0  0
   11.5800   13.8890   -2.4830 C   0  0  0  0  0  0  0  0  0  0  0  0
   10.5330   15.4360   -0.9420 C   0  0  0  0  0  0  0  0  0  0  0  0
   12.2760   11.6840    3.6490 C   0  0  0  0  0  0  0  0  0  0  0  0
   13.1260   12.9530    3.5570 C   0  0  0  0  0  0  0  0  0  0  0  0
   14.6840   11.3760    4.7080 C   0  0  0  0  0  0  0  0  0  0  0  0
   14.3080   12.8470    4.5220 C   0  0  0  0  0  0  0  0  0  0  0  0
  1 21  1  0  0  0  0
  1 10  1  0  0  0  0
  2  1  1  0  0  0  0
  3  2  1  0  0  0  0
  3  4  1  0  0  0  0
  4  5  1  0  0  0  0
  5 10  1  0  0  0  0
  5  6  1  0  0  0  0
  7  4  2  0  0  0  0
  8  3  2  0  0  0  0
  9  2  2  0  0  0  0
 10 11  2  0  0  0  0
 12 13  1  0  0  0  0
 12  8  1  0  0  0  0
 14 12  1  0  0  0  0
 15 14  1  0  0  0  0
 16 15  1  0  0  0  0
 16 17  1  0  0  0  0
 17 20  1  0  0  0  0
 18 17  1  0  0  0  0
 19 17  1  0  0  0  0
 22 21  1  0  0  0  0
 22 24  1  0  0  0  0
 24 23  1  0  0  0  0
M  END
>  <MODEL>
1

>  <REMARK>
 VINA RESULT:      -5.8      0.000      0.000
  Name = ZINC19950324
                            x       y       z     vdW  Elec       q    Type
                         _______ _______ _______ _____ _____    ______ ____

>  <TORSDO>
F 8

>  <vina_score>
-5.8

$$$$
ZINC19508865
 OpenBabel01091701243D

 21 21  0  0  1  0  0  0  0  0999 V2000
    9.6640   14.6750    2.5430 C   0  0  2  0  0  0  0  0  0  0  0  0
    8.2650   14.7100    2.9910 N   0  0  0  0  0  0  0  0  0  0  0  0
    8.2350   14.7870    4.0070 H   0  0  0  0  0  0  0  0  0  0  0  0
    7.7950   15.5150    2.5740 H   0  0  0  0  0  0  0  0  0  0  0  0
    7.7940   13.8540    2.7000 H   0  0  0  0  0  0  0  0  0  0  0  0
    9.7110   14.7100    1.0370 C   0  0  0  0  0  0  0  0  0  0  0  0
    9.0530   13.7780    0.3200 N   0  0  0  0  0  0  0  0  0  0  0  0
    8.4780   13.1210    0.7770 H   0  0  0  0  0  0  0  0  0  0  0  0
   10.3430   15.5770    0.4710 O   0  0  0  0  0  0  0  0  0  0  0  0
    9.1860   13.7430   -1.0730 C   0  0  0  0  0  0  0  0  0  0  0  0
   10.2130   13.0120   -1.6650 C   0  0  0  0  0  0  0  0  0  0  0  0
   10.3080   13.0120   -3.0470 C   0  0  0  0  0  0  0  0  0  0  0  0
    9.3800   13.7220   -3.7880 C   0  0  0  0  0  0  0  0  0  0  0  0
    8.4190   14.4040   -3.1950 N   0  0  0  0  0  0  0  0  0  0  0  0
    8.2980   14.4360   -1.8830 C   0  0  0  0  0  0  0  0  0  0  0  0
   10.3270   13.3900    3.0440 C   0  0  0  0  0  0  0  0  0  0  0  0
    9.3420   12.6170    3.9230 C   0  0  0  0  0  0  0  0  0  0  0  0
    9.9910   10.7180    1.9210 C   0  0  0  0  0  0  0  0  0  0  0  0
    8.6110   11.2610    2.9650 S   0  0  0  0  0  0  0  0  0  0  0  0
    7.5980   11.7990    2.1270 O   0  0  0  0  0  0  0  0  0  0  0  0
    8.2810   10.2060    3.8580 O   0  0  0  0  0  0  0  0  0  0  0  0
  1  6  1  6  0  0  0
  1  2  1  0  0  0  0
  1 16  1  0  0  0  0
  2  3  1  0  0  0  0
  4  2  1  0  0  0  0
  5  2  1  0  0  0  0
  7  8  1  0  0  0  0
  7  6  1  0  0  0  0
  9  6  2  0  0  0  0
 10  7  1  0  0  0  0
 11 10  1  0  0  0  0
 12 11  2  0  0  0  0
 13 14  2  0  0  0  0
 13 12  1  0  0  0  0
 14 15  1  0  0  0  0
 15 10  2  0  0  0  0
 16 17  1  0  0  0  0
 18 19  1  0  0  0  0
 19 21  2  0  0  0  0
 19 17  1  0  0  0  0
 20 19  2  0  0  0  0
M  END
>  <MODEL>
1

>  <REMARK>
 VINA RESULT:      -5.8      0.000      0.000
  Name = ZINC19508865
                            x       y       z     vdW  Elec       q    Type
                         _______ _______ _______ _____ _____    ______ ____

>  <TORSDO>
F 6

>  <vina_score>
-5.8

$$$$
ZINC02019924
 OpenBabel01091701483D

 27 27  0  0  0  0  0  0  0  0999 V2000
    8.8140   11.5610    0.0100 O   0  0  0  0  0  0  0  0  0  0  0  0
    7.5380   11.6400   -0.4000 C   0  0  0  0  0  0  0  0  0  0  0  0
    6.6510   11.2110    0.3000 O   0  0  0  0  0  0  0  0  0  0  0  0
    7.2110   12.2620   -1.7330 C   0  0  0  0  0  0  0  0  0  0  0  0
    7.7830   13.6790   -1.7880 C   0  0  0  0  0  0  0  0  0  0  0  0
    8.7960   13.7700   -2.9000 C   0  0  0  0  0  0  0  0  0  0  0  0
    8.7140   14.6520   -3.7230 O   0  0  0  0  0  0  0  0  0  0  0  0
    9.7910   12.8710   -2.9780 O   0  0  0  0  0  0  0  0  0  0  0  0
   11.1380   13.3560   -2.7380 C   0  0  0  0  0  0  0  0  0  0  0  0
   11.5020   13.1420   -1.2680 C   0  0  0  0  0  0  0  0  0  0  0  0
   11.7590   14.4580   -0.6460 N   0  0  0  0  0  0  0  0  0  0  0  0
   12.6220   14.4060   -0.1060 H   0  0  0  0  0  0  0  0  0  0  0  0
   10.6460   14.8160    0.2590 C   0  0  0  0  0  0  0  0  0  0  0  0
   11.9100   15.4900   -1.6930 C   0  0  0  0  0  0  0  0  0  0  0  0
    9.0730   10.7890    1.2130 C   0  0  0  0  0  0  0  0  0  0  0  0
   13.8940   12.6680    3.6890 C   0  0  0  0  0  0  0  0  0  0  0  0
   12.6130   12.1940    3.0530 C   0  0  0  0  0  0  0  0  0  0  0  0
   11.4020   12.7300    3.4640 C   0  0  0  0  0  0  0  0  0  0  0  0
   10.2280   12.2840    2.8670 C   0  0  0  0  0  0  0  0  0  0  0  0
   10.3160   11.3100    1.8850 C   0  0  0  0  0  0  0  0  0  0  0  0
   11.5610   10.8270    1.5250 C   0  0  0  0  0  0  0  0  0  0  0  0
   12.6550   11.2730    2.1100 N   0  0  0  0  0  0  0  0  0  0  0  0
   11.3630   13.6800    4.4360 O   0  0  0  0  0  0  0  0  0  0  0  0
   12.1150   13.8280    4.9770 H   0  0  0  0  0  0  0  0  0  0  0  0
    8.8900   12.8390    3.2840 C   0  0  0  0  0  0  0  0  0  0  0  0
    8.6680   12.5560    4.6670 O   0  0  0  0  0  0  0  0  0  0  0  0
    9.5020   12.6520    5.1540 H   0  0  0  0  0  0  0  0  0  0  0  0
  1 15  1  0  0  0  0
  2  1  1  0  0  0  0
  2  3  2  0  0  0  0
  4  2  1  0  0  0  0
  5  4  1  0  0  0  0
  6  5  1  0  0  0  0
  7  6  2  0  0  0  0
  8  6  1  0  0  0  0
  8  9  1  0  0  0  0
  9 10  1  0  0  0  0
 10 11  1  0  0  0  0
 11 12  1  0  0  0  0
 11 13  1  0  0  0  0
 14 11  1  0  0  0  0
 15 20  1  0  0  0  0
 17 18  1  0  0  0  0
 17 16  1  0  0  0  0
 18 23  1  0  0  0  0
 19 25  1  0  0  0  0
 19 18  2  0  0  0  0
 20 19  1  0  0  0  0
 21 20  2  0  0  0  0
 21 22  1  0  0  0  0
 22 17  2  0  0  0  0
 23 24  1  0  0  0  0
 25 26  1  0  0  0  0
 26 27  1  0  0  0  0
M  END
>  <MODEL>
1

>  <REMARK>
 VINA RESULT:      -5.8      0.000      0.000
  Name = ZINC02019924
                            x       y       z     vdW  Elec       q    Type
                         _______ _______ _______ _____ _____    ______ ____

>  <TORSDO>
F 13

>  <vina_score>
-5.8

$$$$
ZINC02338152
 OpenBabel01091701483D

 26 27  0  0  0  0  0  0  0  0999 V2000
    8.5110   13.5630    1.2100 C   0  0  0  0  0  0  0  0  0  0  0  0
    8.7600   14.5930    2.0050 N   0  0  0  0  0  0  0  0  0  0  0  0
    9.3950   15.6640    1.5540 C   0  0  0  0  0  0  0  0  0  0  0  0
    9.6770   16.8260    2.4720 C   0  0  0  0  0  0  0  0  0  0  0  0
    9.7930   15.7070    0.2320 C   0  0  0  0  0  0  0  0  0  0  0  0
    9.5120   14.6090   -0.5840 C   0  0  0  0  0  0  0  0  0  0  0  0
    8.8760   13.5640   -0.0630 N   0  0  0  0  0  0  0  0  0  0  0  0
    9.8920   14.6070   -1.9170 N   0  0  0  0  0  0  0  0  0  0  0  0
   10.8190   14.8270   -2.1640 H   0  0  0  0  0  0  0  0  0  0  0  0
    8.9140   14.2770   -2.9570 C   0  0  0  0  0  0  0  0  0  0  0  0
    9.4190   13.0850   -3.7710 C   0  0  0  0  0  0  0  0  0  0  0  0
   10.8850   13.1750   -3.8960 N   0  0  0  0  0  0  0  0  0  0  0  0
   11.3220   12.6430   -3.1430 H   0  0  0  0  0  0  0  0  0  0  0  0
   11.1730   12.7910   -4.7950 H   0  0  0  0  0  0  0  0  0  0  0  0
   11.1720   14.1510   -3.8340 H   0  0  0  0  0  0  0  0  0  0  0  0
    7.8500   12.4600    1.7210 N   0  0  0  0  0  0  0  0  0  0  0  0
    8.7080   11.1260    2.1950 S   0  0  0  0  0  0  0  0  0  0  0  0
    8.0640   10.6200    3.3560 O   0  0  0  0  0  0  0  0  0  0  0  0
    8.9080   10.3380    1.0310 O   0  0  0  0  0  0  0  0  0  0  0  0
   14.1590   13.0220    3.9530 C   0  0  0  0  0  0  0  0  0  0  0  0
   12.7980   12.5490    3.5130 C   0  0  0  0  0  0  0  0  0  0  0  0
   11.6740   12.9140    4.2320 C   0  0  0  0  0  0  0  0  0  0  0  0
   10.4250   12.4800    3.8290 C   0  0  0  0  0  0  0  0  0  0  0  0
   10.2990   11.6850    2.7050 C   0  0  0  0  0  0  0  0  0  0  0  0
   11.4230   11.3210    1.9860 C   0  0  0  0  0  0  0  0  0  0  0  0
   12.6720   11.7530    2.3900 C   0  0  0  0  0  0  0  0  0  0  0  0
  1 16  1  0  0  0  0
  1  2  2  0  0  0  0
  3  2  1  0  0  0  0
  3  4  1  0  0  0  0
  5  3  2  0  0  0  0
  6  7  2  0  0  0  0
  6  5  1  0  0  0  0
  7  1  1  0  0  0  0
  8  6  1  0  0  0  0
  9  8  1  0  0  0  0
 10  8  1  0  0  0  0
 11 10  1  0  0  0  0
 12 15  1  0  0  0  0
 12 11  1  0  0  0  0
 12 13  1  0  0  0  0
 14 12  1  0  0  0  0
 16 17  1  0  0  0  0
 17 24  1  0  0  0  0
 17 18  2  0  0  0  0
 19 17  2  0  0  0  0
 21 20  1  0  0  0  0
 21 22  2  0  0  0  0
 23 22  1  0  0  0  0
 24 23  2  0  0  0  0
 25 26  2  0  0  0  0
 25 24  1  0  0  0  0
 26 21  1  0  0  0  0
M  END
>  <MODEL>
1

>  <REMARK>
 VINA RESULT:      -5.8      0.000      0.000
  Name = ZINC02338152
                            x       y       z     vdW  Elec       q    Type
                         _______ _______ _______ _____ _____    ______ ____

>  <TORSDO>
F 7

>  <vina_score>
-5.8

$$$$
ZINC29829504
 OpenBabel01091701273D

 27 29  0  0  0  0  0  0  0  0999 V2000
   10.3790   14.7990   -0.3640 C   0  0  0  0  0  0  0  0  0  0  0  0
   10.4770   14.2950   -1.6110 N   0  0  0  0  0  0  0  0  0  0  0  0
   10.9700   13.4580   -1.7660 H   0  0  0  0  0  0  0  0  0  0  0  0
    9.7700   15.8340   -0.1730 O   0  0  0  0  0  0  0  0  0  0  0  0
   12.7610   12.6920    1.6340 C   0  0  0  0  0  0  0  0  0  0  0  0
   12.1740   13.3450    0.5710 C   0  0  0  0  0  0  0  0  0  0  0  0
   11.0130   14.0940    0.7700 C   0  0  0  0  0  0  0  0  0  0  0  0
   10.4530   14.1750    2.0460 C   0  0  0  0  0  0  0  0  0  0  0  0
   11.0510   13.5170    3.1020 C   0  0  0  0  0  0  0  0  0  0  0  0
   12.2010   12.7760    2.8960 C   0  0  0  0  0  0  0  0  0  0  0  0
   12.8470   12.0590    4.0530 C   0  0  0  0  0  0  0  0  0  0  0  0
   12.4920   10.2880    3.9400 S   0  0  0  0  0  0  0  0  0  0  0  0
   10.7330   10.3210    4.0460 C   0  0  0  0  0  0  0  0  0  0  0  0
   10.0070   10.5180    5.1680 N   0  0  0  0  0  0  0  0  0  0  0  0
    8.6580   10.4560    4.7800 N   0  0  0  0  0  0  0  0  0  0  0  0
    8.6400   10.2400    3.4930 C   0  0  0  0  0  0  0  0  0  0  0  0
    9.8940   10.1570    3.0460 N   0  0  0  0  0  0  0  0  0  0  0  0
    9.8490   14.9940   -2.7350 C   0  0  0  0  0  0  0  0  0  0  0  0
    8.6370   14.1960   -3.2200 C   0  0  0  0  0  0  0  0  0  0  0  0
    7.6280   14.1500   -2.1590 N   0  0  0  0  0  0  0  0  0  0  0  0
    7.1100   14.9560   -1.9360 H   0  0  0  0  0  0  0  0  0  0  0  0
    7.4000   12.9650   -1.4680 C   0  0  0  0  0  0  0  0  0  0  0  0
    6.5360   12.0050   -1.9920 C   0  0  0  0  0  0  0  0  0  0  0  0
    6.3240   10.8820   -1.3340 N   0  0  0  0  0  0  0  0  0  0  0  0
    6.9310   10.6670   -0.1780 C   0  0  0  0  0  0  0  0  0  0  0  0
    7.7880   11.6150    0.3450 C   0  0  0  0  0  0  0  0  0  0  0  0
    8.0100   12.7420   -0.3110 N   0  0  0  0  0  0  0  0  0  0  0  0
  1  4  2  0  0  0  0
  1  7  1  0  0  0  0
  2  1  1  0  0  0  0
  3  2  1  0  0  0  0
  5 10  2  0  0  0  0
  6  7  2  0  0  0  0
  6  5  1  0  0  0  0
  7  8  1  0  0  0  0
  8  9  2  0  0  0  0
 10  9  1  0  0  0  0
 10 11  1  0  0  0  0
 12 13  1  0  0  0  0
 12 11  1  0  0  0  0
 13 14  1  0  0  0  0
 15 14  1  0  0  0  0
 16 15  2  0  0  0  0
 17 16  1  0  0  0  0
 17 13  2  0  0  0  0
 18  2  1  0  0  0  0
 19 18  1  0  0  0  0
 19 20  1  0  0  0  0
 20 21  1  0  0  0  0
 20 22  1  0  0  0  0
 22 27  1  0  0  0  0
 23 22  2  0  0  0  0
 23 24  1  0  0  0  0
 24 25  2  0  0  0  0
 25 26  1  0  0  0  0
 27 26  2  0  0  0  0
M  END
>  <MODEL>
1

>  <REMARK>
 VINA RESULT:      -5.8      0.000      0.000
  Name = ZINC29829504
                            x       y       z     vdW  Elec       q    Type
                         _______ _______ _______ _____ _____    ______ ____

>  <TORSDO>
F 8

>  <vina_score>
-5.8

$$$$
ZINC19685094
 OpenBabel01091701293D

 26 27  0  0  1  0  0  0  0  0999 V2000
   12.1410   12.7610    2.7360 C   0  0  0  0  0  0  0  0  0  0  0  0
   10.7490   12.9520    2.9050 C   0  0  0  0  0  0  0  0  0  0  0  0
   10.0040   13.4810    1.8610 C   0  0  0  0  0  0  0  0  0  0  0  0
   10.6730   13.8080    0.6680 C   0  0  0  0  0  0  0  0  0  0  0  0
    9.9790   14.3470   -0.4290 C   0  0  0  0  0  0  0  0  0  0  0  0
   10.6560   14.6530   -1.5700 C   0  0  0  0  0  0  0  0  0  0  0  0
   12.0290   14.4370   -1.6650 C   0  0  0  0  0  0  0  0  0  0  0  0
   12.7330   13.9170   -0.6220 C   0  0  0  0  0  0  0  0  0  0  0  0
   12.0700   13.5890    0.5740 C   0  0  0  0  0  0  0  0  0  0  0  0
   12.7440   13.0750    1.6100 N   0  0  0  0  0  0  0  0  0  0  0  0
   10.1170   12.6020    4.1420 C   0  0  0  0  0  0  0  0  0  0  0  0
    9.6150   12.3240    5.1210 N   0  0  0  0  0  0  0  0  0  0  0  0
   12.8850   12.2330    3.7780 N   0  0  0  0  0  0  0  0  0  0  0  0
   12.3790   10.1530    2.5890 C   0  0  0  0  0  0  0  0  0  0  0  0
   13.4120   10.9080    3.4280 C   0  0  0  0  0  0  0  0  0  0  0  0
   13.9680   13.1470    4.1660 C   0  0  0  0  0  0  0  0  0  0  0  0
   14.9650   12.4040    5.0570 C   0  0  0  0  0  0  0  0  0  0  0  0
    9.9100   15.2320   -2.7450 C   0  0  0  0  0  0  0  0  0  0  0  0
    9.0630   14.1390   -3.3990 C   0  0  1  0  0  0  0  0  0  0  0  0
    9.9210   13.0010   -3.7530 N   0  0  0  0  0  0  0  0  0  0  0  0
    9.4810   12.1340   -3.4430 H   0  0  0  0  0  0  0  0  0  0  0  0
   10.0490   12.9720   -4.7650 H   0  0  0  0  0  0  0  0  0  0  0  0
   10.8280   13.1040   -3.2980 H   0  0  0  0  0  0  0  0  0  0  0  0
    7.9980   13.6850   -2.4360 C   0  0  0  0  0  0  0  0  0  0  0  0
    7.9680   12.4080   -2.0200 O   0  0  0  0  0  0  0  0  0  0  0  0
    7.1690   14.4690   -2.0370 O   0  0  0  0  0  0  0  0  0  0  0  0
  1  2  1  0  0  0  0
  1 13  1  0  0  0  0
  2 11  1  0  0  0  0
  3  2  2  0  0  0  0
  4  3  1  0  0  0  0
  5  4  2  0  0  0  0
  6  5  1  0  0  0  0
  7  6  2  0  0  0  0
  7  8  1  0  0  0  0
  8  9  2  0  0  0  0
  9  4  1  0  0  0  0
  9 10  1  0  0  0  0
 10  1  2  0  0  0  0
 11 12  3  0  0  0  0
 13 16  1  0  0  0  0
 14 15  1  0  0  0  0
 15 13  1  0  0  0  0
 16 17  1  0  0  0  0
 18  6  1  0  0  0  0
 19 20  1  1  0  0  0
 19 18  1  0  0  0  0
 19 24  1  0  0  0  0
 20 21  1  0  0  0  0
 20 23  1  0  0  0  0
 22 20  1  0  0  0  0
 24 26  2  0  0  0  0
 24 25  1  0  0  0  0
M  END
>  <MODEL>
1

>  <REMARK>
 VINA RESULT:      -5.8      0.000      0.000
  Name = ZINC19685094
                            x       y       z     vdW  Elec       q    Type
                         _______ _______ _______ _____ _____    ______ ____

>  <TORSDO>
F 8

>  <vina_score>
-5.8

$$$$
ZINC28185584
 OpenBabel01091701303D

 23 23  0  0  0  0  0  0  0  0999 V2000
   11.4130   15.4340   -1.9820 C   0  0  0  0  0  0  0  0  0  0  0  0
   10.2940   14.4560   -1.7390 C   0  0  0  0  0  0  0  0  0  0  0  0
   10.0180   14.0370   -0.4440 C   0  0  0  0  0  0  0  0  0  0  0  0
    8.9710   13.1250   -0.2360 C   0  0  0  0  0  0  0  0  0  0  0  0
    8.2520   12.6810   -1.3520 C   0  0  0  0  0  0  0  0  0  0  0  0
    8.5970   13.1520   -2.6030 C   0  0  0  0  0  0  0  0  0  0  0  0
    9.5890   14.0080   -2.7570 N   0  0  0  0  0  0  0  0  0  0  0  0
   10.7480   14.5010    0.6020 O   0  0  0  0  0  0  0  0  0  0  0  0
   11.5380   14.0630    0.8520 H   0  0  0  0  0  0  0  0  0  0  0  0
    8.6410   12.6440    1.1200 C   0  0  0  0  0  0  0  0  0  0  0  0
    9.3930   11.7630    1.6940 N   0  0  0  0  0  0  0  0  0  0  0  0
    9.0650   11.2860    3.0400 C   0  0  0  0  0  0  0  0  0  0  0  0
    9.1660   12.4480    4.0310 C   0  0  0  0  0  0  0  0  0  0  0  0
   10.6270   12.6390    4.4460 C   0  0  0  0  0  0  0  0  0  0  0  0
   11.3580   13.3070    3.3660 N   0  0  0  0  0  0  0  0  0  0  0  0
   11.5250   14.2650    3.6730 H   0  0  0  0  0  0  0  0  0  0  0  0
   12.8150   12.7070    2.8580 S   0  0  0  0  0  0  0  0  0  0  0  0
   12.8900   11.0270    3.5400 C   0  0  0  0  0  0  0  0  0  0  0  0
   13.7860   13.5330    3.4850 O   0  0  0  0  0  0  0  0  0  0  0  0
   12.7130   12.6560    1.4420 O   0  0  0  0  0  0  0  0  0  0  0  0
    7.1180   11.7020   -1.1920 C   0  0  0  0  0  0  0  0  0  0  0  0
    5.9980   12.1380   -1.9640 O   0  0  0  0  0  0  0  0  0  0  0  0
    5.2560   12.3370   -1.3720 H   0  0  0  0  0  0  0  0  0  0  0  0
  1  2  1  0  0  0  0
  2  3  2  0  0  0  0
  3  4  1  0  0  0  0
  3  8  1  0  0  0  0
  4 10  1  0  0  0  0
  5 21  1  0  0  0  0
  5  4  2  0  0  0  0
  6  5  1  0  0  0  0
  7  6  2  0  0  0  0
  7  2  1  0  0  0  0
  8  9  1  0  0  0  0
 10 11  2  0  0  0  0
 11 12  1  0  0  0  0
 12 13  1  0  0  0  0
 13 14  1  0  0  0  0
 15 16  1  0  0  0  0
 15 14  1  0  0  0  0
 17 15  1  0  0  0  0
 17 19  2  0  0  0  0
 17 18  1  0  0  0  0
 20 17  2  0  0  0  0
 22 23  1  0  0  0  0
 22 21  1  0  0  0  0
M  END
>  <MODEL>
1

>  <REMARK>
 VINA RESULT:      -5.8      0.000      0.000
  Name = ZINC28185584
                            x       y       z     vdW  Elec       q    Type
                         _______ _______ _______ _____ _____    ______ ____

>  <TORSDO>
F 9

>  <vina_score>
-5.8

$$$$
ZINC18153419
 OpenBabel01091701323D

 26 28  0  0  1  0  0  0  0  0999 V2000
    9.2930   12.8910   -0.2270 N   0  0  0  0  0  0  0  0  0  0  0  0
   10.3000   13.0680    0.6710 C   0  0  1  0  0  0  0  0  0  0  0  0
   10.6800   14.3590    0.6010 N   0  0  0  0  0  0  0  0  0  0  0  0
   11.3870   14.7880    1.1370 H   0  0  0  0  0  0  0  0  0  0  0  0
    9.8870   14.9790   -0.3730 N   0  0  0  0  0  0  0  0  0  0  0  0
   10.8430   12.0820    1.5230 C   0  0  0  0  0  0  0  0  0  0  0  0
   10.3910   10.7660    1.7020 C   0  0  0  0  0  0  0  0  0  0  0  0
   11.1540   10.1540    2.5780 N   0  0  0  0  0  0  0  0  0  0  0  0
   12.1300   10.9500    3.0430 C   0  0  0  0  0  0  0  0  0  0  0  0
   13.1660   10.7590    3.9690 C   0  0  0  0  0  0  0  0  0  0  0  0
   14.0260   11.7810    4.2470 C   0  0  0  0  0  0  0  0  0  0  0  0
   13.8940   13.0170    3.6260 C   0  0  0  0  0  0  0  0  0  0  0  0
   12.8950   13.2380    2.7180 C   0  0  0  0  0  0  0  0  0  0  0  0
   12.0030   12.2120    2.4160 C   0  0  0  0  0  0  0  0  0  0  0  0
    9.0630   14.0910   -0.8540 C   0  0  0  0  0  0  0  0  0  0  0  0
    8.5780   11.6380   -0.4800 C   0  0  0  0  0  0  0  0  0  0  0  0
    7.1230   11.7800   -0.0280 C   0  0  0  0  0  0  0  0  0  0  0  0
    6.7650   10.2250    1.7610 C   0  0  0  0  0  0  0  0  0  0  0  0
    7.0410   11.5760    1.3840 O   0  0  0  0  0  0  0  0  0  0  0  0
    7.8540   14.3810   -2.1030 S   0  0  0  0  0  0  0  0  0  0  0  0
    8.9330   14.6110   -3.5370 C   0  0  0  0  0  0  0  0  0  0  0  0
    9.6330   13.3130   -3.8530 C   0  0  0  0  0  0  0  0  0  0  0  0
   10.9520   13.1830   -3.6100 N   0  0  0  0  0  0  0  0  0  0  0  0
   11.4090   12.3350   -3.8160 H   0  0  0  0  0  0  0  0  0  0  0  0
   11.4590   13.9350   -3.2270 H   0  0  0  0  0  0  0  0  0  0  0  0
    9.0080   12.3880   -4.3250 O   0  0  0  0  0  0  0  0  0  0  0  0
  1  2  1  0  0  0  0
  2  6  1  1  0  0  0
  3  2  1  0  0  0  0
  3  4  1  0  0  0  0
  5  3  1  0  0  0  0
  6  7  2  0  0  0  0
  6 14  1  0  0  0  0
  7  8  1  0  0  0  0
  8  9  1  0  0  0  0
  9 10  2  0  0  0  0
 10 11  1  0  0  0  0
 12 11  2  0  0  0  0
 13 12  1  0  0  0  0
 14 13  2  0  0  0  0
 14  9  1  0  0  0  0
 15  5  2  0  0  0  0
 15  1  1  0  0  0  0
 16  1  1  0  0  0  0
 16 17  1  0  0  0  0
 17 19  1  0  0  0  0
 19 18  1  0  0  0  0
 20 15  1  0  0  0  0
 21 20  1  0  0  0  0
 22 23  1  0  0  0  0
 22 21  1  0  0  0  0
 23 25  1  0  0  0  0
 24 23  1  0  0  0  0
 26 22  2  0  0  0  0
M  END
>  <MODEL>
1

>  <REMARK>
 VINA RESULT:      -5.8      0.000      0.000
  Name = ZINC18153419
                            x       y       z     vdW  Elec       q    Type
                         _______ _______ _______ _____ _____    ______ ____

>  <TORSDO>
F 6

>  <vina_score>
-5.8

$$$$
ZINC21993044
 OpenBabel01091701373D

 31 33  0  0  1  0  0  0  0  0999 V2000
    9.4510   14.0150    2.8890 C   0  0  1  0  0  0  0  0  0  0  0  0
    8.2750   13.0500    3.1280 C   0  0  0  0  0  0  0  0  0  0  0  0
    9.1920   12.4910    4.2210 C   0  0  1  0  0  0  0  0  0  0  0  0
    9.2320   10.6800    4.3070 S   0  0  0  0  0  0  0  0  0  0  0  0
   10.9890   10.2700    4.3790 C   0  0  0  0  0  0  0  0  0  0  0  0
   11.8740   11.2160    3.6590 C   0  0  0  0  0  0  0  0  0  0  0  0
   11.6000   12.4350    3.2260 C   0  0  0  0  0  0  0  0  0  0  0  0
   10.3230   12.9640    3.3900 N   0  0  0  0  0  0  0  0  0  0  0  0
    9.1340   13.5500    0.5180 C   0  0  0  0  0  0  0  0  0  0  0  0
    9.6710   14.3320    1.4760 N   0  0  0  0  0  0  0  0  0  0  0  0
   10.2110   15.1160    1.2250 H   0  0  0  0  0  0  0  0  0  0  0  0
    8.4670   12.5820    0.8270 O   0  0  0  0  0  0  0  0  0  0  0  0
    8.4010   13.6760   -1.7790 N   0  0  0  0  0  0  0  0  0  0  0  0
    9.3550   13.8700   -0.9120 C   0  0  0  0  0  0  0  0  0  0  0  0
   10.6540   14.4080   -1.3540 C   0  0  0  0  0  0  0  0  0  0  0  0
   11.0480   15.7100   -1.2800 C   0  0  0  0  0  0  0  0  0  0  0  0
   12.3490   15.7710   -1.8120 C   0  0  0  0  0  0  0  0  0  0  0  0
   12.6850   14.5180   -2.1820 C   0  0  0  0  0  0  0  0  0  0  0  0
   11.6610   13.6970   -1.8980 O   0  0  0  0  0  0  0  0  0  0  0  0
    9.0050   12.8600   -3.9380 C   0  0  0  0  0  0  0  0  0  0  0  0
    8.6110   13.9820   -3.1450 O   0  0  0  0  0  0  0  0  0  0  0  0
   12.6490   13.2350    2.5650 C   0  0  0  0  0  0  0  0  0  0  0  0
   12.6290   13.3990    1.2280 O   0  0  0  0  0  0  0  0  0  0  0  0
   13.5300   13.7460    3.2280 O   0  0  0  0  0  0  0  0  0  0  0  0
   13.2730   10.7230    3.3850 C   0  0  0  0  0  0  0  0  0  0  0  0
   13.8320   10.1540    4.5970 O   0  0  0  0  0  0  0  0  0  0  0  0
   14.8900   10.7870    5.1380 C   0  0  0  0  0  0  0  0  0  0  0  0
   15.0200   12.1210    5.0030 N   0  0  0  0  0  0  0  0  0  0  0  0
   15.7950   12.5830    5.3980 H   0  0  0  0  0  0  0  0  0  0  0  0
   14.3410   12.6340    4.5080 H   0  0  0  0  0  0  0  0  0  0  0  0
   15.7290   10.1540    5.7490 O   0  0  0  0  0  0  0  0  0  0  0  0
  1 10  1  6  0  0  0
  1  2  1  0  0  0  0
  1  8  1  0  0  0  0
  3  2  1  6  0  0  0
  3  4  1  0  0  0  0
  4  5  1  0  0  0  0
  6  5  1  0  0  0  0
  7  8  1  0  0  0  0
  7  6  2  0  0  0  0
  8  3  1  0  0  0  0
  9 12  2  0  0  0  0
  9 10  1  0  0  0  0
 11 10  1  0  0  0  0
 13 14  2  0  0  0  0
 14  9  1  0  0  0  0
 15 16  2  0  0  0  0
 15 14  1  0  0  0  0
 17 16  1  0  0  0  0
 18 19  1  0  0  0  0
 18 17  2  0  0  0  0
 19 15  1  0  0  0  0
 20 21  1  0  0  0  0
 21 13  1  0  0  0  0
 22  7  1  0  0  0  0
 22 24  1  0  0  0  0
 23 22  2  0  0  0  0
 25  6  1  0  0  0  0
 25 26  1  0  0  0  0
 26 27  1  0  0  0  0
 27 31  2  0  0  0  0
 28 27  1  0  0  0  0
 28 29  1  0  0  0  0
 30 28  1  0  0  0  0
M  END
>  <MODEL>
1

>  <REMARK>
 VINA RESULT:      -5.7      0.000      0.000
  Name = ZINC21993044
                            x       y       z     vdW  Elec       q    Type
                         _______ _______ _______ _____ _____    ______ ____

>  <TORSDO>
F 8

>  <vina_score>
-5.7

$$$$
ZINC20261639
 OpenBabel01091701383D

 20 20  0  0  0  0  0  0  0  0999 V2000
    9.6430   12.3750    1.7650 N   0  0  0  0  0  0  0  0  0  0  0  0
   10.8960   11.6340    1.9200 C   0  0  0  0  0  0  0  0  0  0  0  0
    9.7440   14.0280   -0.0010 C   0  0  0  0  0  0  0  0  0  0  0  0
    9.7670   15.3540   -0.4000 C   0  0  0  0  0  0  0  0  0  0  0  0
    9.7140   16.3620    0.5450 C   0  0  0  0  0  0  0  0  0  0  0  0
    9.6380   16.0500    1.8900 C   0  0  0  0  0  0  0  0  0  0  0  0
    9.6100   14.7300    2.2970 C   0  0  0  0  0  0  0  0  0  0  0  0
    9.6670   13.7140    1.3540 C   0  0  0  0  0  0  0  0  0  0  0  0
    9.7940   13.0360   -0.9290 O   0  0  0  0  0  0  0  0  0  0  0  0
    9.5120   13.1010   -3.3290 C   0  0  0  0  0  0  0  0  0  0  0  0
   10.4670   13.3270   -2.1550 C   0  0  0  0  0  0  0  0  0  0  0  0
    8.1970   11.6300    2.0750 S   0  0  0  0  0  0  0  0  0  0  0  0
    8.3310   11.1130    3.3920 O   0  0  0  0  0  0  0  0  0  0  0  0
    7.2120   12.6110    1.7790 O   0  0  0  0  0  0  0  0  0  0  0  0
    8.1060   10.2720    0.8760 C   0  0  0  0  0  0  0  0  0  0  0  0
    6.8930   10.4760   -0.0350 C   0  0  0  0  0  0  0  0  0  0  0  0
    7.1720   11.5610   -0.9840 N   0  0  0  0  0  0  0  0  0  0  0  0
    6.2940   11.9770   -1.2940 H   0  0  0  0  0  0  0  0  0  0  0  0
    7.7420   12.2750   -0.5270 H   0  0  0  0  0  0  0  0  0  0  0  0
    7.6750   11.1890   -1.7890 H   0  0  0  0  0  0  0  0  0  0  0  0
  1  2  1  0  0  0  0
  1 12  1  0  0  0  0
  3  8  1  0  0  0  0
  4  3  2  0  0  0  0
  4  5  1  0  0  0  0
  5  6  2  0  0  0  0
  6  7  1  0  0  0  0
  8  1  1  0  0  0  0
  8  7  2  0  0  0  0
  9  3  1  0  0  0  0
 10 11  1  0  0  0  0
 11  9  1  0  0  0  0
 12 13  2  0  0  0  0
 14 12  2  0  0  0  0
 15 12  1  0  0  0  0
 16 15  1  0  0  0  0
 17 19  1  0  0  0  0
 17 16  1  0  0  0  0
 18 17  1  0  0  0  0
 20 17  1  0  0  0  0
M  END
>  <MODEL>
1

>  <REMARK>
 VINA RESULT:      -5.7      0.000      0.000
  Name = ZINC20261639
                            x       y       z     vdW  Elec       q    Type
                         _______ _______ _______ _____ _____    ______ ____

>  <TORSDO>
F 7

>  <vina_score>
-5.7

$$$$
ZINC20236119
 OpenBabel01091701463D

 22 22  0  0  0  0  0  0  0  0999 V2000
    9.5950   13.1720   -1.5320 N   0  0  0  0  0  0  0  0  0  0  0  0
    9.3610   13.0420   -0.1590 C   0  0  0  0  0  0  0  0  0  0  0  0
    8.8210   11.8660    0.3470 C   0  0  0  0  0  0  0  0  0  0  0  0
    8.5960   11.7360    1.7040 C   0  0  0  0  0  0  0  0  0  0  0  0
    8.8960   12.7810    2.5620 C   0  0  0  0  0  0  0  0  0  0  0  0
    9.4320   13.9620    2.0580 C   0  0  0  0  0  0  0  0  0  0  0  0
    9.6640   14.0920    0.6990 C   0  0  0  0  0  0  0  0  0  0  0  0
    8.6680   12.6520    3.8970 O   0  0  0  0  0  0  0  0  0  0  0  0
    9.4600   11.6930    4.6010 C   0  0  0  0  0  0  0  0  0  0  0  0
    9.7280   14.9880    2.9010 O   0  0  0  0  0  0  0  0  0  0  0  0
    9.4220   16.3080    2.4470 C   0  0  0  0  0  0  0  0  0  0  0  0
   11.1430   13.3330   -2.0970 S   0  0  0  0  0  0  0  0  0  0  0  0
   11.9390   12.5780   -1.1940 O   0  0  0  0  0  0  0  0  0  0  0  0
   11.0670   12.9730   -3.4700 O   0  0  0  0  0  0  0  0  0  0  0  0
   12.6980   15.2860   -0.9800 C   0  0  0  0  0  0  0  0  0  0  0  0
   11.5160   15.1000   -1.9340 C   0  0  0  0  0  0  0  0  0  0  0  0
    8.4700   13.1630   -2.4700 C   0  0  0  0  0  0  0  0  0  0  0  0
    8.0720   14.6020   -2.8030 C   0  0  0  0  0  0  0  0  0  0  0  0
    8.7660   15.0320   -4.0250 N   0  0  0  0  0  0  0  0  0  0  0  0
    8.0980   15.0870   -4.7930 H   0  0  0  0  0  0  0  0  0  0  0  0
    9.1870   15.9480   -3.8720 H   0  0  0  0  0  0  0  0  0  0  0  0
    9.4960   14.3580   -4.2560 H   0  0  0  0  0  0  0  0  0  0  0  0
  1  2  1  0  0  0  0
  2  3  2  0  0  0  0
  2  7  1  0  0  0  0
  3  4  1  0  0  0  0
  4  5  2  0  0  0  0
  5  8  1  0  0  0  0
  6  5  1  0  0  0  0
  6 10  1  0  0  0  0
  7  6  2  0  0  0  0
  8  9  1  0  0  0  0
 11 10  1  0  0  0  0
 12 16  1  0  0  0  0
 12  1  1  0  0  0  0
 12 13  2  0  0  0  0
 14 12  2  0  0  0  0
 16 15  1  0  0  0  0
 17  1  1  0  0  0  0
 18 17  1  0  0  0  0
 19 21  1  0  0  0  0
 19 18  1  0  0  0  0
 20 19  1  0  0  0  0
 22 19  1  0  0  0  0
M  END
>  <MODEL>
1

>  <REMARK>
 VINA RESULT:      -5.7      0.000      0.000
  Name = ZINC20236119
                            x       y       z     vdW  Elec       q    Type
                         _______ _______ _______ _____ _____    ______ ____

>  <TORSDO>
F 8

>  <vina_score>
-5.7

$$$$
ZINC02861235
 OpenBabel01091701263D

 29 30  0  0  1  0  0  0  0  0999 V2000
    7.0350   11.6230   -0.8930 C   0  0  0  0  0  0  0  0  0  0  0  0
    8.1370   12.0750   -1.7630 N   0  0  0  0  0  0  0  0  0  0  0  0
    8.9730   11.5320   -1.5480 H   0  0  0  0  0  0  0  0  0  0  0  0
    7.8720   11.9390   -2.7390 H   0  0  0  0  0  0  0  0  0  0  0  0
    8.4190   13.5040   -1.5300 C   0  0  1  0  0  0  0  0  0  0  0  0
    9.5460   13.6300   -0.5370 C   0  0  0  0  0  0  0  0  0  0  0  0
   10.6040   12.7400   -0.5750 C   0  0  0  0  0  0  0  0  0  0  0  0
   11.6360   12.8560    0.3360 C   0  0  0  0  0  0  0  0  0  0  0  0
   11.6120   13.8600    1.2850 C   0  0  0  0  0  0  0  0  0  0  0  0
   10.5540   14.7500    1.3230 C   0  0  0  0  0  0  0  0  0  0  0  0
    9.5220   14.6340    0.4120 C   0  0  0  0  0  0  0  0  0  0  0  0
    8.8250   14.1660   -2.8480 C   0  0  0  0  0  0  0  0  0  0  0  0
    9.6170   13.1880   -3.6790 C   0  0  0  0  0  0  0  0  0  0  0  0
    8.9950   12.4250   -4.5910 O   0  0  0  0  0  0  0  0  0  0  0  0
   10.8110   13.0940   -3.5240 O   0  0  0  0  0  0  0  0  0  0  0  0
    7.5890   10.6550    0.1560 C   0  0  0  0  0  0  0  0  0  0  0  0
    7.4420   11.2740    1.5480 C   0  0  1  0  0  0  0  0  0  0  0  0
   11.1610   10.9870    3.6330 C   0  0  0  0  0  0  0  0  0  0  0  0
   10.2090   11.9130    4.0340 C   0  0  0  0  0  0  0  0  0  0  0  0
    9.0080   12.0040    3.3590 C   0  0  0  0  0  0  0  0  0  0  0  0
    8.7540   11.1730    2.2840 C   0  0  0  0  0  0  0  0  0  0  0  0
    9.6990   10.2450    1.8850 C   0  0  0  0  0  0  0  0  0  0  0  0
   10.9040   10.1540    2.5540 C   0  0  0  0  0  0  0  0  0  0  0  0
   12.3430   10.8950    4.2970 O   0  0  0  0  0  0  0  0  0  0  0  0
   13.5150   11.3240    3.6000 C   0  0  0  0  0  0  0  0  0  0  0  0
   15.0210   12.7870    4.9540 C   0  0  0  0  0  0  0  0  0  0  0  0
   13.8360   12.7690    3.9850 C   0  0  0  0  0  0  0  0  0  0  0  0
    7.0710   12.6480    1.4230 O   0  0  0  0  0  0  0  0  0  0  0  0
    6.1700   12.7090    1.0670 H   0  0  0  0  0  0  0  0  0  0  0  0
  1 16  1  0  0  0  0
  2  3  1  0  0  0  0
  2  5  1  0  0  0  0
  2  1  1  0  0  0  0
  4  2  1  0  0  0  0
  5 12  1  6  0  0  0
  5  6  1  0  0  0  0
  6 11  1  0  0  0  0
  7  6  2  0  0  0  0
  7  8  1  0  0  0  0
  8  9  2  0  0  0  0
  9 10  1  0  0  0  0
 11 10  2  0  0  0  0
 13 15  1  0  0  0  0
 13 12  1  0  0  0  0
 14 13  2  0  0  0  0
 17 16  1  6  0  0  0
 17 21  1  0  0  0  0
 18 19  1  0  0  0  0
 18 24  1  0  0  0  0
 20 19  2  0  0  0  0
 21 20  1  0  0  0  0
 22 21  2  0  0  0  0
 22 23  1  0  0  0  0
 23 18  2  0  0  0  0
 25 27  1  0  0  0  0
 25 24  1  0  0  0  0
 27 26  1  0  0  0  0
 28 17  1  0  0  0  0
 29 28  1  0  0  0  0
M  END
>  <MODEL>
1

>  <REMARK>
 VINA RESULT:      -5.7      0.000      0.000
  Name = ZINC02861235
                            x       y       z     vdW  Elec       q    Type
                         _______ _______ _______ _____ _____    ______ ____

>  <TORSDO>
F 12

>  <vina_score>
-5.7

$$$$
ZINC19282844
 OpenBabel01091701493D

 22 22  0  0  0  0  0  0  0  0999 V2000
   10.9810   13.2470    3.4050 C   0  0  0  0  0  0  0  0  0  0  0  0
   10.0660   12.3980    4.0110 C   0  0  0  0  0  0  0  0  0  0  0  0
    8.8630   12.1180    3.3910 C   0  0  0  0  0  0  0  0  0  0  0  0
    8.5680   12.6830    2.1610 C   0  0  0  0  0  0  0  0  0  0  0  0
    9.4850   13.5360    1.5500 C   0  0  0  0  0  0  0  0  0  0  0  0
   10.6930   13.8110    2.1720 C   0  0  0  0  0  0  0  0  0  0  0  0
   12.1640   13.5190    4.0180 O   0  0  0  0  0  0  0  0  0  0  0  0
   14.4310   12.9140    4.5980 C   0  0  0  0  0  0  0  0  0  0  0  0
   13.3120   12.8020    3.5600 C   0  0  0  0  0  0  0  0  0  0  0  0
    7.3840   12.4060    1.5500 O   0  0  0  0  0  0  0  0  0  0  0  0
    7.0840   11.0280    1.3120 C   0  0  0  0  0  0  0  0  0  0  0  0
    7.0460   10.7680   -0.1950 C   0  0  0  0  0  0  0  0  0  0  0  0
    9.1890   14.1070    0.3080 N   0  0  0  0  0  0  0  0  0  0  0  0
   10.0120   13.6200   -1.0450 S   0  0  0  0  0  0  0  0  0  0  0  0
   11.0850   14.5430   -1.1690 O   0  0  0  0  0  0  0  0  0  0  0  0
   10.2660   12.2380   -0.8360 O   0  0  0  0  0  0  0  0  0  0  0  0
    8.8360   13.8410   -2.4090 C   0  0  0  0  0  0  0  0  0  0  0  0
    9.3140   13.0460   -3.6270 C   0  0  0  0  0  0  0  0  0  0  0  0
   10.7650   13.2110   -3.7810 N   0  0  0  0  0  0  0  0  0  0  0  0
   11.0220   14.1750   -3.5670 H   0  0  0  0  0  0  0  0  0  0  0  0
   11.2480   12.5810   -3.1410 H   0  0  0  0  0  0  0  0  0  0  0  0
   11.0320   12.9930   -4.7410 H   0  0  0  0  0  0  0  0  0  0  0  0
  1  2  1  0  0  0  0
  1  7  1  0  0  0  0
  3  2  2  0  0  0  0
  4  3  1  0  0  0  0
  5  4  2  0  0  0  0
  5  6  1  0  0  0  0
  6  1  2  0  0  0  0
  9  7  1  0  0  0  0
  9  8  1  0  0  0  0
 10  4  1  0  0  0  0
 11 10  1  0  0  0  0
 12 11  1  0  0  0  0
 13  5  1  0  0  0  0
 14 16  2  0  0  0  0
 14 13  1  0  0  0  0
 15 14  2  0  0  0  0
 17 14  1  0  0  0  0
 18 17  1  0  0  0  0
 19 18  1  0  0  0  0
 19 20  1  0  0  0  0
 19 21  1  0  0  0  0
 22 19  1  0  0  0  0
M  END
>  <MODEL>
1

>  <REMARK>
 VINA RESULT:      -5.7      0.000      0.000
  Name = ZINC19282844
                            x       y       z     vdW  Elec       q    Type
                         _______ _______ _______ _____ _____    ______ ____

>  <TORSDO>
F 9

>  <vina_score>
-5.7

$$$$
ZINC11804938
 OpenBabel01091701173D

 21 21  0  0  0  0  0  0  0  0999 V2000
   10.3930   11.5420    0.9990 S   0  0  0  0  0  0  0  0  0  0  0  0
   11.5300   10.7670    0.6450 O   0  0  0  0  0  0  0  0  0  0  0  0
    9.1810   10.9530    1.4500 O   0  0  0  0  0  0  0  0  0  0  0  0
    9.9850   12.5120   -0.4140 C   0  0  0  0  0  0  0  0  0  0  0  0
   10.9900   13.1010   -1.1600 C   0  0  0  0  0  0  0  0  0  0  0  0
   10.6750   13.8620   -2.2680 C   0  0  0  0  0  0  0  0  0  0  0  0
    9.3450   14.0360   -2.6330 C   0  0  0  0  0  0  0  0  0  0  0  0
    8.3390   13.4430   -1.8820 C   0  0  0  0  0  0  0  0  0  0  0  0
    8.6610   12.6830   -0.7750 C   0  0  0  0  0  0  0  0  0  0  0  0
    9.0230   14.8060   -3.7540 N   0  0  0  0  0  0  0  0  0  0  0  0
    8.9030   14.3720   -4.6300 H   0  0  0  0  0  0  0  0  0  0  0  0
    8.9150   15.7810   -3.6680 H   0  0  0  0  0  0  0  0  0  0  0  0
   10.8810   12.5870    2.1870 N   0  0  0  0  0  0  0  0  0  0  0  0
   12.2720   13.0460    2.2330 C   0  0  0  0  0  0  0  0  0  0  0  0
   12.9090   12.6100    3.5530 C   0  0  0  0  0  0  0  0  0  0  0  0
   14.9010   12.9740    4.8350 C   0  0  0  0  0  0  0  0  0  0  0  0
   13.9720   13.5040    3.8880 O   0  0  0  0  0  0  0  0  0  0  0  0
    9.9230   13.0520    3.1920 C   0  0  0  0  0  0  0  0  0  0  0  0
    9.0330   14.1380    2.5860 C   0  0  0  0  0  0  0  0  0  0  0  0
    9.7790   15.3500    2.4620 O   0  0  0  0  0  0  0  0  0  0  0  0
    9.7610   15.9120    1.1480 C   0  0  0  0  0  0  0  0  0  0  0  0
  1  3  2  0  0  0  0
  1 13  1  0  0  0  0
  2  1  2  0  0  0  0
  4  1  1  0  0  0  0
  5  4  2  0  0  0  0
  6  5  1  0  0  0  0
  7  6  2  0  0  0  0
  7  8  1  0  0  0  0
  8  9  2  0  0  0  0
  9  4  1  0  0  0  0
 10 12  1  0  0  0  0
 10  7  1  0  0  0  0
 11 10  1  0  0  0  0
 13 14  1  0  0  0  0
 13 18  1  0  0  0  0
 14 15  1  0  0  0  0
 15 17  1  0  0  0  0
 17 16  1  0  0  0  0
 19 18  1  0  0  0  0
 20 19  1  0  0  0  0
 21 20  1  0  0  0  0
M  END
>  <MODEL>
1

>  <REMARK>
 VINA RESULT:      -5.7      0.000      0.000
  Name = ZINC11804938
                            x       y       z     vdW  Elec       q    Type
                         _______ _______ _______ _____ _____    ______ ____

>  <TORSDO>
F 9

>  <vina_score>
-5.7

$$$$
ZINC22843212
 OpenBabel01091701283D

 30 31  0  0  1  0  0  0  0  0999 V2000
    8.2220   10.9360    2.5400 N   0  0  0  0  0  0  0  0  0  0  0  0
    7.2180   10.9270    2.7180 H   0  0  0  0  0  0  0  0  0  0  0  0
    8.4740   10.1540    1.3220 C   0  0  0  0  0  0  0  0  0  0  0  0
    7.6970   10.7690    0.1550 C   0  0  0  0  0  0  0  0  0  0  0  0
    8.1130   12.1660   -0.0250 N   0  0  0  0  0  0  0  0  0  0  0  0
    9.1180   12.1760   -0.2040 H   0  0  0  0  0  0  0  0  0  0  0  0
    7.8630   12.9480    1.1930 C   0  0  0  0  0  0  0  0  0  0  0  0
    8.6380   12.3340    2.3600 C   0  0  0  0  0  0  0  0  0  0  0  0
    8.8910   10.3330    3.7000 C   0  0  0  0  0  0  0  0  0  0  0  0
   11.1740   11.1970    3.2990 N   0  0  0  0  0  0  0  0  0  0  0  0
   11.1960   10.6640    2.4700 H   0  0  0  0  0  0  0  0  0  0  0  0
   10.0810   11.1740    4.0870 C   0  0  0  0  0  0  0  0  0  0  0  0
   10.0540   11.8290    5.1060 O   0  0  0  0  0  0  0  0  0  0  0  0
   15.5600   12.7690    5.0720 C   0  0  0  0  0  0  0  0  0  0  0  0
   14.1990   12.6560    4.4370 C   0  0  0  0  0  0  0  0  0  0  0  0
   13.4430   11.5390    4.3370 C   0  0  0  0  0  0  0  0  0  0  0  0
   12.2750   11.9750    3.6570 C   0  0  0  0  0  0  0  0  0  0  0  0
   12.4370   13.2530    3.4370 N   0  0  0  0  0  0  0  0  0  0  0  0
   13.4990   13.6450    3.8610 O   0  0  0  0  0  0  0  0  0  0  0  0
    7.4450   12.7700   -1.1860 C   0  0  0  0  0  0  0  0  0  0  0  0
    8.3510   13.8020   -1.8070 C   0  0  0  0  0  0  0  0  0  0  0  0
    7.9070   14.5950   -2.6020 O   0  0  0  0  0  0  0  0  0  0  0  0
    9.8110   13.8440   -1.4340 C   0  0  2  0  0  0  0  0  0  0  0  0
   10.1800   15.2420   -1.0090 C   0  0  1  0  0  0  0  0  0  0  0  0
   11.5490   15.7890   -1.3220 C   0  0  0  0  0  0  0  0  0  0  0  0
    9.3300   15.9650   -0.3830 N   0  0  0  0  0  0  0  0  0  0  0  0
    9.5710   16.8780   -0.1050 H   0  0  0  0  0  0  0  0  0  0  0  0
    8.4360   15.6070   -0.1780 H   0  0  0  0  0  0  0  0  0  0  0  0
   10.6250   13.4540   -2.5960 C   0  0  0  0  0  0  0  0  0  0  0  0
   11.2540   13.1540   -3.4940 N   0  0  0  0  0  0  0  0  0  0  0  0
  1  2  1  0  0  0  0
  1  9  1  0  0  0  0
  3  1  1  0  0  0  0
  4  3  1  0  0  0  0
  5  4  1  0  0  0  0
  5  7  1  0  0  0  0
  6  5  1  0  0  0  0
  7  8  1  0  0  0  0
  8  1  1  0  0  0  0
  9 12  1  0  0  0  0
 10 17  1  0  0  0  0
 10 12  1  0  0  0  0
 11 10  1  0  0  0  0
 12 13  2  0  0  0  0
 15 14  1  0  0  0  0
 16 15  2  0  0  0  0
 17 16  1  0  0  0  0
 18 17  2  0  0  0  0
 18 19  1  0  0  0  0
 19 15  1  0  0  0  0
 20  5  1  0  0  0  0
 21 23  1  0  0  0  0
 21 20  1  0  0  0  0
 22 21  2  0  0  0  0
 23 29  1  6  0  0  0
 23 24  1  0  0  0  0
 24 25  1  6  0  0  0
 24 26  1  0  0  0  0
 26 28  1  0  0  0  0
 26 27  1  0  0  0  0
 30 29  3  0  0  0  0
M  END
>  <MODEL>
1

>  <REMARK>
 VINA RESULT:      -5.7      0.000      0.000
  Name = ZINC22843212
                            x       y       z     vdW  Elec       q    Type
                         _______ _______ _______ _____ _____    ______ ____

>  <TORSDO>
F 8

>  <vina_score>
-5.7

$$$$
ZINC10254186
 OpenBabel01091701343D

 28 29  0  0  0  0  0  0  0  0999 V2000
    9.7830   11.9580    2.2650 C   0  0  0  0  0  0  0  0  0  0  0  0
    9.5500   11.2870    1.1200 N   0  0  0  0  0  0  0  0  0  0  0  0
    9.8640   10.3600    1.0200 H   0  0  0  0  0  0  0  0  0  0  0  0
    9.3380   13.0770    2.4150 O   0  0  0  0  0  0  0  0  0  0  0  0
    8.8680   11.9050    0.0800 C   0  0  0  0  0  0  0  0  0  0  0  0
    9.4370   12.7780   -0.9550 C   0  0  0  0  0  0  0  0  0  0  0  0
   10.7230   13.2450   -1.2320 C   0  0  0  0  0  0  0  0  0  0  0  0
   10.9270   14.0700   -2.3030 C   0  0  0  0  0  0  0  0  0  0  0  0
    9.8650   14.4440   -3.1150 C   0  0  0  0  0  0  0  0  0  0  0  0
    8.5890   13.9930   -2.8570 C   0  0  0  0  0  0  0  0  0  0  0  0
    8.3570   13.1530   -1.7730 C   0  0  0  0  0  0  0  0  0  0  0  0
    7.2450   12.5720   -1.2810 O   0  0  0  0  0  0  0  0  0  0  0  0
    7.5300   11.8260   -0.1900 C   0  0  0  0  0  0  0  0  0  0  0  0
    6.5560   11.0600    0.5860 C   0  0  0  0  0  0  0  0  0  0  0  0
    5.7590   10.1640   -0.0300 N   0  0  0  0  0  0  0  0  0  0  0  0
    5.1030    9.6480    0.4930 H   0  0  0  0  0  0  0  0  0  0  0  0
    5.8320   10.0260   -1.0020 H   0  0  0  0  0  0  0  0  0  0  0  0
    6.4650   11.2300    1.7880 O   0  0  0  0  0  0  0  0  0  0  0  0
   11.7920   10.7840    3.0700 N   0  0  0  0  0  0  0  0  0  0  0  0
   12.1400   10.8110    2.1510 H   0  0  0  0  0  0  0  0  0  0  0  0
   10.5880   11.3220    3.3520 C   0  0  0  0  0  0  0  0  0  0  0  0
   10.1590   11.2890    4.4850 O   0  0  0  0  0  0  0  0  0  0  0  0
   12.5810   10.1600    4.1350 C   0  0  0  0  0  0  0  0  0  0  0  0
   14.0520   10.5530    3.9770 C   0  0  0  0  0  0  0  0  0  0  0  0
   15.7320   11.4110    5.4950 C   0  0  0  0  0  0  0  0  0  0  0  0
   14.3690   11.6130    4.9580 N   0  0  0  0  0  0  0  0  0  0  0  0
   13.7000   11.5650    5.7260 H   0  0  0  0  0  0  0  0  0  0  0  0
   14.2710   12.9410    4.3160 C   0  0  0  0  0  0  0  0  0  0  0  0
  1  4  2  0  0  0  0
  1 21  1  0  0  0  0
  2  1  1  0  0  0  0
  3  2  1  0  0  0  0
  5  2  1  0  0  0  0
  6  5  1  0  0  0  0
  7  6  1  0  0  0  0
  8  7  2  0  0  0  0
  9 10  2  0  0  0  0
  9  8  1  0  0  0  0
 10 11  1  0  0  0  0
 11 12  1  0  0  0  0
 11  6  2  0  0  0  0
 12 13  1  0  0  0  0
 13  5  2  0  0  0  0
 13 14  1  0  0  0  0
 14 18  2  0  0  0  0
 15 16  1  0  0  0  0
 15 14  1  0  0  0  0
 17 15  1  0  0  0  0
 19 21  1  0  0  0  0
 19 23  1  0  0  0  0
 20 19  1  0  0  0  0
 21 22  2  0  0  0  0
 24 23  1  0  0  0  0
 24 26  1  0  0  0  0
 26 25  1  0  0  0  0
 26 27  1  0  0  0  0
 28 26  1  0  0  0  0
M  END
>  <MODEL>
1

>  <REMARK>
 VINA RESULT:      -5.6      0.000      0.000
  Name = ZINC10254186
                            x       y       z     vdW  Elec       q    Type
                         _______ _______ _______ _____ _____    ______ ____

>  <TORSDO>
F 6

>  <vina_score>
-5.6

$$$$
ZINC04474059
 OpenBabel01091701233D

 33 35  0  0  1  0  0  0  0  0999 V2000
   11.7360   11.9530    2.1850 C   0  0  0  0  0  0  0  0  0  0  0  0
   10.3690   11.8080    1.8470 C   0  0  0  0  0  0  0  0  0  0  0  0
    9.6060   10.9480    2.5350 C   0  0  0  0  0  0  0  0  0  0  0  0
    8.3030   10.7730    2.2670 O   0  0  0  0  0  0  0  0  0  0  0  0
    7.8110   11.1640    1.0800 C   0  0  0  0  0  0  0  0  0  0  0  0
    6.6090   10.6590    0.6590 N   0  0  0  0  0  0  0  0  0  0  0  0
    6.2360   10.9370   -0.2090 H   0  0  0  0  0  0  0  0  0  0  0  0
    6.1180   10.0200    1.2230 H   0  0  0  0  0  0  0  0  0  0  0  0
    8.4730   12.0450    0.2860 C   0  0  0  0  0  0  0  0  0  0  0  0
    7.9180   12.4300   -0.9440 C   0  0  0  0  0  0  0  0  0  0  0  0
    6.7990   12.0580   -1.2500 O   0  0  0  0  0  0  0  0  0  0  0  0
    9.7950   12.6130    0.7180 C   0  0  1  0  0  0  0  0  0  0  0  0
    9.6440   14.0580    1.1210 C   0  0  0  0  0  0  0  0  0  0  0  0
    8.9160   14.6890    2.1030 C   0  0  0  0  0  0  0  0  0  0  0  0
    8.9810   16.0650    2.2370 C   0  0  0  0  0  0  0  0  0  0  0  0
    9.7780   16.8020    1.3800 C   0  0  0  0  0  0  0  0  0  0  0  0
   10.5090   16.1730    0.3940 C   0  0  0  0  0  0  0  0  0  0  0  0
   10.4500   14.7880    0.2540 C   0  0  0  0  0  0  0  0  0  0  0  0
   11.0860   13.9340   -0.6480 N   0  0  0  0  0  0  0  0  0  0  0  0
   11.7020   14.2400   -1.3520 H   0  0  0  0  0  0  0  0  0  0  0  0
   10.7570   12.6450   -0.4470 C   0  0  0  0  0  0  0  0  0  0  0  0
   11.1570   11.6900   -1.0790 O   0  0  0  0  0  0  0  0  0  0  0  0
   12.1100   12.9350    2.7990 O   0  0  0  0  0  0  0  0  0  0  0  0
    8.6240   13.2120   -1.7890 O   0  0  0  0  0  0  0  0  0  0  0  0
    7.9440   14.3330   -2.3570 C   0  0  0  0  0  0  0  0  0  0  0  0
   12.6260   11.0030    1.8270 O   0  0  0  0  0  0  0  0  0  0  0  0
   13.8490   10.9470    2.5640 C   0  0  0  0  0  0  0  0  0  0  0  0
   13.6300   10.1570    3.8560 C   0  0  0  0  0  0  0  0  0  0  0  0
   14.7920   12.0190    4.8190 C   0  0  0  0  0  0  0  0  0  0  0  0
   14.5460   10.6120    4.8540 O   0  0  0  0  0  0  0  0  0  0  0  0
   10.2310   10.1540    3.6530 C   0  0  0  0  0  0  0  0  0  0  0  0
    9.8020   10.6820    4.9100 O   0  0  0  0  0  0  0  0  0  0  0  0
    9.3410   12.0340    4.8460 C   0  0  0  0  0  0  0  0  0  0  0  0
  1 23  2  0  0  0  0
  2  1  1  0  0  0  0
  2  3  2  0  0  0  0
  3 31  1  0  0  0  0
  4  3  1  0  0  0  0
  5  4  1  0  0  0  0
  6  5  1  0  0  0  0
  6  8  1  0  0  0  0
  7  6  1  0  0  0  0
  9 12  1  0  0  0  0
  9  5  2  0  0  0  0
 10  9  1  0  0  0  0
 11 10  2  0  0  0  0
 12 21  1  6  0  0  0
 12 13  1  0  0  0  0
 12  2  1  0  0  0  0
 13 14  2  0  0  0  0
 14 15  1  0  0  0  0
 16 15  2  0  0  0  0
 17 16  1  0  0  0  0
 18 17  2  0  0  0  0
 18 13  1  0  0  0  0
 19 21  1  0  0  0  0
 19 18  1  0  0  0  0
 20 19  1  0  0  0  0
 22 21  2  0  0  0  0
 24 10  1  0  0  0  0
 25 24  1  0  0  0  0
 26  1  1  0  0  0  0
 26 27  1  0  0  0  0
 27 28  1  0  0  0  0
 28 30  1  0  0  0  0
 29 30  1  0  0  0  0
 31 32  1  0  0  0  0
 33 32  1  0  0  0  0
M  END
>  <MODEL>
1

>  <REMARK>
 VINA RESULT:      -5.6      0.000      0.000
  Name = ZINC04474059
                            x       y       z     vdW  Elec       q    Type
                         _______ _______ _______ _____ _____    ______ ____

>  <TORSDO>
F 7

>  <vina_score>
-5.6

$$$$
ZINC16697325
 OpenBabel01091701343D

 22 22  0  0  1  0  0  0  0  0999 V2000
   11.1370   12.0940    1.1130 C   0  0  0  0  0  0  0  0  0  0  0  0
    9.8580   12.3610    0.7820 N   0  0  0  0  0  0  0  0  0  0  0  0
    8.7640   11.5150    1.2750 C   0  0  0  0  0  0  0  0  0  0  0  0
    7.9290   11.0400    0.0810 C   0  0  0  0  0  0  0  0  0  0  0  0
    7.4690   12.2540   -0.7280 C   0  0  0  0  0  0  0  0  0  0  0  0
    8.6890   13.0080   -1.2610 C   0  0  2  0  0  0  0  0  0  0  0  0
    9.5320   13.5050   -0.0820 C   0  0  0  0  0  0  0  0  0  0  0  0
   12.0330   12.8020    0.6980 O   0  0  0  0  0  0  0  0  0  0  0  0
   11.4210   11.0420    1.9050 O   0  0  0  0  0  0  0  0  0  0  0  0
   13.1890   11.0900    3.5790 C   0  0  0  0  0  0  0  0  0  0  0  0
   11.7030   11.3250    3.3000 C   0  0  0  0  0  0  0  0  0  0  0  0
   10.8640   10.4030    4.1870 C   0  0  0  0  0  0  0  0  0  0  0  0
   11.3520   12.7830    3.6060 C   0  0  0  0  0  0  0  0  0  0  0  0
    8.2270   14.2020   -2.0980 C   0  0  0  0  0  0  0  0  0  0  0  0
    9.2420   14.4680   -3.2130 C   0  0  1  0  0  0  0  0  0  0  0  0
   10.3100   15.3370   -2.6900 N   0  0  0  0  0  0  0  0  0  0  0  0
    9.8940   16.1230   -2.1910 H   0  0  0  0  0  0  0  0  0  0  0  0
   10.9020   14.8040   -2.0530 H   0  0  0  0  0  0  0  0  0  0  0  0
   10.8740   15.6870   -3.4650 H   0  0  0  0  0  0  0  0  0  0  0  0
    9.8140   13.1590   -3.6910 C   0  0  0  0  0  0  0  0  0  0  0  0
    9.0960   12.3700   -4.5070 O   0  0  0  0  0  0  0  0  0  0  0  0
   10.9200   12.8200   -3.3420 O   0  0  0  0  0  0  0  0  0  0  0  0
  1  9  1  0  0  0  0
  2  1  1  0  0  0  0
  2  3  1  0  0  0  0
  4  3  1  0  0  0  0
  5  4  1  0  0  0  0
  6 14  1  1  0  0  0
  6  5  1  0  0  0  0
  6  7  1  0  0  0  0
  7  2  1  0  0  0  0
  8  1  2  0  0  0  0
  9 11  1  0  0  0  0
 11 10  1  0  0  0  0
 11 13  1  0  0  0  0
 11 12  1  0  0  0  0
 15 20  1  1  0  0  0
 15 16  1  0  0  0  0
 15 14  1  0  0  0  0
 16 17  1  0  0  0  0
 16 18  1  0  0  0  0
 19 16  1  0  0  0  0
 20 22  1  0  0  0  0
 21 20  2  0  0  0  0
M  END
>  <MODEL>
1

>  <REMARK>
 VINA RESULT:      -5.6      0.000      0.000
  Name = ZINC16697325
                            x       y       z     vdW  Elec       q    Type
                         _______ _______ _______ _____ _____    ______ ____

>  <TORSDO>
F 6

>  <vina_score>
-5.6

$$$$
ZINC05396591
 OpenBabel01091701343D

 21 21  0  0  0  0  0  0  0  0999 V2000
   10.2630   13.4150    1.2710 N   0  0  0  0  0  0  0  0  0  0  0  0
   10.2000   13.8730    2.1400 H   0  0  0  0  0  0  0  0  0  0  0  0
   11.1600   12.4250    1.0930 C   0  0  0  0  0  0  0  0  0  0  0  0
   11.2370   11.8600    0.0190 O   0  0  0  0  0  0  0  0  0  0  0  0
   12.0460   12.0280    2.1990 C   0  0  0  0  0  0  0  0  0  0  0  0
   12.9530   12.8340    2.8660 C   0  0  0  0  0  0  0  0  0  0  0  0
   13.5480   12.0090    3.8230 C   0  0  0  0  0  0  0  0  0  0  0  0
   13.0160   10.8170    3.7110 N   0  0  0  0  0  0  0  0  0  0  0  0
   12.1330   10.7950    2.7790 N   0  0  0  0  0  0  0  0  0  0  0  0
   11.6000   10.0080    2.5210 H   0  0  0  0  0  0  0  0  0  0  0  0
   14.5910   12.4100    4.7920 N   0  0  0  0  0  0  0  0  0  0  0  0
   15.0410   11.5920    5.5760 O   0  0  0  0  0  0  0  0  0  0  0  0
   15.0000   13.5570    4.8080 O   0  0  0  0  0  0  0  0  0  0  0  0
    9.3800   13.8100    0.1700 C   0  0  0  0  0  0  0  0  0  0  0  0
    9.8690   15.1310   -0.4290 C   0  0  0  0  0  0  0  0  0  0  0  0
    9.9770   14.9780   -1.8950 N   0  0  0  0  0  0  0  0  0  0  0  0
    9.8120   15.8820   -2.3350 H   0  0  0  0  0  0  0  0  0  0  0  0
   12.3720   15.0800   -1.2900 C   0  0  0  0  0  0  0  0  0  0  0  0
   11.3310   14.5080   -2.2550 C   0  0  0  0  0  0  0  0  0  0  0  0
    8.9640   14.0170   -2.3770 C   0  0  0  0  0  0  0  0  0  0  0  0
    9.5890   13.1520   -3.4730 C   0  0  0  0  0  0  0  0  0  0  0  0
  1  2  1  0  0  0  0
  3  1  1  0  0  0  0
  3  5  1  0  0  0  0
  4  3  2  0  0  0  0
  5  9  1  0  0  0  0
  5  6  2  0  0  0  0
  6  7  1  0  0  0  0
  7 11  1  0  0  0  0
  8  7  2  0  0  0  0
  9  8  1  0  0  0  0
 10  9  1  0  0  0  0
 11 13  2  0  0  0  0
 11 12  2  0  0  0  0
 14  1  1  0  0  0  0
 15 14  1  0  0  0  0
 16 15  1  0  0  0  0
 17 16  1  0  0  0  0
 19 16  1  0  0  0  0
 19 18  1  0  0  0  0
 20 16  1  0  0  0  0
 21 20  1  0  0  0  0
M  END
>  <MODEL>
1

>  <REMARK>
 VINA RESULT:      -5.6      0.000      0.000
  Name = ZINC05396591
                            x       y       z     vdW  Elec       q    Type
                         _______ _______ _______ _____ _____    ______ ____

>  <TORSDO>
F 7

>  <vina_score>
-5.6

$$$$
ZINC01846065
 OpenBabel01091701383D

 28 29  0  0  1  0  0  0  0  0999 V2000
    9.7780   13.1390   -1.1320 C   0  0  0  0  0  0  0  0  0  0  0  0
   10.6560   12.5500   -0.2490 C   0  0  0  0  0  0  0  0  0  0  0  0
   10.1990   11.5840    0.6520 C   0  0  0  0  0  0  0  0  0  0  0  0
    8.8490   11.2120    0.6430 C   0  0  0  0  0  0  0  0  0  0  0  0
    7.9750   11.8130   -0.2580 C   0  0  0  0  0  0  0  0  0  0  0  0
    8.4420   12.7720   -1.1400 C   0  0  0  0  0  0  0  0  0  0  0  0
   11.1350   10.9540    1.6030 C   0  0  0  0  0  0  0  0  0  0  0  0
   11.0750   11.2640    2.9120 N   0  0  0  0  0  0  0  0  0  0  0  0
   10.4080   11.9120    3.2350 H   0  0  0  0  0  0  0  0  0  0  0  0
   11.9590   10.1530    1.2050 O   0  0  0  0  0  0  0  0  0  0  0  0
   12.0040   10.6390    3.8570 C   0  0  0  0  0  0  0  0  0  0  0  0
   13.4270   11.1270    3.5730 C   0  0  1  0  0  0  0  0  0  0  0  0
   13.5350   12.5750    3.8120 N   0  0  0  0  0  0  0  0  0  0  0  0
   13.8550   13.0410    2.9630 H   0  0  0  0  0  0  0  0  0  0  0  0
   12.2070   13.1340    4.1800 C   0  0  0  0  0  0  0  0  0  0  0  0
   14.5030   12.8050    4.9030 C   0  0  0  0  0  0  0  0  0  0  0  0
   15.4280   11.5630    4.8660 C   0  0  0  0  0  0  0  0  0  0  0  0
   14.4200   10.4320    4.5280 C   0  0  0  0  0  0  0  0  0  0  0  0
   10.3590   14.3610   -2.2610 S   0  0  0  0  0  0  0  0  0  0  0  0
   11.6260   13.9160   -2.7240 O   0  0  0  0  0  0  0  0  0  0  0  0
    9.2810   14.6430   -3.1430 O   0  0  0  0  0  0  0  0  0  0  0  0
    9.9960   15.9180   -0.0800 C   0  0  0  0  0  0  0  0  0  0  0  0
   10.6310   15.7420   -1.3890 N   0  0  0  0  0  0  0  0  0  0  0  0
   11.6370   15.8020   -1.2380 H   0  0  0  0  0  0  0  0  0  0  0  0
    8.3940   10.2710    1.5100 O   0  0  0  0  0  0  0  0  0  0  0  0
    7.8010   10.7400    2.7230 C   0  0  0  0  0  0  0  0  0  0  0  0
    6.6620   11.4580   -0.2730 O   0  0  0  0  0  0  0  0  0  0  0  0
    6.3320   10.2210   -0.9070 C   0  0  0  0  0  0  0  0  0  0  0  0
  1  2  1  0  0  0  0
  2  3  2  0  0  0  0
  3  7  1  0  0  0  0
  4  3  1  0  0  0  0
  4 25  1  0  0  0  0
  5  4  2  0  0  0  0
  6  1  2  0  0  0  0
  6  5  1  0  0  0  0
  7  8  1  0  0  0  0
  8  9  1  0  0  0  0
  8 11  1  0  0  0  0
 10  7  2  0  0  0  0
 12 13  1  0  0  0  0
 12 11  1  1  0  0  0
 12 18  1  0  0  0  0
 13 15  1  0  0  0  0
 13 16  1  0  0  0  0
 14 13  1  0  0  0  0
 17 16  1  0  0  0  0
 18 17  1  0  0  0  0
 19 23  1  0  0  0  0
 19  1  1  0  0  0  0
 20 19  2  0  0  0  0
 21 19  2  0  0  0  0
 23 24  1  0  0  0  0
 23 22  1  0  0  0  0
 25 26  1  0  0  0  0
 27  5  1  0  0  0  0
 28 27  1  0  0  0  0
M  END
>  <MODEL>
1

>  <REMARK>
 VINA RESULT:      -5.6      0.000      0.000
  Name = ZINC01846065
                            x       y       z     vdW  Elec       q    Type
                         _______ _______ _______ _____ _____    ______ ____

>  <TORSDO>
F 7

>  <vina_score>
-5.6

$$$$
ZINC20313019
 OpenBabel01091701433D

 19 19  0  0  0  0  0  0  0  0999 V2000
   10.6890   13.8700   -0.0420 C   0  0  0  0  0  0  0  0  0  0  0  0
   10.0340   12.9010   -0.7120 N   0  0  0  0  0  0  0  0  0  0  0  0
    9.8220   12.0510   -0.2650 H   0  0  0  0  0  0  0  0  0  0  0  0
   10.8690   14.9550   -0.5620 O   0  0  0  0  0  0  0  0  0  0  0  0
    9.2280   14.5440    2.5940 C   0  0  0  0  0  0  0  0  0  0  0  0
   10.5450   13.9120    2.4910 N   0  0  0  0  0  0  0  0  0  0  0  0
   11.1860   13.6160    1.3200 C   0  0  0  0  0  0  0  0  0  0  0  0
   12.3810   13.0380    1.6590 C   0  0  0  0  0  0  0  0  0  0  0  0
   12.4010   13.0150    3.0690 C   0  0  0  0  0  0  0  0  0  0  0  0
   11.2690   13.5480    3.4890 N   0  0  0  0  0  0  0  0  0  0  0  0
   13.4850   12.4840    3.9190 C   0  0  0  0  0  0  0  0  0  0  0  0
   14.2910   13.3300    4.5880 O   0  0  0  0  0  0  0  0  0  0  0  0
   13.6510   11.2840    4.0140 O   0  0  0  0  0  0  0  0  0  0  0  0
    9.6380   13.1140   -2.1060 C   0  0  0  0  0  0  0  0  0  0  0  0
    8.1460   13.4500   -2.1670 C   0  0  0  0  0  0  0  0  0  0  0  0
    7.9630   14.8970   -2.0080 N   0  0  0  0  0  0  0  0  0  0  0  0
    6.9650   15.1170   -2.0220 H   0  0  0  0  0  0  0  0  0  0  0  0
    8.3630   15.1950   -1.1190 H   0  0  0  0  0  0  0  0  0  0  0  0
    8.4290   15.3860   -2.7720 H   0  0  0  0  0  0  0  0  0  0  0  0
  1  7  1  0  0  0  0
  2  3  1  0  0  0  0
  2  1  1  0  0  0  0
  4  1  2  0  0  0  0
  6  5  1  0  0  0  0
  6 10  1  0  0  0  0
  7  8  2  0  0  0  0
  7  6  1  0  0  0  0
  8  9  1  0  0  0  0
  9 10  2  0  0  0  0
  9 11  1  0  0  0  0
 11 13  2  0  0  0  0
 11 12  1  0  0  0  0
 14  2  1  0  0  0  0
 15 14  1  0  0  0  0
 15 16  1  0  0  0  0
 16 18  1  0  0  0  0
 17 16  1  0  0  0  0
 19 16  1  0  0  0  0
M  END
>  <MODEL>
1

>  <REMARK>
 VINA RESULT:      -5.6      0.000      0.000
  Name = ZINC20313019
                            x       y       z     vdW  Elec       q    Type
                         _______ _______ _______ _____ _____    ______ ____

>  <TORSDO>
F 5

>  <vina_score>
-5.6

$$$$
ZINC27270879
 OpenBabel01091701473D

 28 29  0  0  1  0  0  0  0  0999 V2000
   11.3900   12.7840    1.6530 N   0  0  0  0  0  0  0  0  0  0  0  0
   11.5180   12.8010    2.9940 C   0  0  0  0  0  0  0  0  0  0  0  0
   11.9010   11.3880    3.3880 C   0  0  1  0  0  0  0  0  0  0  0  0
   11.9480   10.6720    2.1020 N   0  0  0  0  0  0  0  0  0  0  0  0
   11.3600   13.7510    3.7330 O   0  0  0  0  0  0  0  0  0  0  0  0
   11.6300   11.5670    1.1500 C   0  0  0  0  0  0  0  0  0  0  0  0
   11.5720   11.3020   -0.0340 O   0  0  0  0  0  0  0  0  0  0  0  0
   13.2530   11.3720    4.0540 C   0  0  0  0  0  0  0  0  0  0  0  0
   13.8810   10.1680    4.3140 C   0  0  0  0  0  0  0  0  0  0  0  0
   15.1220   10.1530    4.9210 C   0  0  0  0  0  0  0  0  0  0  0  0
   15.7330   11.3420    5.2760 C   0  0  0  0  0  0  0  0  0  0  0  0
   15.1040   12.5450    5.0190 C   0  0  0  0  0  0  0  0  0  0  0  0
   13.8630   12.5610    4.4090 C   0  0  0  0  0  0  0  0  0  0  0  0
    9.7440   14.1800    0.6480 C   0  0  0  0  0  0  0  0  0  0  0  0
   11.0410   13.9000    0.8800 N   0  0  0  0  0  0  0  0  0  0  0  0
   11.7450   14.4780    0.5070 H   0  0  0  0  0  0  0  0  0  0  0  0
    8.8770   13.4660    1.1090 O   0  0  0  0  0  0  0  0  0  0  0  0
    9.3690   15.3800   -0.1840 C   0  0  0  0  0  0  0  0  0  0  0  0
    9.4680   15.0380   -1.6080 N   0  0  0  0  0  0  0  0  0  0  0  0
    9.7400   15.8800   -2.1150 H   0  0  0  0  0  0  0  0  0  0  0  0
    8.1690   14.5950   -2.1350 C   0  0  0  0  0  0  0  0  0  0  0  0
    7.2000   12.3560   -1.5950 C   0  0  0  0  0  0  0  0  0  0  0  0
    8.2300   13.0990   -2.4480 C   0  0  0  0  0  0  0  0  0  0  0  0
   10.5020   14.0200   -1.8350 C   0  0  0  0  0  0  0  0  0  0  0  0
   11.7170   14.6670   -2.5020 C   0  0  0  0  0  0  0  0  0  0  0  0
   12.2670   15.7730   -1.5970 C   0  0  0  0  0  0  0  0  0  0  0  0
   10.8410   10.7810    4.3090 C   0  0  0  0  0  0  0  0  0  0  0  0
    9.6230   10.3660    3.4810 C   0  0  0  0  0  0  0  0  0  0  0  0
  1  2  1  0  0  0  0
  2  3  1  0  0  0  0
  2  5  2  0  0  0  0
  3  8  1  1  0  0  0
  3 27  1  0  0  0  0
  4  3  1  0  0  0  0
  6  1  1  0  0  0  0
  6  4  1  0  0  0  0
  7  6  2  0  0  0  0
  8  9  2  0  0  0  0
  8 13  1  0  0  0  0
  9 10  1  0  0  0  0
 10 11  2  0  0  0  0
 12 11  1  0  0  0  0
 13 12  2  0  0  0  0
 14 15  1  0  0  0  0
 14 17  2  0  0  0  0
 15  1  1  0  0  0  0
 16 15  1  0  0  0  0
 18 14  1  0  0  0  0
 19 18  1  0  0  0  0
 20 19  1  0  0  0  0
 21 19  1  0  0  0  0
 23 21  1  0  0  0  0
 23 22  1  0  0  0  0
 24 19  1  0  0  0  0
 25 24  1  0  0  0  0
 25 26  1  0  0  0  0
 28 27  1  0  0  0  0
M  END
>  <MODEL>
1

>  <REMARK>
 VINA RESULT:      -5.6      0.000      0.000
  Name = ZINC27270879
                            x       y       z     vdW  Elec       q    Type
                         _______ _______ _______ _____ _____    ______ ____

>  <TORSDO>
F 9

>  <vina_score>
-5.6

$$$$
ZINC23369516
 OpenBabel01091701473D

 25 26  0  0  1  0  0  0  0  0999 V2000
    9.4930   14.2910   -1.1730 C   0  0  0  0  0  0  0  0  0  0  0  0
   10.5260   13.4690   -0.8770 C   0  0  0  0  0  0  0  0  0  0  0  0
   11.2260   14.0830    0.1060 N   0  0  0  0  0  0  0  0  0  0  0  0
   10.6500   15.2030    0.3720 N   0  0  0  0  0  0  0  0  0  0  0  0
    9.6140   15.3560   -0.3740 N   0  0  0  0  0  0  0  0  0  0  0  0
    8.4200   14.0530   -2.2050 C   0  0  0  0  0  0  0  0  0  0  0  0
    7.3110   14.9890   -1.9820 N   0  0  0  0  0  0  0  0  0  0  0  0
    7.0380   14.9650   -1.0000 H   0  0  0  0  0  0  0  0  0  0  0  0
    7.6060   15.9320   -2.2310 H   0  0  0  0  0  0  0  0  0  0  0  0
    6.5160   14.7180   -2.5610 H   0  0  0  0  0  0  0  0  0  0  0  0
    9.3920   12.9260   -4.2120 C   0  0  0  0  0  0  0  0  0  0  0  0
    9.0010   14.2740   -3.6030 C   0  0  0  0  0  0  0  0  0  0  0  0
    7.9090   12.6160   -2.0860 C   0  0  0  0  0  0  0  0  0  0  0  0
    7.7250   12.2620   -0.6080 C   0  0  0  0  0  0  0  0  0  0  0  0
   12.4360   13.5650    0.7500 C   0  0  0  0  0  0  0  0  0  0  0  0
   12.0570   12.8620    2.0560 C   0  0  2  0  0  0  0  0  0  0  0  0
   13.2490   12.0450    2.5600 C   0  0  0  0  0  0  0  0  0  0  0  0
   12.8820   11.3680    3.8830 C   0  0  0  0  0  0  0  0  0  0  0  0
   11.7030   10.4150    3.6550 C   0  0  0  0  0  0  0  0  0  0  0  0
   10.6030   11.1650    3.0350 N   0  0  0  0  0  0  0  0  0  0  0  0
   10.8700   11.9270    1.8070 C   0  0  0  0  0  0  0  0  0  0  0  0
    9.0890   11.1520    3.7060 S   0  0  0  0  0  0  0  0  0  0  0  0
    8.0850   10.1540    2.5720 C   0  0  0  0  0  0  0  0  0  0  0  0
    8.6650   12.5080    3.6720 O   0  0  0  0  0  0  0  0  0  0  0  0
    9.2480   10.4740    4.9450 O   0  0  0  0  0  0  0  0  0  0  0  0
  1  2  2  0  0  0  0
  1  5  1  0  0  0  0
  2  3  1  0  0  0  0
  3  4  1  0  0  0  0
  3 15  1  0  0  0  0
  5  4  2  0  0  0  0
  6 13  1  0  0  0  0
  6  7  1  0  0  0  0
  6  1  1  0  0  0  0
  7  8  1  0  0  0  0
  9  7  1  0  0  0  0
 10  7  1  0  0  0  0
 11 12  1  0  0  0  0
 12  6  1  0  0  0  0
 13 14  1  0  0  0  0
 16 15  1  6  0  0  0
 16 17  1  0  0  0  0
 17 18  1  0  0  0  0
 19 18  1  0  0  0  0
 20 19  1  0  0  0  0
 20 22  1  0  0  0  0
 21 16  1  0  0  0  0
 21 20  1  0  0  0  0
 22 25  2  0  0  0  0
 23 22  1  0  0  0  0
 24 22  2  0  0  0  0
M  END
>  <MODEL>
1

>  <REMARK>
 VINA RESULT:      -5.6      0.000      0.000
  Name = ZINC23369516
                            x       y       z     vdW  Elec       q    Type
                         _______ _______ _______ _____ _____    ______ ____

>  <TORSDO>
F 7

>  <vina_score>
-5.6

$$$$
ZINC04802570
 OpenBabel01091701493D

 23 24  0  0  1  0  0  0  0  0999 V2000
    7.3030   13.4980   -1.9830 C   0  0  0  0  0  0  0  0  0  0  0  0
    8.7750   13.8590   -2.1920 C   0  0  0  0  0  0  0  0  0  0  0  0
    9.0000   14.3030   -3.6390 C   0  0  0  0  0  0  0  0  0  0  0  0
    9.6160   12.7020   -1.8910 O   0  0  0  0  0  0  0  0  0  0  0  0
    9.9400   12.9240   -0.5430 C   0  0  1  0  0  0  0  0  0  0  0  0
   11.1560   12.4290    0.1900 C   0  0  1  0  0  0  0  0  0  0  0  0
   11.5480   13.5160    1.0710 O   0  0  0  0  0  0  0  0  0  0  0  0
   10.7200   14.6820    0.7860 C   0  0  1  0  0  0  0  0  0  0  0  0
   10.3090   14.4590   -0.6500 C   0  0  2  0  0  0  0  0  0  0  0  0
    9.1540   14.9320   -1.2810 O   0  0  0  0  0  0  0  0  0  0  0  0
    9.5760   14.7130    1.6410 O   0  0  0  0  0  0  0  0  0  0  0  0
    9.4160   15.9400    2.3550 C   0  0  0  0  0  0  0  0  0  0  0  0
   10.8090   11.1830    1.0080 C   0  0  0  0  0  0  0  0  0  0  0  0
    9.8390   11.5630    2.0590 N   0  0  0  0  0  0  0  0  0  0  0  0
    9.5730   12.5380    1.9260 H   0  0  0  0  0  0  0  0  0  0  0  0
   10.4560   11.4100    3.3930 C   0  0  0  0  0  0  0  0  0  0  0  0
   10.1810   12.6780    4.2070 C   0  0  0  0  0  0  0  0  0  0  0  0
   11.2640   13.5950    4.0390 O   0  0  0  0  0  0  0  0  0  0  0  0
   11.2090   14.2860    4.7170 H   0  0  0  0  0  0  0  0  0  0  0  0
    8.6310   10.7170    1.9610 C   0  0  0  0  0  0  0  0  0  0  0  0
    7.5130   11.5310    1.3090 C   0  0  0  0  0  0  0  0  0  0  0  0
    7.5450   12.8700    1.8080 O   0  0  0  0  0  0  0  0  0  0  0  0
    6.6520   13.1360    2.0780 H   0  0  0  0  0  0  0  0  0  0  0  0
  2  1  1  0  0  0  0
  2  4  1  0  0  0  0
  2 10  1  0  0  0  0
  3  2  1  0  0  0  0
  5  4  1  6  0  0  0
  5  6  1  0  0  0  0
  6 13  1  1  0  0  0
  6  7  1  0  0  0  0
  8  7  1  0  0  0  0
  8 11  1  1  0  0  0
  9 10  1  1  0  0  0
  9  5  1  0  0  0  0
  9  8  1  0  0  0  0
 11 12  1  0  0  0  0
 13 14  1  0  0  0  0
 14 16  1  0  0  0  0
 15 14  1  0  0  0  0
 16 17  1  0  0  0  0
 18 17  1  0  0  0  0
 18 19  1  0  0  0  0
 20 14  1  0  0  0  0
 21 22  1  0  0  0  0
 21 20  1  0  0  0  0
 22 23  1  0  0  0  0
M  END
>  <MODEL>
1

>  <REMARK>
 VINA RESULT:      -5.6      0.000      0.000
  Name = ZINC04802570
                            x       y       z     vdW  Elec       q    Type
                         _______ _______ _______ _____ _____    ______ ____

>  <TORSDO>
F 9

>  <vina_score>
-5.6

$$$$
ZINC01771393
 OpenBabel01091701493D

 19 19  0  0  1  0  0  0  0  0999 V2000
    8.1190   13.4600   -0.1060 N   0  0  0  0  0  0  0  0  0  0  0  0
    7.2210   13.2560   -0.5420 H   0  0  0  0  0  0  0  0  0  0  0  0
    7.9930   14.1250    0.6580 H   0  0  0  0  0  0  0  0  0  0  0  0
    9.0220   14.0450   -1.1140 C   0  0  1  0  0  0  0  0  0  0  0  0
   10.1270   14.8370   -0.3880 C   0  0  0  0  0  0  0  0  0  0  0  0
   11.6790   14.1060   -1.0590 S   0  0  0  0  0  0  0  0  0  0  0  0
   10.9620   13.2880   -2.5520 C   0  0  0  0  0  0  0  0  0  0  0  0
   12.1530   13.1120   -0.1620 O   0  0  0  0  0  0  0  0  0  0  0  0
   12.5470   15.1530   -1.4730 O   0  0  0  0  0  0  0  0  0  0  0  0
    9.5600   12.9160   -1.9930 C   0  0  2  0  0  0  0  0  0  0  0  0
    8.6600   12.6970   -3.0830 O   0  0  0  0  0  0  0  0  0  0  0  0
    8.0620   11.9650   -2.8650 H   0  0  0  0  0  0  0  0  0  0  0  0
    8.6890   12.2080    0.4270 C   0  0  0  0  0  0  0  0  0  0  0  0
    8.3520   12.0980    1.9150 C   0  0  0  0  0  0  0  0  0  0  0  0
    8.4650   13.4770    2.5670 C   0  0  0  0  0  0  0  0  0  0  0  0
    9.3020   12.1270    4.3950 C   0  0  0  0  0  0  0  0  0  0  0  0
    9.4510   13.4050    3.6670 N   0  0  0  0  0  0  0  0  0  0  0  0
    9.2830   14.1760    4.3130 H   0  0  0  0  0  0  0  0  0  0  0  0
   10.8210   13.5230    3.1260 C   0  0  0  0  0  0  0  0  0  0  0  0
  1 13  1  0  0  0  0
  1  3  1  0  0  0  0
  2  1  1  0  0  0  0
  4  5  1  0  0  0  0
  4  1  1  1  0  0  0
  6  5  1  0  0  0  0
  6  8  2  0  0  0  0
  7 10  1  0  0  0  0
  7  6  1  0  0  0  0
  9  6  2  0  0  0  0
 10 11  1  6  0  0  0
 10  4  1  0  0  0  0
 11 12  1  0  0  0  0
 13 14  1  0  0  0  0
 14 15  1  0  0  0  0
 15 17  1  0  0  0  0
 17 18  1  0  0  0  0
 17 16  1  0  0  0  0
 19 17  1  0  0  0  0
M  END
>  <MODEL>
1

>  <REMARK>
 VINA RESULT:      -5.6      0.000      0.000
  Name = ZINC01771393
                            x       y       z     vdW  Elec       q    Type
                         _______ _______ _______ _____ _____    ______ ____

>  <TORSDO>
F 6

>  <vina_score>
-5.6

$$$$
ZINC05382434
 OpenBabel01091701263D

 23 23  0  0  1  0  0  0  0  0999 V2000
    8.8820   12.1890    1.3140 C   0  0  1  0  0  0  0  0  0  0  0  0
    8.6560   13.6460    1.3480 N   0  0  0  0  0  0  0  0  0  0  0  0
    7.8910   13.8480    1.9920 H   0  0  0  0  0  0  0  0  0  0  0  0
    8.4200   13.9720    0.4110 H   0  0  0  0  0  0  0  0  0  0  0  0
    9.8700   14.3420    1.8140 C   0  0  0  0  0  0  0  0  0  0  0  0
   11.3960   15.7520   -1.3350 C   0  0  0  0  0  0  0  0  0  0  0  0
   10.4280   15.5470   -0.1790 C   0  0  0  0  0  0  0  0  0  0  0  0
   10.7570   14.5910    0.6730 N   0  0  0  0  0  0  0  0  0  0  0  0
   11.8600   13.8320    0.5430 C   0  0  0  0  0  0  0  0  0  0  0  0
   12.3960   12.5660    1.5630 S   0  0  0  0  0  0  0  0  0  0  0  0
    9.4250   16.2180   -0.0470 O   0  0  0  0  0  0  0  0  0  0  0  0
   12.6350   14.4530   -0.9420 S   0  0  0  0  0  0  0  0  0  0  0  0
    7.8290   11.4980    2.1410 C   0  0  0  0  0  0  0  0  0  0  0  0
    6.5780   11.3760    1.6700 O   0  0  0  0  0  0  0  0  0  0  0  0
    8.1110   11.0530    3.2290 O   0  0  0  0  0  0  0  0  0  0  0  0
    8.7940   11.7010   -0.1330 C   0  0  0  0  0  0  0  0  0  0  0  0
    8.1430   12.7830   -0.9980 C   0  0  0  0  0  0  0  0  0  0  0  0
    8.9490   12.9580   -2.2880 C   0  0  0  0  0  0  0  0  0  0  0  0
    8.5370   14.2620   -2.9730 C   0  0  0  0  0  0  0  0  0  0  0  0
    7.5450   14.9540   -2.1320 N   0  0  0  0  0  0  0  0  0  0  0  0
    7.8310   14.9020   -1.1540 H   0  0  0  0  0  0  0  0  0  0  0  0
    7.4800   15.9310   -2.4160 H   0  0  0  0  0  0  0  0  0  0  0  0
    6.6340   14.5070   -2.2430 H   0  0  0  0  0  0  0  0  0  0  0  0
  1 16  1  6  0  0  0
  1  2  1  0  0  0  0
  1 13  1  0  0  0  0
  2  5  1  0  0  0  0
  2  3  1  0  0  0  0
  4  2  1  0  0  0  0
  6 12  2  0  0  0  0
  6  7  1  0  0  0  0
  7 11  2  0  0  0  0
  7  8  1  0  0  0  0
  8  5  1  0  0  0  0
  9  8  1  0  0  0  0
  9 10  2  0  0  0  0
 12  9  1  0  0  0  0
 13 15  1  0  0  0  0
 14 13  2  0  0  0  0
 17 16  1  0  0  0  0
 18 17  1  0  0  0  0
 19 18  1  0  0  0  0
 19 20  1  0  0  0  0
 20 21  1  0  0  0  0
 22 20  1  0  0  0  0
 23 20  1  0  0  0  0
M  END
>  <MODEL>
1

>  <REMARK>
 VINA RESULT:      -5.6      0.000      0.000
  Name = ZINC05382434
                            x       y       z     vdW  Elec       q    Type
                         _______ _______ _______ _____ _____    ______ ____

>  <TORSDO>
F 9

>  <vina_score>
-5.6

$$$$
ZINC23697636
 OpenBabel01091701293D

 22 22  0  0  1  0  0  0  0  0999 V2000
    9.2250   13.3160    0.7180 N   0  0  0  0  0  0  0  0  0  0  0  0
    9.2470   14.2640    0.4540 H   0  0  0  0  0  0  0  0  0  0  0  0
    8.5240   12.4280   -0.0170 C   0  0  0  0  0  0  0  0  0  0  0  0
    8.4970   11.2600    0.3070 O   0  0  0  0  0  0  0  0  0  0  0  0
   11.5200   12.0970    3.2830 C   0  0  2  0  0  0  0  0  0  0  0  0
   12.6800   12.9560    3.7900 C   0  0  0  0  0  0  0  0  0  0  0  0
   11.1920   12.4420    1.8430 C   0  0  0  0  0  0  0  0  0  0  0  0
    9.9200   12.8890    1.8560 N   0  0  0  0  0  0  0  0  0  0  0  0
    9.4050   12.8750    3.0910 C   0  0  0  0  0  0  0  0  0  0  0  0
    8.2740   13.2330    3.3550 O   0  0  0  0  0  0  0  0  0  0  0  0
   11.9220   12.3380    0.8810 O   0  0  0  0  0  0  0  0  0  0  0  0
   10.2790   12.4210    4.0070 N   0  0  0  0  0  0  0  0  0  0  0  0
   13.3540   10.4450    3.6650 C   0  0  0  0  0  0  0  0  0  0  0  0
   11.8530   10.6110    3.4210 C   0  0  0  0  0  0  0  0  0  0  0  0
    7.7770   12.8880   -1.2410 C   0  0  0  0  0  0  0  0  0  0  0  0
    8.4240   12.3440   -2.4430 N   0  0  0  0  0  0  0  0  0  0  0  0
    9.0190   11.5650   -2.1670 H   0  0  0  0  0  0  0  0  0  0  0  0
    7.7050   12.0310   -3.0950 H   0  0  0  0  0  0  0  0  0  0  0  0
    9.2570   13.3620   -3.0990 C   0  0  0  0  0  0  0  0  0  0  0  0
    9.3540   13.0560   -4.5940 C   0  0  0  0  0  0  0  0  0  0  0  0
   10.6570   13.3480   -2.4830 C   0  0  0  0  0  0  0  0  0  0  0  0
    8.6260   14.7410   -2.8990 C   0  0  0  0  0  0  0  0  0  0  0  0
  1  8  1  0  0  0  0
  2  1  1  0  0  0  0
  3  4  2  0  0  0  0
  3  1  1  0  0  0  0
  5 14  1  1  0  0  0
  5  6  1  0  0  0  0
  5 12  1  0  0  0  0
  7  8  1  0  0  0  0
  7  5  1  0  0  0  0
  8  9  1  0  0  0  0
  9 10  2  0  0  0  0
  9 12  1  0  0  0  0
 11  7  2  0  0  0  0
 14 13  1  0  0  0  0
 15  3  1  0  0  0  0
 16 17  1  0  0  0  0
 16 15  1  0  0  0  0
 18 16  1  0  0  0  0
 19 22  1  0  0  0  0
 19 21  1  0  0  0  0
 19 16  1  0  0  0  0
 20 19  1  0  0  0  0
M  END
>  <MODEL>
1

>  <REMARK>
 VINA RESULT:      -5.6      0.000      0.000
  Name = ZINC23697636
                            x       y       z     vdW  Elec       q    Type
                         _______ _______ _______ _____ _____    ______ ____

>  <TORSDO>
F 5

>  <vina_score>
-5.6

$$$$
ZINC31540682
 OpenBabel01091701403D

 40 41  0  0  1  0  0  0  0  0999 V2000
    8.6320   10.9500    0.1870 C   0  0  2  0  0  0  0  0  0  0  0  0
    8.5770   11.4630    1.6030 C   0  0  0  0  0  0  0  0  0  0  0  0
    8.9290   10.6320    2.6520 C   0  0  0  0  0  0  0  0  0  0  0  0
    8.8860   11.1010    3.9550 C   0  0  0  0  0  0  0  0  0  0  0  0
    8.4750   12.4050    4.2090 C   0  0  0  0  0  0  0  0  0  0  0  0
    8.1160   13.2350    3.1530 C   0  0  0  0  0  0  0  0  0  0  0  0
    8.1690   12.7600    1.8510 C   0  0  0  0  0  0  0  0  0  0  0  0
    9.2370   10.2860    4.9850 O   0  0  0  0  0  0  0  0  0  0  0  0
    9.7550    9.5220    4.8220 H   0  0  0  0  0  0  0  0  0  0  0  0
    8.4240   12.8670    5.4880 O   0  0  0  0  0  0  0  0  0  0  0  0
    7.7350   13.4450    5.7520 H   0  0  0  0  0  0  0  0  0  0  0  0
    7.7140   14.5110    3.3970 O   0  0  0  0  0  0  0  0  0  0  0  0
    7.9460   15.1970    2.8030 H   0  0  0  0  0  0  0  0  0  0  0  0
    9.9830   11.1400   -0.3490 N   0  0  0  0  0  0  0  0  0  0  0  0
   10.1580   10.9920   -1.3060 H   0  0  0  0  0  0  0  0  0  0  0  0
   13.0810   12.3000    2.1790 C   0  0  0  0  0  0  0  0  0  0  0  0
   12.5750   11.0160    2.2530 C   0  0  0  0  0  0  0  0  0  0  0  0
   11.5470   10.6280    1.4170 C   0  0  0  0  0  0  0  0  0  0  0  0
   11.0220   11.5300    0.4990 C   0  0  0  0  0  0  0  0  0  0  0  0
   11.5330   12.8180    0.4270 C   0  0  0  0  0  0  0  0  0  0  0  0
   12.5650   13.1980    1.2640 C   0  0  0  0  0  0  0  0  0  0  0  0
   10.9670   13.8000   -0.5670 C   0  0  0  0  0  0  0  0  0  0  0  0
   11.2810   15.2260   -0.1110 C   0  0  0  0  0  0  0  0  0  0  0  0
   10.0330   15.8630    0.4450 C   0  0  0  0  0  0  0  0  0  0  0  0
    9.1250   16.2890   -0.3500 N   0  0  0  0  0  0  0  0  0  0  0  0
    9.2410   16.2020   -1.3230 H   0  0  0  0  0  0  0  0  0  0  0  0
    9.8580   15.9930    1.9110 C   0  0  0  0  0  0  0  0  0  0  0  0
   10.4360   15.1040    2.7400 O   0  0  0  0  0  0  0  0  0  0  0  0
    9.1920   16.9020    2.3650 O   0  0  0  0  0  0  0  0  0  0  0  0
    7.6290   11.7210   -0.6730 C   0  0  0  0  0  0  0  0  0  0  0  0
    8.3190   12.3010   -1.8270 N   0  0  0  0  0  0  0  0  0  0  0  0
    8.9990   11.7760   -2.3090 H   0  0  0  0  0  0  0  0  0  0  0  0
    8.0230   13.5530   -2.2310 C   0  0  0  0  0  0  0  0  0  0  0  0
    7.1850   14.1980   -1.6380 O   0  0  0  0  0  0  0  0  0  0  0  0
    8.7330   14.1480   -3.4190 C   0  0  0  0  0  0  0  0  0  0  0  0
    9.4500   13.0400   -4.1920 C   0  0  0  0  0  0  0  0  0  0  0  0
   10.9010   13.1730   -4.0070 N   0  0  0  0  0  0  0  0  0  0  0  0
   11.2080   12.5390   -3.2680 H   0  0  0  0  0  0  0  0  0  0  0  0
   11.3780   12.9370   -4.8770 H   0  0  0  0  0  0  0  0  0  0  0  0
   11.1250   14.1320   -3.7440 H   0  0  0  0  0  0  0  0  0  0  0  0
  1 30  1  6  0  0  0
  1  2  1  0  0  0  0
  2  7  2  0  0  0  0
  2  3  1  0  0  0  0
  3  4  2  0  0  0  0
  4  5  1  0  0  0  0
  4  8  1  0  0  0  0
  5 10  1  0  0  0  0
  6 12  1  0  0  0  0
  6  5  2  0  0  0  0
  7  6  1  0  0  0  0
  9  8  1  0  0  0  0
 10 11  1  0  0  0  0
 13 12  1  0  0  0  0
 14  1  1  0  0  0  0
 14 19  1  0  0  0  0
 15 14  1  0  0  0  0
 16 17  1  0  0  0  0
 18 17  2  0  0  0  0
 19 18  1  0  0  0  0
 20 19  2  0  0  0  0
 20 21  1  0  0  0  0
 21 16  2  0  0  0  0
 22 23  1  0  0  0  0
 22 20  1  0  0  0  0
 23 24  1  0  0  0  0
 24 27  1  0  0  0  0
 25 24  2  0  0  0  0
 26 25  1  0  0  0  0
 27 29  2  0  0  0  0
 27 28  1  0  0  0  0
 31 30  1  0  0  0  0
 32 31  1  0  0  0  0
 33 31  1  0  0  0  0
 33 34  2  0  0  0  0
 35 33  1  0  0  0  0
 36 37  1  0  0  0  0
 36 35  1  0  0  0  0
 37 40  1  0  0  0  0
 37 38  1  0  0  0  0
 39 37  1  0  0  0  0
M  END
>  <MODEL>
1

>  <REMARK>
 VINA RESULT:      -5.5      0.000      0.000
  Name = ZINC31540682
                            x       y       z     vdW  Elec       q    Type
                         _______ _______ _______ _____ _____    ______ ____

>  <TORSDO>
F 15

>  <vina_score>
-5.5

$$$$
ZINC08642818
 OpenBabel01091701413D

 31 33  0  0  1  0  0  0  0  0999 V2000
   11.5750   13.1580   -2.3500 C   0  0  0  0  0  0  0  0  0  0  0  0
   10.3990   12.7060   -1.6020 N   0  0  0  0  0  0  0  0  0  0  0  0
   10.5590   12.0190   -0.4100 C   0  0  0  0  0  0  0  0  0  0  0  0
    9.4250   11.6070    0.2830 C   0  0  0  0  0  0  0  0  0  0  0  0
    9.8800   10.9610    1.4250 N   0  0  0  0  0  0  0  0  0  0  0  0
   11.2370   11.0080    1.3880 C   0  0  0  0  0  0  0  0  0  0  0  0
    8.1550   11.8880   -0.2490 C   0  0  0  0  0  0  0  0  0  0  0  0
    8.0620   12.5620   -1.4150 N   0  0  0  0  0  0  0  0  0  0  0  0
    6.7400   12.8620   -1.9710 C   0  0  0  0  0  0  0  0  0  0  0  0
    7.1490   11.5340    0.3390 O   0  0  0  0  0  0  0  0  0  0  0  0
   11.6240   11.6320    0.2930 N   0  0  0  0  0  0  0  0  0  0  0  0
    9.1640   12.9600   -2.0740 C   0  0  0  0  0  0  0  0  0  0  0  0
    9.0420   13.5640   -3.1230 O   0  0  0  0  0  0  0  0  0  0  0  0
   12.0780   10.4790    2.3400 N   0  0  0  0  0  0  0  0  0  0  0  0
   11.8120    9.6720    2.8380 H   0  0  0  0  0  0  0  0  0  0  0  0
   13.3700   11.1140    2.6120 C   0  0  0  0  0  0  0  0  0  0  0  0
   13.2800   11.9170    3.9110 C   0  0  0  0  0  0  0  0  0  0  0  0
   12.7050   13.1960    3.6420 O   0  0  0  0  0  0  0  0  0  0  0  0
   12.3000   13.1900    2.7610 H   0  0  0  0  0  0  0  0  0  0  0  0
    9.0550   10.3480    2.4680 C   0  0  0  0  0  0  0  0  0  0  0  0
    8.9970   11.2730    3.6860 C   0  0  1  0  0  0  0  0  0  0  0  0
   10.2720   11.2890    4.3320 O   0  0  0  0  0  0  0  0  0  0  0  0
   10.9740   11.2600    3.6630 H   0  0  0  0  0  0  0  0  0  0  0  0
    8.6370   12.6900    3.2340 C   0  0  0  0  0  0  0  0  0  0  0  0
    9.8220   13.4830    3.1640 O   0  0  0  0  0  0  0  0  0  0  0  0
    9.7720   14.5990    2.3890 C   0  0  0  0  0  0  0  0  0  0  0  0
   10.2700   14.5670    1.0930 C   0  0  0  0  0  0  0  0  0  0  0  0
   10.2130   15.7000    0.3050 C   0  0  0  0  0  0  0  0  0  0  0  0
    9.6710   16.8680    0.8090 C   0  0  0  0  0  0  0  0  0  0  0  0
    9.1800   16.9030    2.1010 C   0  0  0  0  0  0  0  0  0  0  0  0
    9.2290   15.7720    2.8910 C   0  0  0  0  0  0  0  0  0  0  0  0
  1  2  1  0  0  0  0
  2  3  1  0  0  0  0
  3  4  2  0  0  0  0
  3 11  1  0  0  0  0
  4  5  1  0  0  0  0
  5 20  1  0  0  0  0
  6  5  1  0  0  0  0
  6 14  1  0  0  0  0
  7  4  1  0  0  0  0
  7 10  2  0  0  0  0
  8  7  1  0  0  0  0
  9  8  1  0  0  0  0
 11  6  2  0  0  0  0
 12  2  1  0  0  0  0
 12  8  1  0  0  0  0
 13 12  2  0  0  0  0
 14 16  1  0  0  0  0
 14 15  1  0  0  0  0
 16 17  1  0  0  0  0
 18 17  1  0  0  0  0
 19 18  1  0  0  0  0
 21 20  1  6  0  0  0
 21 22  1  0  0  0  0
 23 22  1  0  0  0  0
 24 21  1  0  0  0  0
 25 24  1  0  0  0  0
 26 31  1  0  0  0  0
 26 25  1  0  0  0  0
 27 26  2  0  0  0  0
 28 29  2  0  0  0  0
 28 27  1  0  0  0  0
 29 30  1  0  0  0  0
 30 31  2  0  0  0  0
M  END
>  <MODEL>
1

>  <REMARK>
 VINA RESULT:      -5.5      0.000      0.000
  Name = ZINC08642818
                            x       y       z     vdW  Elec       q    Type
                         _______ _______ _______ _____ _____    ______ ____

>  <TORSDO>
F 10

>  <vina_score>
-5.5

$$$$
ZINC17379574
 OpenBabel01091701423D

 31 31  0  0  0  0  0  0  0  0999 V2000
    9.4470   14.2000    0.8710 N   0  0  0  0  0  0  0  0  0  0  0  0
    8.7650   13.3400    0.0550 C   0  0  0  0  0  0  0  0  0  0  0  0
    8.1330   12.2730    0.5890 C   0  0  0  0  0  0  0  0  0  0  0  0
    8.1870   12.0690    1.9880 C   0  0  0  0  0  0  0  0  0  0  0  0
    8.8750   12.9370    2.7580 N   0  0  0  0  0  0  0  0  0  0  0  0
    7.6200   11.1160    2.4920 O   0  0  0  0  0  0  0  0  0  0  0  0
    9.4960   13.9930    2.2000 C   0  0  0  0  0  0  0  0  0  0  0  0
   10.1090   14.7690    2.9060 O   0  0  0  0  0  0  0  0  0  0  0  0
    7.3890   11.3320   -0.2790 N   0  0  0  0  0  0  0  0  0  0  0  0
    7.2570   10.1680    0.0570 O   0  0  0  0  0  0  0  0  0  0  0  0
    6.9130   11.7200   -1.3310 O   0  0  0  0  0  0  0  0  0  0  0  0
   10.1340   15.3590    0.2920 C   0  0  0  0  0  0  0  0  0  0  0  0
   11.9510   14.9810   -1.2560 N   0  0  0  0  0  0  0  0  0  0  0  0
   11.5570   14.9850   -0.0380 C   0  0  0  0  0  0  0  0  0  0  0  0
   11.1020   15.4480   -2.2670 N   0  0  0  0  0  0  0  0  0  0  0  0
   11.0900   16.4050   -2.4980 H   0  0  0  0  0  0  0  0  0  0  0  0
   10.3010   14.5860   -2.9260 C   0  0  0  0  0  0  0  0  0  0  0  0
   10.7900   12.9620   -3.1470 S   0  0  0  0  0  0  0  0  0  0  0  0
    7.8760   14.6660   -2.7090 C   0  0  0  0  0  0  0  0  0  0  0  0
    9.1150   15.0050   -3.4110 N   0  0  0  0  0  0  0  0  0  0  0  0
    9.0830   15.5410   -4.2370 H   0  0  0  0  0  0  0  0  0  0  0  0
    8.9420   12.7330    4.2070 C   0  0  0  0  0  0  0  0  0  0  0  0
    9.8230   11.5480    4.5070 C   0  0  0  0  0  0  0  0  0  0  0  0
   11.0450   11.5450    4.1290 N   0  0  0  0  0  0  0  0  0  0  0  0
   11.8640   10.4440    4.4090 N   0  0  0  0  0  0  0  0  0  0  0  0
   11.5860    9.7830    5.0840 H   0  0  0  0  0  0  0  0  0  0  0  0
   13.0310   10.2880    3.7540 C   0  0  0  0  0  0  0  0  0  0  0  0
   13.0550   10.2600    2.0430 S   0  0  0  0  0  0  0  0  0  0  0  0
   14.1790   10.1530    4.4460 N   0  0  0  0  0  0  0  0  0  0  0  0
   14.5860    9.2640    4.5570 H   0  0  0  0  0  0  0  0  0  0  0  0
   14.8220   11.3300    5.0350 C   0  0  0  0  0  0  0  0  0  0  0  0
  1  7  1  0  0  0  0
  2  3  2  0  0  0  0
  2  1  1  0  0  0  0
  3  4  1  0  0  0  0
  4  6  2  0  0  0  0
  4  5  1  0  0  0  0
  5 22  1  0  0  0  0
  7  5  1  0  0  0  0
  7  8  2  0  0  0  0
  9 10  2  0  0  0  0
  9  3  1  0  0  0  0
 11  9  2  0  0  0  0
 12  1  1  0  0  0  0
 13 14  2  0  0  0  0
 14 12  1  0  0  0  0
 15 13  1  0  0  0  0
 16 15  1  0  0  0  0
 17 15  1  0  0  0  0
 18 17  2  0  0  0  0
 20 17  1  0  0  0  0
 20 19  1  0  0  0  0
 21 20  1  0  0  0  0
 22 23  1  0  0  0  0
 24 25  1  0  0  0  0
 24 23  2  0  0  0  0
 25 26  1  0  0  0  0
 27 25  1  0  0  0  0
 27 29  1  0  0  0  0
 28 27  2  0  0  0  0
 29 30  1  0  0  0  0
 29 31  1  0  0  0  0
M  END
>  <MODEL>
1

>  <REMARK>
 VINA RESULT:      -5.5      0.000      0.000
  Name = ZINC17379574
                            x       y       z     vdW  Elec       q    Type
                         _______ _______ _______ _____ _____    ______ ____

>  <TORSDO>
F 11

>  <vina_score>
-5.5

$$$$
ZINC06495501
 OpenBabel01091701453D

 22 22  0  0  0  0  0  0  0  0999 V2000
    9.7810   13.9790    0.3020 C   0  0  0  0  0  0  0  0  0  0  0  0
    9.0610   13.0200   -0.3130 N   0  0  0  0  0  0  0  0  0  0  0  0
    9.1880   12.0760   -0.0650 H   0  0  0  0  0  0  0  0  0  0  0  0
    9.6250   15.1470   -0.0030 O   0  0  0  0  0  0  0  0  0  0  0  0
   11.9980   13.0570    0.9940 C   0  0  0  0  0  0  0  0  0  0  0  0
   12.8840   12.7360    2.0040 C   0  0  0  0  0  0  0  0  0  0  0  0
   12.5190   12.9660    3.3300 C   0  0  0  0  0  0  0  0  0  0  0  0
   11.3360   13.4970    3.6290 N   0  0  0  0  0  0  0  0  0  0  0  0
   10.4680   13.8210    2.6950 C   0  0  0  0  0  0  0  0  0  0  0  0
   10.7620   13.6140    1.3450 C   0  0  0  0  0  0  0  0  0  0  0  0
   13.4570   12.6210    4.4170 C   0  0  0  0  0  0  0  0  0  0  0  0
   14.5450   13.3030    4.5740 N   0  0  0  0  0  0  0  0  0  0  0  0
   15.4440   12.9720    5.6150 O   0  0  0  0  0  0  0  0  0  0  0  0
    8.0900   13.3830   -1.3470 C   0  0  0  0  0  0  0  0  0  0  0  0
    8.6220   12.9620   -2.7180 C   0  0  0  0  0  0  0  0  0  0  0  0
    9.6110   13.9540   -3.1790 N   0  0  0  0  0  0  0  0  0  0  0  0
    9.3760   14.2400   -4.1300 H   0  0  0  0  0  0  0  0  0  0  0  0
    9.5920   14.7620   -2.5560 H   0  0  0  0  0  0  0  0  0  0  0  0
   10.9640   13.3690   -3.1750 C   0  0  0  0  0  0  0  0  0  0  0  0
   11.9170   14.3120   -2.4380 C   0  0  0  0  0  0  0  0  0  0  0  0
   11.3340   15.6140   -2.3620 O   0  0  0  0  0  0  0  0  0  0  0  0
   10.3830   15.5330   -2.1880 H   0  0  0  0  0  0  0  0  0  0  0  0
  1 10  1  0  0  0  0
  2  3  1  0  0  0  0
  2  1  1  0  0  0  0
  4  1  2  0  0  0  0
  5 10  2  0  0  0  0
  5  6  1  0  0  0  0
  6  7  2  0  0  0  0
  7  8  1  0  0  0  0
  7 11  1  0  0  0  0
  9  8  2  0  0  0  0
 10  9  1  0  0  0  0
 11 12  2  0  0  0  0
 12 13  1  0  0  0  0
 14  2  1  0  0  0  0
 15 14  1  0  0  0  0
 16 19  1  0  0  0  0
 16 15  1  0  0  0  0
 16 18  1  0  0  0  0
 17 16  1  0  0  0  0
 19 20  1  0  0  0  0
 20 21  1  0  0  0  0
 21 22  1  0  0  0  0
M  END
>  <MODEL>
1

>  <REMARK>
 VINA RESULT:      -5.5      0.000      0.000
  Name = ZINC06495501
                            x       y       z     vdW  Elec       q    Type
                         _______ _______ _______ _____ _____    ______ ____

>  <TORSDO>
F 8

>  <vina_score>
-5.5

$$$$
ZINC16697797
 OpenBabel01091701463D

 21 21  0  0  1  0  0  0  0  0999 V2000
   11.5190   14.6890   -0.1520 C   0  0  0  0  0  0  0  0  0  0  0  0
    9.3580   12.9520    3.1050 C   0  0  0  0  0  0  0  0  0  0  0  0
    8.8770   14.0920    2.4780 C   0  0  0  0  0  0  0  0  0  0  0  0
    9.5770   14.6510    1.4250 C   0  0  0  0  0  0  0  0  0  0  0  0
   10.7570   14.0760    0.9960 C   0  0  0  0  0  0  0  0  0  0  0  0
   11.2430   12.9360    1.6190 C   0  0  0  0  0  0  0  0  0  0  0  0
   10.5430   12.3730    2.6750 C   0  0  0  0  0  0  0  0  0  0  0  0
    8.9920   11.0570    4.4940 C   0  0  0  0  0  0  0  0  0  0  0  0
    8.6690   12.4030    4.1400 O   0  0  0  0  0  0  0  0  0  0  0  0
   12.4070   12.3750    1.2000 O   0  0  0  0  0  0  0  0  0  0  0  0
   13.0580   11.4790    2.1030 C   0  0  0  0  0  0  0  0  0  0  0  0
   10.6350   14.7020   -1.4010 C   0  0  1  0  0  0  0  0  0  0  0  0
   11.1360   15.7290   -2.3310 N   0  0  0  0  0  0  0  0  0  0  0  0
   11.7490   15.2940   -3.0200 H   0  0  0  0  0  0  0  0  0  0  0  0
   10.3490   16.1700   -2.8070 H   0  0  0  0  0  0  0  0  0  0  0  0
   11.6570   16.4340   -1.8100 H   0  0  0  0  0  0  0  0  0  0  0  0
   10.6640   13.3220   -2.0620 C   0  0  0  0  0  0  0  0  0  0  0  0
    9.3220   13.0570   -2.7470 C   0  0  0  0  0  0  0  0  0  0  0  0
    8.2490   12.8880   -1.7020 C   0  0  0  0  0  0  0  0  0  0  0  0
    7.1090   13.5890   -1.7930 O   0  0  0  0  0  0  0  0  0  0  0  0
    8.4160   12.1220   -0.7830 O   0  0  0  0  0  0  0  0  0  0  0  0
  1  5  1  0  0  0  0
  2  9  1  0  0  0  0
  3  2  2  0  0  0  0
  4  3  1  0  0  0  0
  5  4  2  0  0  0  0
  5  6  1  0  0  0  0
  6  7  2  0  0  0  0
  7  2  1  0  0  0  0
  9  8  1  0  0  0  0
 10  6  1  0  0  0  0
 10 11  1  0  0  0  0
 12 13  1  6  0  0  0
 12  1  1  0  0  0  0
 13 16  1  0  0  0  0
 14 13  1  0  0  0  0
 15 13  1  0  0  0  0
 17 12  1  0  0  0  0
 18 17  1  0  0  0  0
 18 19  1  0  0  0  0
 19 21  1  0  0  0  0
 20 19  2  0  0  0  0
M  END
>  <MODEL>
1

>  <REMARK>
 VINA RESULT:      -5.5      0.000      0.000
  Name = ZINC16697797
                            x       y       z     vdW  Elec       q    Type
                         _______ _______ _______ _____ _____    ______ ____

>  <TORSDO>
F 8

>  <vina_score>
-5.5

$$$$
ZINC05734955
 OpenBabel01091701473D

 17 16  0  0  1  0  0  0  0  0999 V2000
   10.1820   14.1220    0.7240 C   0  0  0  0  0  0  0  0  0  0  0  0
    9.6060   14.2350    2.1370 C   0  0  0  0  0  0  0  0  0  0  0  0
    9.3860   15.7100    2.4820 C   0  0  0  0  0  0  0  0  0  0  0  0
   10.5850   13.6180    3.1380 C   0  0  0  0  0  0  0  0  0  0  0  0
    8.3590   13.5400    2.2010 O   0  0  0  0  0  0  0  0  0  0  0  0
    8.2390   11.9400    2.0720 P   0  0  0  0  0  0  0  0  0  0  0  0
    9.3210   11.4040    1.0060 O   0  0  0  0  0  0  0  0  0  0  0  0
    6.7580   11.5510    1.5740 O   0  0  0  0  0  0  0  0  0  0  0  0
    8.4950   11.3190    3.3900 O   0  0  0  0  0  0  0  0  0  0  0  0
   10.2270   15.5090    0.0790 C   0  0  0  0  0  0  0  0  0  0  0  0
   10.9660   15.4250   -1.2580 C   0  0  0  0  0  0  0  0  0  0  0  0
   11.4140   13.4360   -2.7030 C   0  0  0  0  0  0  0  0  0  0  0  0
   10.3230   14.3440   -2.1290 C   0  0  2  0  0  0  0  0  0  0  0  0
    9.6030   14.9890   -3.2410 N   0  0  0  0  0  0  0  0  0  0  0  0
    9.9370   15.9470   -3.3520 H   0  0  0  0  0  0  0  0  0  0  0  0
    9.7710   14.4690   -4.1020 H   0  0  0  0  0  0  0  0  0  0  0  0
    8.6030   14.9990   -3.0390 H   0  0  0  0  0  0  0  0  0  0  0  0
  1  2  1  0  0  0  0
  2  5  1  0  0  0  0
  2  3  1  0  0  0  0
  2  4  1  0  0  0  0
  6  5  1  0  0  0  0
  6  9  1  0  0  0  0
  7  6  2  0  0  0  0
  8  6  1  0  0  0  0
 10  1  1  0  0  0  0
 11 10  1  0  0  0  0
 12 13  1  0  0  0  0
 13 14  1  6  0  0  0
 13 11  1  0  0  0  0
 14 17  1  0  0  0  0
 15 14  1  0  0  0  0
 16 14  1  0  0  0  0
M  END
>  <MODEL>
1

>  <REMARK>
 VINA RESULT:      -5.5      0.000      0.000
  Name = ZINC05734955
                            x       y       z     vdW  Elec       q    Type
                         _______ _______ _______ _____ _____    ______ ____

>  <TORSDO>
F 7

>  <vina_score>
-5.5

$$$$
ZINC29462525
 OpenBabel01091701493D

 25 25  0  0  1  0  0  0  0  0999 V2000
   10.4800   14.8870   -0.9060 C   0  0  1  0  0  0  0  0  0  0  0  0
   11.4960   14.5930   -2.0120 C   0  0  0  0  0  0  0  0  0  0  0  0
    9.1410   14.3140   -1.2910 C   0  0  0  0  0  0  0  0  0  0  0  0
    8.7750   13.0970   -0.8420 N   0  0  0  0  0  0  0  0  0  0  0  0
    9.3810   12.5830   -0.2620 H   0  0  0  0  0  0  0  0  0  0  0  0
    7.5760   12.5850   -1.1860 C   0  0  0  0  0  0  0  0  0  0  0  0
    7.2120   11.3660   -0.7410 N   0  0  0  0  0  0  0  0  0  0  0  0
    7.8210   10.8500   -0.1640 H   0  0  0  0  0  0  0  0  0  0  0  0
    6.8250   13.2220   -1.8980 O   0  0  0  0  0  0  0  0  0  0  0  0
    8.3930   14.9470   -2.0060 O   0  0  0  0  0  0  0  0  0  0  0  0
    5.9090   10.8090   -1.1150 C   0  0  0  0  0  0  0  0  0  0  0  0
    5.2620   10.1590    0.1090 C   0  0  0  0  0  0  0  0  0  0  0  0
    5.6920   10.8360    1.2920 O   0  0  0  0  0  0  0  0  0  0  0  0
    6.7240   10.1570    2.0080 C   0  0  0  0  0  0  0  0  0  0  0  0
   11.7760   13.1410    2.6850 C   0  0  2  0  0  0  0  0  0  0  0  0
   12.5230   13.0150    1.5250 C   0  0  0  0  0  0  0  0  0  0  0  0
   12.0650   13.6020    0.3610 C   0  0  0  0  0  0  0  0  0  0  0  0
   10.9320   14.2770    0.3470 N   0  0  0  0  0  0  0  0  0  0  0  0
   10.1980   14.4230    1.4320 C   0  0  0  0  0  0  0  0  0  0  0  0
   10.5900   13.8580    2.6320 C   0  0  0  0  0  0  0  0  0  0  0  0
   12.2410   12.5150    3.9740 C   0  0  0  0  0  0  0  0  0  0  0  0
   10.4260   10.8200    4.2420 C   0  0  0  0  0  0  0  0  0  0  0  0
   11.9160   11.0200    3.9630 C   0  0  0  0  0  0  0  0  0  0  0  0
   13.7530   12.7070    4.1170 C   0  0  0  0  0  0  0  0  0  0  0  0
   14.4270   11.3430    4.2790 C   0  0  0  0  0  0  0  0  0  0  0  0
  1  2  1  6  0  0  0
  1 18  1  0  0  0  0
  3  1  1  0  0  0  0
  3  4  1  0  0  0  0
  4  5  1  0  0  0  0
  6  4  1  0  0  0  0
  6  7  1  0  0  0  0
  7  8  1  0  0  0  0
  9  6  2  0  0  0  0
 10  3  2  0  0  0  0
 11  7  1  0  0  0  0
 11 12  1  0  0  0  0
 12 13  1  0  0  0  0
 13 14  1  0  0  0  0
 15 21  1  1  0  0  0
 16 15  1  0  0  0  0
 17 16  2  0  0  0  0
 18 17  1  0  0  0  0
 18 19  1  0  0  0  0
 19 20  2  0  0  0  0
 20 15  1  0  0  0  0
 21 24  1  0  0  0  0
 23 21  1  0  0  0  0
 23 22  1  0  0  0  0
 24 25  1  0  0  0  0
M  END
>  <MODEL>
1

>  <REMARK>
 VINA RESULT:      -5.5      0.000      0.000
  Name = ZINC29462525
                            x       y       z     vdW  Elec       q    Type
                         _______ _______ _______ _____ _____    ______ ____

>  <TORSDO>
F 8

>  <vina_score>
-5.5

$$$$
ZINC06425106
 OpenBabel01091701253D

 22 21  0  0  1  0  0  0  0  0999 V2000
    8.7890   12.8940   -2.0290 C   0  0  1  0  0  0  0  0  0  0  0  0
    9.8990   12.4360   -1.2550 O   0  0  0  0  0  0  0  0  0  0  0  0
   10.1530   11.5470   -1.5470 H   0  0  0  0  0  0  0  0  0  0  0  0
    7.4850   12.4980   -1.3340 C   0  0  2  0  0  0  0  0  0  0  0  0
    7.7080   12.6340    1.0800 N   0  0  0  0  0  0  0  0  0  0  0  0
    7.7960   11.9030    0.0160 C   0  0  0  0  0  0  0  0  0  0  0  0
    8.9550   12.5970    3.0780 C   0  0  0  0  0  0  0  0  0  0  0  0
    9.8730   13.9820    2.4920 S   0  0  0  0  0  0  0  0  0  0  0  0
    7.9960   12.0800    2.3340 N   0  0  0  0  0  0  0  0  0  0  0  0
    8.9930   10.1530    4.3100 C   0  0  0  0  0  0  0  0  0  0  0  0
    9.3190   11.9010    4.6540 S   0  0  0  0  0  0  0  0  0  0  0  0
    6.7930   11.5340   -2.1310 O   0  0  0  0  0  0  0  0  0  0  0  0
    7.3870   11.1990   -2.8210 H   0  0  0  0  0  0  0  0  0  0  0  0
    8.8530   14.4170   -2.1630 C   0  0  2  0  0  0  0  0  0  0  0  0
    9.3130   14.7610   -3.4720 O   0  0  0  0  0  0  0  0  0  0  0  0
    9.1030   15.6910   -3.6540 H   0  0  0  0  0  0  0  0  0  0  0  0
    9.8190   14.9800   -1.1180 C   0  0  2  0  0  0  0  0  0  0  0  0
    9.1880   16.0530   -0.4160 O   0  0  0  0  0  0  0  0  0  0  0  0
    9.4670   16.8990   -0.8010 H   0  0  0  0  0  0  0  0  0  0  0  0
   11.0800   15.4950   -1.8140 C   0  0  0  0  0  0  0  0  0  0  0  0
   11.9440   14.3970   -2.1080 O   0  0  0  0  0  0  0  0  0  0  0  0
   12.0610   14.3260   -3.0700 H   0  0  0  0  0  0  0  0  0  0  0  0
  1  4  1  0  0  0  0
  1  2  1  1  0  0  0
  3  2  1  0  0  0  0
  4 12  1  6  0  0  0
  4  6  1  0  0  0  0
  5  9  1  0  0  0  0
  6  5  2  0  0  0  0
  7 11  1  0  0  0  0
  8  7  2  0  0  0  0
  9  7  1  0  0  0  0
 10 11  1  0  0  0  0
 13 12  1  0  0  0  0
 14 15  1  6  0  0  0
 14  1  1  0  0  0  0
 14 17  1  0  0  0  0
 16 15  1  0  0  0  0
 17 20  1  6  0  0  0
 17 18  1  0  0  0  0
 19 18  1  0  0  0  0
 21 20  1  0  0  0  0
 22 21  1  0  0  0  0
M  END
>  <MODEL>
1

>  <REMARK>
 VINA RESULT:      -5.5      0.000      0.000
  Name = ZINC06425106
                            x       y       z     vdW  Elec       q    Type
                         _______ _______ _______ _____ _____    ______ ____

>  <TORSDO>
F 12

>  <vina_score>
-5.5

$$$$
ZINC31167898
 OpenBabel01091701293D

 35 36  0  0  1  0  0  0  0  0999 V2000
   10.3800   13.8380    2.9560 C   0  0  0  0  0  0  0  0  0  0  0  0
   11.4010   13.5260    2.0790 C   0  0  0  0  0  0  0  0  0  0  0  0
   11.5530   14.2450    0.9090 C   0  0  0  0  0  0  0  0  0  0  0  0
   10.6780   15.2800    0.6140 C   0  0  0  0  0  0  0  0  0  0  0  0
    9.6530   15.5910    1.4950 C   0  0  0  0  0  0  0  0  0  0  0  0
    9.5060   14.8700    2.6640 C   0  0  0  0  0  0  0  0  0  0  0  0
   10.2160   13.0530    4.2320 C   0  0  0  0  0  0  0  0  0  0  0  0
   10.1320   11.6370    3.9200 O   0  0  0  0  0  0  0  0  0  0  0  0
    8.9300   11.1640    3.5560 C   0  0  0  0  0  0  0  0  0  0  0  0
    8.4990   10.1550    4.0630 O   0  0  0  0  0  0  0  0  0  0  0  0
    8.1160   11.8910    2.5160 C   0  0  0  0  0  0  0  0  0  0  0  0
    9.9100   10.8790    1.1010 C   0  0  0  0  0  0  0  0  0  0  0  0
    8.4520   11.3390    1.1290 C   0  0  2  0  0  0  0  0  0  0  0  0
    8.2560   12.3620    0.1490 O   0  0  0  0  0  0  0  0  0  0  0  0
    7.8850   13.1500    0.5740 H   0  0  0  0  0  0  0  0  0  0  0  0
    7.5360   10.1530    0.8180 C   0  0  0  0  0  0  0  0  0  0  0  0
    6.1040   10.6190    0.7840 C   0  0  0  0  0  0  0  0  0  0  0  0
    5.4920   10.8250   -0.3920 O   0  0  0  0  0  0  0  0  0  0  0  0
    5.5060   10.8080    1.8170 O   0  0  0  0  0  0  0  0  0  0  0  0
   10.8260   15.9890   -0.5360 O   0  0  0  0  0  0  0  0  0  0  0  0
   10.3340   15.3880   -1.7370 C   0  0  1  0  0  0  0  0  0  0  0  0
   11.2490   14.2290   -2.1390 C   0  0  1  0  0  0  0  0  0  0  0  0
   10.6820   13.5540   -3.3920 C   0  0  2  0  0  0  0  0  0  0  0  0
    9.2500   13.0930   -3.1070 C   0  0  1  0  0  0  0  0  0  0  0  0
    8.4130   14.2980   -2.6670 C   0  0  2  0  0  0  0  0  0  0  0  0
    9.0110   14.8970   -1.5170 O   0  0  0  0  0  0  0  0  0  0  0  0
   12.5590   14.7280   -2.4160 O   0  0  0  0  0  0  0  0  0  0  0  0
   13.1640   14.4590   -1.7070 H   0  0  0  0  0  0  0  0  0  0  0  0
   11.4890   12.4240   -3.7330 O   0  0  0  0  0  0  0  0  0  0  0  0
   11.7940   12.5090   -4.6500 H   0  0  0  0  0  0  0  0  0  0  0  0
    8.6860   12.5260   -4.2920 O   0  0  0  0  0  0  0  0  0  0  0  0
    8.2050   11.7140   -4.0650 H   0  0  0  0  0  0  0  0  0  0  0  0
    6.9950   13.8350   -2.3230 C   0  0  0  0  0  0  0  0  0  0  0  0
    6.9950   12.4240   -2.1030 O   0  0  0  0  0  0  0  0  0  0  0  0
    7.9090   12.0980   -2.0920 H   0  0  0  0  0  0  0  0  0  0  0  0
  1  7  1  0  0  0  0
  2  1  2  0  0  0  0
  3  2  1  0  0  0  0
  4  3  2  0  0  0  0
  4  5  1  0  0  0  0
  5  6  2  0  0  0  0
  6  1  1  0  0  0  0
  8  7  1  0  0  0  0
  9  8  1  0  0  0  0
  9 10  2  0  0  0  0
 11  9  1  0  0  0  0
 12 13  1  0  0  0  0
 13 14  1  6  0  0  0
 13 11  1  0  0  0  0
 14 15  1  0  0  0  0
 16 13  1  0  0  0  0
 17 16  1  0  0  0  0
 17 19  1  0  0  0  0
 18 17  2  0  0  0  0
 20  4  1  0  0  0  0
 21 26  1  0  0  0  0
 21 20  1  1  0  0  0
 22 27  1  6  0  0  0
 22 21  1  0  0  0  0
 23 29  1  1  0  0  0
 23 24  1  0  0  0  0
 23 22  1  0  0  0  0
 24 31  1  6  0  0  0
 24 25  1  0  0  0  0
 25 33  1  1  0  0  0
 25 26  1  0  0  0  0
 27 28  1  0  0  0  0
 30 29  1  0  0  0  0
 31 32  1  0  0  0  0
 33 34  1  0  0  0  0
 34 35  1  0  0  0  0
M  END
>  <MODEL>
1

>  <REMARK>
 VINA RESULT:      -5.5      0.000      0.000
  Name = ZINC31167898
                            x       y       z     vdW  Elec       q    Type
                         _______ _______ _______ _____ _____    ______ ____

>  <TORSDO>
F 15

>  <vina_score>
-5.5

$$$$
ZINC02538358
 OpenBabel01091701333D

 21 21  0  0  1  0  0  0  0  0999 V2000
   10.3530   13.5200    3.2450 C   0  0  0  0  0  0  0  0  0  0  0  0
   10.7280   14.6730   -0.0880 C   0  0  0  0  0  0  0  0  0  0  0  0
    9.8700   15.6820    0.4140 C   0  0  0  0  0  0  0  0  0  0  0  0
    9.6480   15.3560    1.7080 C   0  0  0  0  0  0  0  0  0  0  0  0
   10.3280   14.2160    1.9560 N   0  0  0  0  0  0  0  0  0  0  0  0
   10.9530   13.8330    0.9020 N   0  0  0  0  0  0  0  0  0  0  0  0
   11.2670   14.5800   -1.4590 C   0  0  0  0  0  0  0  0  0  0  0  0
   11.9610   15.4740   -1.9010 O   0  0  0  0  0  0  0  0  0  0  0  0
   10.9900   13.5040   -2.2200 O   0  0  0  0  0  0  0  0  0  0  0  0
    8.9180   14.2380   -3.2700 C   0  0  0  0  0  0  0  0  0  0  0  0
    9.5900   13.1690   -2.4040 C   0  0  0  0  0  0  0  0  0  0  0  0
   10.8050   11.7820    2.9870 S   0  0  0  0  0  0  0  0  0  0  0  0
    9.2140   10.9110    2.9760 C   0  0  0  0  0  0  0  0  0  0  0  0
    8.7790   10.6630    1.5310 C   0  0  2  0  0  0  0  0  0  0  0  0
    9.9040   10.9740    0.6320 N   0  0  0  0  0  0  0  0  0  0  0  0
   10.1380   11.9630    0.7090 H   0  0  0  0  0  0  0  0  0  0  0  0
   10.7140   10.4110    0.8930 H   0  0  0  0  0  0  0  0  0  0  0  0
    9.6390   10.7610   -0.3300 H   0  0  0  0  0  0  0  0  0  0  0  0
    7.5910   11.5330    1.2090 C   0  0  0  0  0  0  0  0  0  0  0  0
    6.3710   11.1950    1.6550 O   0  0  0  0  0  0  0  0  0  0  0  0
    7.7360   12.5340    0.5480 O   0  0  0  0  0  0  0  0  0  0  0  0
  2  3  1  0  0  0  0
  2  6  2  0  0  0  0
  3  4  2  0  0  0  0
  4  5  1  0  0  0  0
  5  1  1  0  0  0  0
  6  5  1  0  0  0  0
  7  2  1  0  0  0  0
  8  7  2  0  0  0  0
  9  7  1  0  0  0  0
 10 11  1  0  0  0  0
 11  9  1  0  0  0  0
 12  1  1  0  0  0  0
 13 12  1  0  0  0  0
 14 15  1  6  0  0  0
 14 13  1  0  0  0  0
 15 16  1  0  0  0  0
 15 17  1  0  0  0  0
 18 15  1  0  0  0  0
 19 14  1  0  0  0  0
 19 20  1  0  0  0  0
 21 19  2  0  0  0  0
M  END
>  <MODEL>
1

>  <REMARK>
 VINA RESULT:      -5.4      0.000      0.000
  Name = ZINC02538358
                            x       y       z     vdW  Elec       q    Type
                         _______ _______ _______ _____ _____    ______ ____

>  <TORSDO>
F 9

>  <vina_score>
-5.4

$$$$
ZINC05113155
 OpenBabel01091701383D

 19 18  0  0  0  0  0  0  0  0999 V2000
    9.4090   14.7830   -1.2890 C   0  0  0  0  0  0  0  0  0  0  0  0
    8.3310   13.7730   -1.0110 N   0  0  0  0  0  0  0  0  0  0  0  0
    7.8550   13.7860   -0.1500 H   0  0  0  0  0  0  0  0  0  0  0  0
    8.0180   12.8580   -1.9370 C   0  0  0  0  0  0  0  0  0  0  0  0
    6.9700   12.0120   -1.6580 N   0  0  0  0  0  0  0  0  0  0  0  0
    6.3160   11.7920   -2.3590 H   0  0  0  0  0  0  0  0  0  0  0  0
    6.8750   11.6270   -0.7560 H   0  0  0  0  0  0  0  0  0  0  0  0
    8.6990   12.7400   -3.1250 N   0  0  0  0  0  0  0  0  0  0  0  0
    9.2180   13.5020   -3.4730 H   0  0  0  0  0  0  0  0  0  0  0  0
    8.6680   11.8950   -3.6290 H   0  0  0  0  0  0  0  0  0  0  0  0
   10.2900   14.9090   -0.0440 C   0  0  0  0  0  0  0  0  0  0  0  0
    9.8150   16.0930    0.8000 C   0  0  0  0  0  0  0  0  0  0  0  0
    9.4380   15.6040    2.2000 C   0  0  0  0  0  0  0  0  0  0  0  0
    9.9290   14.1670    2.3870 C   0  0  0  0  0  0  0  0  0  0  0  0
    8.8620   13.3560    3.1270 C   0  0  0  0  0  0  0  0  0  0  0  0
    8.4160   11.9020    2.1390 S   0  0  0  0  0  0  0  0  0  0  0  0
    7.1410   12.3020    1.4090 O   0  0  0  0  0  0  0  0  0  0  0  0
    8.0270   10.8330    2.9900 O   0  0  0  0  0  0  0  0  0  0  0  0
    9.3730   11.6970    1.1090 O   0  0  0  0  0  0  0  0  0  0  0  0
  1  2  1  0  0  0  0
  1 11  1  0  0  0  0
  2  3  1  0  0  0  0
  4  5  1  0  0  0  0
  4  2  1  0  0  0  0
  5  7  1  0  0  0  0
  6  5  1  0  0  0  0
  8  4  2  0  0  0  0
  9  8  1  0  0  0  0
 10  8  1  0  0  0  0
 11 12  1  0  0  0  0
 12 13  1  0  0  0  0
 13 14  1  0  0  0  0
 14 15  1  0  0  0  0
 16 18  1  0  0  0  0
 16 15  1  0  0  0  0
 17 16  2  0  0  0  0
 19 16  2  0  0  0  0
M  END
>  <MODEL>
1

>  <REMARK>
 VINA RESULT:      -5.4      0.000      0.000
  Name = ZINC05113155
                            x       y       z     vdW  Elec       q    Type
                         _______ _______ _______ _____ _____    ______ ____

>  <TORSDO>
F 9

>  <vina_score>
-5.4

$$$$
ZINC00389139
 OpenBabel01091701293D

 26 27  0  0  0  0  0  0  0  0999 V2000
   10.5670   10.7150    3.4210 C   0  0  0  0  0  0  0  0  0  0  0  0
    9.5250   11.1450    2.6500 C   0  0  0  0  0  0  0  0  0  0  0  0
    9.7800   11.7100    1.3940 C   0  0  0  0  0  0  0  0  0  0  0  0
   11.1130   11.8310    0.9320 C   0  0  0  0  0  0  0  0  0  0  0  0
   11.3310   12.3710   -0.2790 N   0  0  0  0  0  0  0  0  0  0  0  0
   10.3200   12.7890   -1.0150 C   0  0  0  0  0  0  0  0  0  0  0  0
    9.0540   12.6930   -0.6190 N   0  0  0  0  0  0  0  0  0  0  0  0
   12.1660   11.3830    1.7390 C   0  0  0  0  0  0  0  0  0  0  0  0
    8.7350   12.1710    0.5560 C   0  0  0  0  0  0  0  0  0  0  0  0
   11.8880   10.8320    2.9700 C   0  0  0  0  0  0  0  0  0  0  0  0
    7.4170   12.0780    0.9540 N   0  0  0  0  0  0  0  0  0  0  0  0
    6.9030   12.8950    1.1490 H   0  0  0  0  0  0  0  0  0  0  0  0
    6.9910   11.1950    1.0430 H   0  0  0  0  0  0  0  0  0  0  0  0
    8.9580   10.1530    5.0820 C   0  0  0  0  0  0  0  0  0  0  0  0
   10.3180   10.1670    4.6410 O   0  0  0  0  0  0  0  0  0  0  0  0
   12.9070   10.3960    3.7570 O   0  0  0  0  0  0  0  0  0  0  0  0
   13.8910   11.3610    4.1360 C   0  0  0  0  0  0  0  0  0  0  0  0
   10.5860   13.3450   -2.2550 N   0  0  0  0  0  0  0  0  0  0  0  0
   11.7830   14.1680   -2.4450 C   0  0  0  0  0  0  0  0  0  0  0  0
   11.8510   15.2300   -1.3450 C   0  0  0  0  0  0  0  0  0  0  0  0
   10.7910   16.1710   -1.5250 O   0  0  0  0  0  0  0  0  0  0  0  0
   10.1900   15.8530   -2.2150 H   0  0  0  0  0  0  0  0  0  0  0  0
    9.6740   13.1090   -3.3750 C   0  0  0  0  0  0  0  0  0  0  0  0
    8.9300   14.4050   -3.7100 C   0  0  0  0  0  0  0  0  0  0  0  0
    8.2370   14.8670   -2.5500 O   0  0  0  0  0  0  0  0  0  0  0  0
    8.7970   15.4930   -2.0650 H   0  0  0  0  0  0  0  0  0  0  0  0
  1 15  1  0  0  0  0
  2  1  2  0  0  0  0
  3  2  1  0  0  0  0
  4  3  1  0  0  0  0
  4  8  1  0  0  0  0
  5  4  2  0  0  0  0
  6  7  2  0  0  0  0
  6  5  1  0  0  0  0
  7  9  1  0  0  0  0
  8 10  2  0  0  0  0
  9 11  1  0  0  0  0
  9  3  2  0  0  0  0
 10  1  1  0  0  0  0
 10 16  1  0  0  0  0
 11 13  1  0  0  0  0
 11 12  1  0  0  0  0
 15 14  1  0  0  0  0
 16 17  1  0  0  0  0
 18  6  1  0  0  0  0
 19 18  1  0  0  0  0
 19 20  1  0  0  0  0
 21 20  1  0  0  0  0
 22 21  1  0  0  0  0
 23 18  1  0  0  0  0
 24 23  1  0  0  0  0
 24 25  1  0  0  0  0
 25 26  1  0  0  0  0
M  END
>  <MODEL>
1

>  <REMARK>
 VINA RESULT:      -5.4      0.000      0.000
  Name = ZINC00389139
                            x       y       z     vdW  Elec       q    Type
                         _______ _______ _______ _____ _____    ______ ____

>  <TORSDO>
F 10

>  <vina_score>
-5.4

$$$$
ZINC26127025
 OpenBabel01091701313D

 27 27  0  0  1  0  0  0  0  0999 V2000
   11.6290   12.6070    1.1020 N   0  0  0  0  0  0  0  0  0  0  0  0
   12.3980   12.9050    1.6370 H   0  0  0  0  0  0  0  0  0  0  0  0
   11.1710   11.3450    1.2220 C   0  0  0  0  0  0  0  0  0  0  0  0
   10.2220   10.9790    0.5620 O   0  0  0  0  0  0  0  0  0  0  0  0
   10.3470   14.6210   -1.6610 C   0  0  1  0  0  0  0  0  0  0  0  0
   11.2030   15.6980   -2.3290 C   0  0  0  0  0  0  0  0  0  0  0  0
   11.2240   13.5110   -1.1160 C   0  0  0  0  0  0  0  0  0  0  0  0
   11.0070   13.4950    0.2140 N   0  0  0  0  0  0  0  0  0  0  0  0
   10.1320   14.4370    0.5830 C   0  0  0  0  0  0  0  0  0  0  0  0
    9.7810   14.6210    1.7310 O   0  0  0  0  0  0  0  0  0  0  0  0
   11.9630   12.7860   -1.7460 O   0  0  0  0  0  0  0  0  0  0  0  0
    9.6820   15.1570   -0.4600 N   0  0  0  0  0  0  0  0  0  0  0  0
    7.9400   14.6620   -2.3300 C   0  0  0  0  0  0  0  0  0  0  0  0
    9.3150   14.0680   -2.6460 C   0  0  0  0  0  0  0  0  0  0  0  0
   11.8390   10.3890    2.1760 C   0  0  0  0  0  0  0  0  0  0  0  0
   11.8520   10.9720    3.5250 N   0  0  0  0  0  0  0  0  0  0  0  0
   11.4170   11.8930    3.4710 H   0  0  0  0  0  0  0  0  0  0  0  0
   13.2280   11.1510    4.0070 C   0  0  0  0  0  0  0  0  0  0  0  0
   13.5370   12.6230    4.1080 C   0  0  0  0  0  0  0  0  0  0  0  0
   14.6340   13.0380    4.7710 N   0  0  0  0  0  0  0  0  0  0  0  0
   14.8360   13.9990    4.8370 H   0  0  0  0  0  0  0  0  0  0  0  0
   15.2360   12.3790    5.1890 H   0  0  0  0  0  0  0  0  0  0  0  0
   12.7970   13.4340    3.5950 O   0  0  0  0  0  0  0  0  0  0  0  0
   11.0680   10.1540    4.4590 C   0  0  0  0  0  0  0  0  0  0  0  0
    9.6860   10.7810    4.6480 C   0  0  0  0  0  0  0  0  0  0  0  0
    8.7070   10.1650    3.6440 C   0  0  0  0  0  0  0  0  0  0  0  0
    9.7730   12.2900    4.4130 C   0  0  0  0  0  0  0  0  0  0  0  0
  1  3  1  0  0  0  0
  1  2  1  0  0  0  0
  3 15  1  0  0  0  0
  4  3  2  0  0  0  0
  5 14  1  6  0  0  0
  5  7  1  0  0  0  0
  5 12  1  0  0  0  0
  6  5  1  0  0  0  0
  7  8  1  0  0  0  0
  8  9  1  0  0  0  0
  8  1  1  0  0  0  0
  9 10  2  0  0  0  0
 11  7  2  0  0  0  0
 12  9  1  0  0  0  0
 14 13  1  0  0  0  0
 15 16  1  0  0  0  0
 16 18  1  0  0  0  0
 16 24  1  0  0  0  0
 17 16  1  0  0  0  0
 18 19  1  0  0  0  0
 19 20  1  0  0  0  0
 20 21  1  0  0  0  0
 20 22  1  0  0  0  0
 23 19  2  0  0  0  0
 24 25  1  0  0  0  0
 26 25  1  0  0  0  0
 27 25  1  0  0  0  0
M  END
>  <MODEL>
1

>  <REMARK>
 VINA RESULT:      -5.4      0.000      0.000
  Name = ZINC26127025
                            x       y       z     vdW  Elec       q    Type
                         _______ _______ _______ _____ _____    ______ ____

>  <TORSDO>
F 8

>  <vina_score>
-5.4

$$$$
ZINC13282339
 OpenBabel01091701313D

 19 19  0  0  1  0  0  0  0  0999 V2000
    8.8020   13.5050    2.5490 C   0  0  2  0  0  0  0  0  0  0  0  0
    7.7650   14.3820    2.9930 O   0  0  0  0  0  0  0  0  0  0  0  0
    8.1050   14.9520    3.7000 H   0  0  0  0  0  0  0  0  0  0  0  0
   10.0650   14.3160    2.2530 C   0  0  0  0  0  0  0  0  0  0  0  0
   12.8050   12.1610    3.1730 C   0  0  0  0  0  0  0  0  0  0  0  0
   11.7140   12.8710    3.5160 C   0  0  0  0  0  0  0  0  0  0  0  0
   11.2400   13.4500    2.3700 N   0  0  0  0  0  0  0  0  0  0  0  0
   12.0570   13.0680    1.3640 C   0  0  0  0  0  0  0  0  0  0  0  0
   12.9930   12.3010    1.8520 N   0  0  0  0  0  0  0  0  0  0  0  0
   11.9150   13.4570   -0.0580 N   0  0  0  0  0  0  0  0  0  0  0  0
   12.1990   14.5870   -0.4120 O   0  0  0  0  0  0  0  0  0  0  0  0
   11.5130   12.6450   -0.8740 O   0  0  0  0  0  0  0  0  0  0  0  0
    8.3500   12.7820    1.2780 C   0  0  0  0  0  0  0  0  0  0  0  0
    8.5330   13.6790    0.1210 N   0  0  0  0  0  0  0  0  0  0  0  0
    7.9390   14.4990    0.2410 H   0  0  0  0  0  0  0  0  0  0  0  0
    9.5110   13.9610    0.0650 H   0  0  0  0  0  0  0  0  0  0  0  0
    8.1530   12.9890   -1.1260 C   0  0  0  0  0  0  0  0  0  0  0  0
    8.3090   13.9560   -2.3010 C   0  0  0  0  0  0  0  0  0  0  0  0
    9.3490   13.0910   -3.7290 Br  0  0  0  0  0  0  0  0  0  0  0  0
  1 13  1  6  0  0  0
  1  2  1  0  0  0  0
  2  3  1  0  0  0  0
  4  7  1  0  0  0  0
  4  1  1  0  0  0  0
  5  6  2  0  0  0  0
  7  6  1  0  0  0  0
  8  9  2  0  0  0  0
  8  7  1  0  0  0  0
  9  5  1  0  0  0  0
 10  8  1  0  0  0  0
 11 10  2  0  0  0  0
 12 10  2  0  0  0  0
 14 15  1  0  0  0  0
 14 13  1  0  0  0  0
 16 14  1  0  0  0  0
 17 14  1  0  0  0  0
 18 17  1  0  0  0  0
 19 18  1  0  0  0  0
M  END
>  <MODEL>
1

>  <REMARK>
 VINA RESULT:      -5.4      0.000      0.000
  Name = ZINC13282339
                            x       y       z     vdW  Elec       q    Type
                         _______ _______ _______ _____ _____    ______ ____

>  <TORSDO>
F 8

>  <vina_score>
-5.4

$$$$
ZINC01535960
 OpenBabel01091701323D

 19 19  0  0  1  0  0  0  0  0999 V2000
   11.4580   14.6170   -0.4970 C   0  0  1  0  0  0  0  0  0  0  0  0
   10.6220   15.7310   -0.1790 O   0  0  0  0  0  0  0  0  0  0  0  0
   10.2170   15.5940    0.6910 H   0  0  0  0  0  0  0  0  0  0  0  0
   10.9090   13.3580    0.1770 C   0  0  0  0  0  0  0  0  0  0  0  0
   12.6790   12.8920    3.2830 C   0  0  0  0  0  0  0  0  0  0  0  0
   12.6180   12.7610    1.9440 C   0  0  0  0  0  0  0  0  0  0  0  0
   11.4140   13.2800    1.5490 N   0  0  0  0  0  0  0  0  0  0  0  0
   10.7800   13.7090    2.6620 C   0  0  0  0  0  0  0  0  0  0  0  0
   11.5430   13.4740    3.6950 N   0  0  0  0  0  0  0  0  0  0  0  0
    9.4430   14.3420    2.7030 N   0  0  0  0  0  0  0  0  0  0  0  0
    8.4530   13.6600    2.9020 O   0  0  0  0  0  0  0  0  0  0  0  0
    9.3320   15.5430    2.5380 O   0  0  0  0  0  0  0  0  0  0  0  0
   11.4820   14.4140   -2.0140 C   0  0  0  0  0  0  0  0  0  0  0  0
   10.3690   15.1700   -2.6200 N   0  0  0  0  0  0  0  0  0  0  0  0
    9.9440   15.7620   -1.9070 H   0  0  0  0  0  0  0  0  0  0  0  0
   10.7280   15.7440   -3.3830 H   0  0  0  0  0  0  0  0  0  0  0  0
    9.3500   14.2440   -3.1470 C   0  0  0  0  0  0  0  0  0  0  0  0
    8.0780   14.3670   -2.3050 C   0  0  0  0  0  0  0  0  0  0  0  0
    7.6400   12.6180   -1.5220 Br  0  0  0  0  0  0  0  0  0  0  0  0
  1 13  1  6  0  0  0
  1  2  1  0  0  0  0
  1  4  1  0  0  0  0
  2  3  1  0  0  0  0
  4  7  1  0  0  0  0
  5  9  1  0  0  0  0
  6  5  2  0  0  0  0
  7  6  1  0  0  0  0
  7  8  1  0  0  0  0
  8 10  1  0  0  0  0
  8  9  2  0  0  0  0
 10 11  2  0  0  0  0
 12 10  2  0  0  0  0
 14 13  1  0  0  0  0
 14 15  1  0  0  0  0
 16 14  1  0  0  0  0
 17 14  1  0  0  0  0
 17 18  1  0  0  0  0
 18 19  1  0  0  0  0
M  END
>  <MODEL>
1

>  <REMARK>
 VINA RESULT:      -5.4      0.000      0.000
  Name = ZINC01535960
                            x       y       z     vdW  Elec       q    Type
                         _______ _______ _______ _____ _____    ______ ____

>  <TORSDO>
F 8

>  <vina_score>
-5.4

$$$$
ZINC04992018
 OpenBabel01091701343D

 22 23  0  0  0  0  0  0  0  0999 V2000
   11.5720   13.2420    2.3630 C   0  0  0  0  0  0  0  0  0  0  0  0
   12.8300   13.0310    2.6090 N   0  0  0  0  0  0  0  0  0  0  0  0
   10.1140   12.9590   -1.6180 C   0  0  0  0  0  0  0  0  0  0  0  0
   11.3820   13.4710   -1.3780 C   0  0  0  0  0  0  0  0  0  0  0  0
   11.8570   13.5680   -0.0870 C   0  0  0  0  0  0  0  0  0  0  0  0
   11.0650   13.1430    0.9820 C   0  0  0  0  0  0  0  0  0  0  0  0
    9.7880   12.6290    0.7400 C   0  0  0  0  0  0  0  0  0  0  0  0
    9.3170   12.5390   -0.5560 C   0  0  0  0  0  0  0  0  0  0  0  0
    9.0930   14.0550   -3.4650 C   0  0  0  0  0  0  0  0  0  0  0  0
    9.6490   12.8710   -2.8920 O   0  0  0  0  0  0  0  0  0  0  0  0
    8.0750   12.0380   -0.7950 O   0  0  0  0  0  0  0  0  0  0  0  0
    7.5930   11.0410    0.1070 C   0  0  0  0  0  0  0  0  0  0  0  0
   13.3120   13.1240    3.9210 N   0  0  0  0  0  0  0  0  0  0  0  0
   13.0970   13.9130    4.4700 H   0  0  0  0  0  0  0  0  0  0  0  0
   14.0910   12.1070    4.4460 C   0  0  0  0  0  0  0  0  0  0  0  0
   15.0620   12.2380    5.3190 N   0  0  0  0  0  0  0  0  0  0  0  0
   15.5650   11.0870    5.5890 N   0  0  0  0  0  0  0  0  0  0  0  0
   14.9570   10.1610    4.9030 C   0  0  0  0  0  0  0  0  0  0  0  0
   13.9930   10.7760    4.1540 N   0  0  0  0  0  0  0  0  0  0  0  0
   13.1150   10.1840    3.2920 N   0  0  0  0  0  0  0  0  0  0  0  0
   13.3930    9.9820    2.3680 H   0  0  0  0  0  0  0  0  0  0  0  0
   12.2050    9.9590    3.5930 H   0  0  0  0  0  0  0  0  0  0  0  0
  1  2  2  0  0  0  0
  2 13  1  0  0  0  0
  3  4  2  0  0  0  0
  3  8  1  0  0  0  0
  4  5  1  0  0  0  0
  5  6  2  0  0  0  0
  6  1  1  0  0  0  0
  7  6  1  0  0  0  0
  8  7  2  0  0  0  0
  9 10  1  0  0  0  0
 10  3  1  0  0  0  0
 11  8  1  0  0  0  0
 11 12  1  0  0  0  0
 13 15  1  0  0  0  0
 13 14  1  0  0  0  0
 15 16  2  0  0  0  0
 16 17  1  0  0  0  0
 18 17  2  0  0  0  0
 19 15  1  0  0  0  0
 19 18  1  0  0  0  0
 20 22  1  0  0  0  0
 20 19  1  0  0  0  0
 21 20  1  0  0  0  0
M  END
>  <MODEL>
1

>  <REMARK>
 VINA RESULT:      -5.3      0.000      0.000
  Name = ZINC04992018
                            x       y       z     vdW  Elec       q    Type
                         _______ _______ _______ _____ _____    ______ ____

>  <TORSDO>
F 6

>  <vina_score>
-5.3

$$$$
ZINC10111680
 OpenBabel01091701363D

 23 23  0  0  0  0  0  0  0  0999 V2000
   10.5790   14.4150   -1.0930 C   0  0  0  0  0  0  0  0  0  0  0  0
   11.4670   13.3430   -1.0700 C   0  0  0  0  0  0  0  0  0  0  0  0
   11.8840   12.8190    0.1320 C   0  0  0  0  0  0  0  0  0  0  0  0
   11.4070   13.3580    1.3300 C   0  0  0  0  0  0  0  0  0  0  0  0
   10.5130   14.4310    1.3030 C   0  0  0  0  0  0  0  0  0  0  0  0
   10.1030   14.9540    0.0980 C   0  0  0  0  0  0  0  0  0  0  0  0
   11.8490   12.7960    2.6220 C   0  0  0  0  0  0  0  0  0  0  0  0
   12.2090   11.5000    2.7040 N   0  0  0  0  0  0  0  0  0  0  0  0
   12.1770   10.9280    1.9040 H   0  0  0  0  0  0  0  0  0  0  0  0
   11.8890   13.5020    3.6100 O   0  0  0  0  0  0  0  0  0  0  0  0
   12.6460   10.9420    3.9860 C   0  0  0  0  0  0  0  0  0  0  0  0
   14.1680   10.7790    3.9790 C   0  0  0  0  0  0  0  0  0  0  0  0
   14.7040   11.2350    5.2780 N   0  0  0  0  0  0  0  0  0  0  0  0
   13.9400   11.2820    5.9540 H   0  0  0  0  0  0  0  0  0  0  0  0
   15.2980   12.5820    5.1350 C   0  0  0  0  0  0  0  0  0  0  0  0
   15.7220   10.2830    5.7680 C   0  0  0  0  0  0  0  0  0  0  0  0
   10.1630   14.9450   -2.3100 N   0  0  0  0  0  0  0  0  0  0  0  0
   10.5670   15.7760   -2.6490 H   0  0  0  0  0  0  0  0  0  0  0  0
    8.9890   14.1760   -3.1890 S   0  0  0  0  0  0  0  0  0  0  0  0
    9.5620   12.9250   -3.5420 O   0  0  0  0  0  0  0  0  0  0  0  0
    8.6160   15.1100   -4.1920 O   0  0  0  0  0  0  0  0  0  0  0  0
    7.5590   12.4580   -1.6130 C   0  0  0  0  0  0  0  0  0  0  0  0
    7.6210   13.9310   -2.0230 C   0  0  0  0  0  0  0  0  0  0  0  0
  1  2  2  0  0  0  0
  1  6  1  0  0  0  0
  2  3  1  0  0  0  0
  3  4  2  0  0  0  0
  4  7  1  0  0  0  0
  5  4  1  0  0  0  0
  6  5  2  0  0  0  0
  7  8  1  0  0  0  0
  7 10  2  0  0  0  0
  8 11  1  0  0  0  0
  9  8  1  0  0  0  0
 12 11  1  0  0  0  0
 12 13  1  0  0  0  0
 13 16  1  0  0  0  0
 13 14  1  0  0  0  0
 15 13  1  0  0  0  0
 17  1  1  0  0  0  0
 18 17  1  0  0  0  0
 19 17  1  0  0  0  0
 19 23  1  0  0  0  0
 20 19  2  0  0  0  0
 21 19  2  0  0  0  0
 23 22  1  0  0  0  0
M  END
>  <MODEL>
1

>  <REMARK>
 VINA RESULT:      -5.3      0.000      0.000
  Name = ZINC10111680
                            x       y       z     vdW  Elec       q    Type
                         _______ _______ _______ _____ _____    ______ ____

>  <TORSDO>
F 7

>  <vina_score>
-5.3

$$$$
ZINC27367243
 OpenBabel01091701243D

 31 33  0  0  1  0  0  0  0  0999 V2000
    9.3720   14.7440   -1.7600 C   0  0  2  0  0  0  0  0  0  0  0  0
   10.1250   13.9490   -2.8310 C   0  0  0  0  0  0  0  0  0  0  0  0
   11.6070   14.3330   -2.8140 C   0  0  0  0  0  0  0  0  0  0  0  0
   12.2620   13.7930   -1.5360 C   0  0  0  0  0  0  0  0  0  0  0  0
   11.4100   14.1970   -0.3580 C   0  0  0  0  0  0  0  0  0  0  0  0
   11.7470   14.2080    0.9420 N   0  0  0  0  0  0  0  0  0  0  0  0
   10.6400   14.6670    1.6690 N   0  0  0  0  0  0  0  0  0  0  0  0
    9.6680   14.9150    0.8250 C   0  0  0  0  0  0  0  0  0  0  0  0
   10.1250   14.6230   -0.4590 C   0  0  0  0  0  0  0  0  0  0  0  0
    6.5550   12.3980   -1.4970 N   0  0  0  0  0  0  0  0  0  0  0  0
    5.7990   13.0130   -1.3550 H   0  0  0  0  0  0  0  0  0  0  0  0
    7.8020   12.8840   -1.6450 C   0  0  0  0  0  0  0  0  0  0  0  0
    8.0160   14.2140   -1.5980 N   0  0  0  0  0  0  0  0  0  0  0  0
    7.2610   14.8300   -1.4560 H   0  0  0  0  0  0  0  0  0  0  0  0
    8.7350   12.1250   -1.8210 O   0  0  0  0  0  0  0  0  0  0  0  0
    6.3220   10.9520   -1.5490 C   0  0  0  0  0  0  0  0  0  0  0  0
    6.9170   10.2940   -0.3030 C   0  0  0  0  0  0  0  0  0  0  0  0
    6.0490   10.6240    0.9130 C   0  0  0  0  0  0  0  0  0  0  0  0
    6.8910   10.6960    2.1100 N   0  0  0  0  0  0  0  0  0  0  0  0
    6.2710   10.9010    2.8930 H   0  0  0  0  0  0  0  0  0  0  0  0
    8.8580   11.5600    3.8290 C   0  0  0  0  0  0  0  0  0  0  0  0
    8.1330   11.7880    2.1830 S   0  0  0  0  0  0  0  0  0  0  0  0
    7.5060   13.0590    2.0960 O   0  0  0  0  0  0  0  0  0  0  0  0
    9.0490   11.3630    1.1820 O   0  0  0  0  0  0  0  0  0  0  0  0
   13.0440   13.8170    1.5010 C   0  0  0  0  0  0  0  0  0  0  0  0
   12.8930   12.5280    2.2650 C   0  0  0  0  0  0  0  0  0  0  0  0
   13.4390   12.4050    3.5300 C   0  0  0  0  0  0  0  0  0  0  0  0
   13.3000   11.2230    4.2320 C   0  0  0  0  0  0  0  0  0  0  0  0
   12.6160   10.1620    3.6690 C   0  0  0  0  0  0  0  0  0  0  0  0
   12.0690   10.2840    2.4050 C   0  0  0  0  0  0  0  0  0  0  0  0
   12.2070   11.4670    1.7040 C   0  0  0  0  0  0  0  0  0  0  0  0
  1 13  1  1  0  0  0
  1  9  1  0  0  0  0
  2  3  1  0  0  0  0
  2  1  1  0  0  0  0
  3  4  1  0  0  0  0
  4  5  1  0  0  0  0
  5  6  1  0  0  0  0
  6 25  1  0  0  0  0
  6  7  1  0  0  0  0
  8  7  2  0  0  0  0
  9  5  2  0  0  0  0
  9  8  1  0  0  0  0
 10 11  1  0  0  0  0
 12 13  1  0  0  0  0
 12 10  1  0  0  0  0
 13 14  1  0  0  0  0
 15 12  2  0  0  0  0
 16 10  1  0  0  0  0
 16 17  1  0  0  0  0
 17 18  1  0  0  0  0
 18 19  1  0  0  0  0
 19 22  1  0  0  0  0
 19 20  1  0  0  0  0
 22 21  1  0  0  0  0
 23 22  2  0  0  0  0
 24 22  2  0  0  0  0
 25 26  1  0  0  0  0
 26 27  1  0  0  0  0
 27 28  2  0  0  0  0
 29 28  1  0  0  0  0
 30 29  2  0  0  0  0
 31 26  2  0  0  0  0
 31 30  1  0  0  0  0
M  END
>  <MODEL>
1

>  <REMARK>
 VINA RESULT:      -5.3      0.000      0.000
  Name = ZINC27367243
                            x       y       z     vdW  Elec       q    Type
                         _______ _______ _______ _____ _____    ______ ____

>  <TORSDO>
F 8

>  <vina_score>
-5.3

$$$$
ZINC25820808
 OpenBabel01091701443D

 34 36  0  0  0  0  0  0  0  0999 V2000
   11.9480   12.8650    0.2550 C   0  0  0  0  0  0  0  0  0  0  0  0
   11.6990   11.8240   -0.3220 O   0  0  0  0  0  0  0  0  0  0  0  0
   12.2180   12.9320    4.4930 C   0  0  0  0  0  0  0  0  0  0  0  0
   11.1900   13.6070    3.8670 C   0  0  0  0  0  0  0  0  0  0  0  0
   11.0900   13.5920    2.4810 C   0  0  0  0  0  0  0  0  0  0  0  0
   12.0410   12.8890    1.7240 C   0  0  0  0  0  0  0  0  0  0  0  0
   13.0760   12.2100    2.3740 C   0  0  0  0  0  0  0  0  0  0  0  0
   13.1580   12.2360    3.7490 C   0  0  0  0  0  0  0  0  0  0  0  0
   14.2540   11.5170    4.4350 N   0  0  0  0  0  0  0  0  0  0  0  0
   14.8060   12.0230    5.3960 O   0  0  0  0  0  0  0  0  0  0  0  0
   14.6040   10.4210    4.0390 O   0  0  0  0  0  0  0  0  0  0  0  0
   10.0540   14.2650    1.8490 N   0  0  0  0  0  0  0  0  0  0  0  0
    9.7460   13.9730    0.9610 H   0  0  0  0  0  0  0  0  0  0  0  0
    9.4180   15.4120    2.5030 C   0  0  0  0  0  0  0  0  0  0  0  0
    9.6570   16.6720    1.6690 C   0  0  0  0  0  0  0  0  0  0  0  0
   10.1880   16.3050    0.3930 O   0  0  0  0  0  0  0  0  0  0  0  0
   11.0870   15.9590    0.5050 H   0  0  0  0  0  0  0  0  0  0  0  0
   12.1400   13.9970   -0.4520 O   0  0  0  0  0  0  0  0  0  0  0  0
   11.9680   13.9130   -1.8910 C   0  0  0  0  0  0  0  0  0  0  0  0
   10.7540   14.7080   -2.2990 C   0  0  0  0  0  0  0  0  0  0  0  0
   10.8880   15.8090   -2.7920 O   0  0  0  0  0  0  0  0  0  0  0  0
    9.4130   14.1510   -2.1040 C   0  0  0  0  0  0  0  0  0  0  0  0
    9.0700   13.0440   -1.2910 C   0  0  0  0  0  0  0  0  0  0  0  0
    7.7230   12.8720   -1.4000 C   0  0  0  0  0  0  0  0  0  0  0  0
    7.2290   13.8350   -2.2520 N   0  0  0  0  0  0  0  0  0  0  0  0
    6.2840   13.9370   -2.5090 H   0  0  0  0  0  0  0  0  0  0  0  0
    8.2370   14.6130   -2.6750 C   0  0  0  0  0  0  0  0  0  0  0  0
    6.9320   11.8340   -0.7240 C   0  0  0  0  0  0  0  0  0  0  0  0
    7.1650   11.5470    0.5720 N   0  0  0  0  0  0  0  0  0  0  0  0
    8.1800   12.1870    1.4220 C   0  0  0  0  0  0  0  0  0  0  0  0
    8.0970   11.5230    2.8120 C   0  0  0  0  0  0  0  0  0  0  0  0
    7.4350   10.1540    2.5030 C   0  0  0  0  0  0  0  0  0  0  0  0
    6.4500   10.5350    1.3700 C   0  0  0  0  0  0  0  0  0  0  0  0
    6.0660   11.2360   -1.3340 O   0  0  0  0  0  0  0  0  0  0  0  0
  1  6  1  0  0  0  0
  2  1  2  0  0  0  0
  4  3  1  0  0  0  0
  5  4  2  0  0  0  0
  6  7  2  0  0  0  0
  6  5  1  0  0  0  0
  7  8  1  0  0  0  0
  8  9  1  0  0  0  0
  8  3  2  0  0  0  0
  9 10  2  0  0  0  0
 11  9  2  0  0  0  0
 12  5  1  0  0  0  0
 12 14  1  0  0  0  0
 13 12  1  0  0  0  0
 15 14  1  0  0  0  0
 16 17  1  0  0  0  0
 16 15  1  0  0  0  0
 18  1  1  0  0  0  0
 19 18  1  0  0  0  0
 20 22  1  0  0  0  0
 20 19  1  0  0  0  0
 21 20  2  0  0  0  0
 22 23  1  0  0  0  0
 24 23  2  0  0  0  0
 24 28  1  0  0  0  0
 25 24  1  0  0  0  0
 26 25  1  0  0  0  0
 27 25  1  0  0  0  0
 27 22  2  0  0  0  0
 28 29  1  0  0  0  0
 29 33  1  0  0  0  0
 29 30  1  0  0  0  0
 30 31  1  0  0  0  0
 32 31  1  0  0  0  0
 33 32  1  0  0  0  0
 34 28  2  0  0  0  0
M  END
>  <MODEL>
1

>  <REMARK>
 VINA RESULT:      -5.3      0.000      0.000
  Name = ZINC25820808
                            x       y       z     vdW  Elec       q    Type
                         _______ _______ _______ _____ _____    ______ ____

>  <TORSDO>
F 11

>  <vina_score>
-5.3

$$$$
ZINC31971727
 OpenBabel01091701483D

 28 29  0  0  0  0  0  0  0  0999 V2000
    8.1050   11.5550    1.6190 C   0  0  0  0  0  0  0  0  0  0  0  0
    8.9210   12.1950    0.6990 C   0  0  0  0  0  0  0  0  0  0  0  0
   10.2860   12.2850    0.9280 C   0  0  0  0  0  0  0  0  0  0  0  0
   10.8360   11.7260    2.0810 C   0  0  0  0  0  0  0  0  0  0  0  0
   10.0160   11.0900    3.0020 C   0  0  0  0  0  0  0  0  0  0  0  0
    8.6530   11.0030    2.7710 C   0  0  0  0  0  0  0  0  0  0  0  0
   11.1120   12.9320   -0.0010 N   0  0  0  0  0  0  0  0  0  0  0  0
   11.6510   12.4040   -0.6330 H   0  0  0  0  0  0  0  0  0  0  0  0
   11.1700   14.2780   -0.0280 C   0  0  0  0  0  0  0  0  0  0  0  0
   10.4330   14.9310    0.6800 O   0  0  0  0  0  0  0  0  0  0  0  0
   12.1500   14.9720   -0.9410 C   0  0  0  0  0  0  0  0  0  0  0  0
   11.9610   14.4610   -2.3710 C   0  0  0  0  0  0  0  0  0  0  0  0
   10.4680   14.2820   -2.6550 C   0  0  0  0  0  0  0  0  0  0  0  0
   10.2850   13.2320   -3.6660 N   0  0  0  0  0  0  0  0  0  0  0  0
   10.6750   13.5440   -4.5550 H   0  0  0  0  0  0  0  0  0  0  0  0
   10.7630   12.3830   -3.3640 H   0  0  0  0  0  0  0  0  0  0  0  0
    9.2900   13.0380   -3.7790 H   0  0  0  0  0  0  0  0  0  0  0  0
   12.2170   11.8100    2.3110 N   0  0  0  0  0  0  0  0  0  0  0  0
   12.8360   11.2360    1.8040 H   0  0  0  0  0  0  0  0  0  0  0  0
   12.6950   12.6770    3.2260 C   0  0  0  0  0  0  0  0  0  0  0  0
   11.9450   13.4530    3.7770 O   0  0  0  0  0  0  0  0  0  0  0  0
   14.1640   12.6810    3.5630 C   0  0  0  0  0  0  0  0  0  0  0  0
   14.6740   11.5970    4.5140 C   0  0  0  0  0  0  0  0  0  0  0  0
   14.5600   13.0440    4.9950 C   0  0  0  0  0  0  0  0  0  0  0  0
    6.3360   10.5470    0.3870 C   0  0  0  0  0  0  0  0  0  0  0  0
    6.7650   11.4670    1.3930 O   0  0  0  0  0  0  0  0  0  0  0  0
    7.8500   10.3750    3.6730 O   0  0  0  0  0  0  0  0  0  0  0  0
    8.3900   10.1540    4.9780 C   0  0  0  0  0  0  0  0  0  0  0  0
  1  6  2  0  0  0  0
  2  3  2  0  0  0  0
  2  1  1  0  0  0  0
  3  4  1  0  0  0  0
  4 18  1  0  0  0  0
  4  5  2  0  0  0  0
  6  5  1  0  0  0  0
  6 27  1  0  0  0  0
  7  3  1  0  0  0  0
  8  7  1  0  0  0  0
  9  7  1  0  0  0  0
  9 10  2  0  0  0  0
 11  9  1  0  0  0  0
 12 11  1  0  0  0  0
 13 12  1  0  0  0  0
 14 16  1  0  0  0  0
 14 13  1  0  0  0  0
 15 14  1  0  0  0  0
 17 14  1  0  0  0  0
 18 20  1  0  0  0  0
 19 18  1  0  0  0  0
 20 22  1  0  0  0  0
 20 21  2  0  0  0  0
 22 23  1  0  0  0  0
 22 24  1  0  0  0  0
 23 24  1  0  0  0  0
 25 26  1  0  0  0  0
 26  1  1  0  0  0  0
 27 28  1  0  0  0  0
M  END
>  <MODEL>
1

>  <REMARK>
 VINA RESULT:      -5.3      0.000      0.000
  Name = ZINC31971727
                            x       y       z     vdW  Elec       q    Type
                         _______ _______ _______ _____ _____    ______ ____

>  <TORSDO>
F 9

>  <vina_score>
-5.3

$$$$
ZINC30581710
 OpenBabel01091701393D

 31 33  0  0  1  0  0  0  0  0999 V2000
   11.9740   11.7980    3.1510 C   0  0  1  0  0  0  0  0  0  0  0  0
   10.6180   11.2750    3.5790 C   0  0  0  0  0  0  0  0  0  0  0  0
   10.0640   10.7500    2.4690 N   0  0  0  0  0  0  0  0  0  0  0  0
   10.8710   10.8700    1.4090 C   0  0  0  0  0  0  0  0  0  0  0  0
   10.5900   10.4700    0.2960 O   0  0  0  0  0  0  0  0  0  0  0  0
   10.1340   11.3170    4.6900 O   0  0  0  0  0  0  0  0  0  0  0  0
   12.0310   11.4790    1.7140 N   0  0  0  0  0  0  0  0  0  0  0  0
    8.7960   10.1530    2.4290 N   0  0  0  0  0  0  0  0  0  0  0  0
    8.7060    9.1800    2.5490 H   0  0  0  0  0  0  0  0  0  0  0  0
    7.7010   10.9110    2.2260 C   0  0  0  0  0  0  0  0  0  0  0  0
    7.8110   12.1100    2.0790 O   0  0  0  0  0  0  0  0  0  0  0  0
    6.3370   10.2690    2.1830 C   0  0  0  0  0  0  0  0  0  0  0  0
    5.6360   10.6480    0.8770 C   0  0  0  0  0  0  0  0  0  0  0  0
    6.7110   10.2450   -0.5260 S   0  0  0  0  0  0  0  0  0  0  0  0
    6.4220   11.5940   -1.7030 C   0  0  0  0  0  0  0  0  0  0  0  0
    7.5180   12.6200   -1.5710 C   0  0  0  0  0  0  0  0  0  0  0  0
    8.7020   12.2770   -1.0270 N   0  0  0  0  0  0  0  0  0  0  0  0
    9.4170   12.9480   -0.9410 H   0  0  0  0  0  0  0  0  0  0  0  0
    8.8510   11.3560   -0.7140 H   0  0  0  0  0  0  0  0  0  0  0  0
    7.3340   13.7560   -1.9560 O   0  0  0  0  0  0  0  0  0  0  0  0
   12.0610   13.3110    3.3700 C   0  0  0  0  0  0  0  0  0  0  0  0
   12.2240   14.7050   -1.1020 C   0  0  0  0  0  0  0  0  0  0  0  0
   11.0510   15.3180   -1.5210 C   0  0  0  0  0  0  0  0  0  0  0  0
    9.9890   15.4670   -0.6570 C   0  0  0  0  0  0  0  0  0  0  0  0
   10.0910   14.9990    0.6500 C   0  0  0  0  0  0  0  0  0  0  0  0
   11.2830   14.3840    1.0710 C   0  0  0  0  0  0  0  0  0  0  0  0
   11.0720   14.0060    2.4700 C   0  0  0  0  0  0  0  0  0  0  0  0
    9.8330   14.4020    2.8010 C   0  0  0  0  0  0  0  0  0  0  0  0
    9.2310   14.9980    1.7260 N   0  0  0  0  0  0  0  0  0  0  0  0
    8.3190   15.3690    1.7220 H   0  0  0  0  0  0  0  0  0  0  0  0
   12.3450   14.2370    0.1760 C   0  0  0  0  0  0  0  0  0  0  0  0
  1 21  1  6  0  0  0
  1  2  1  0  0  0  0
  2  6  2  0  0  0  0
  3  2  1  0  0  0  0
  4  7  1  0  0  0  0
  4  3  1  0  0  0  0
  5  4  2  0  0  0  0
  7  1  1  0  0  0  0
  8  3  1  0  0  0  0
  8  9  1  0  0  0  0
 10  8  1  0  0  0  0
 11 10  2  0  0  0  0
 12 10  1  0  0  0  0
 13 12  1  0  0  0  0
 14 13  1  0  0  0  0
 15 16  1  0  0  0  0
 15 14  1  0  0  0  0
 16 17  1  0  0  0  0
 17 18  1  0  0  0  0
 17 19  1  0  0  0  0
 20 16  2  0  0  0  0
 22 31  1  0  0  0  0
 23 22  2  0  0  0  0
 23 24  1  0  0  0  0
 24 25  2  0  0  0  0
 25 26  1  0  0  0  0
 25 29  1  0  0  0  0
 26 27  1  0  0  0  0
 27 28  2  0  0  0  0
 27 21  1  0  0  0  0
 29 28  1  0  0  0  0
 30 29  1  0  0  0  0
 31 26  2  0  0  0  0
M  END
>  <MODEL>
1

>  <REMARK>
 VINA RESULT:      -5.2      0.000      0.000
  Name = ZINC30581710
                            x       y       z     vdW  Elec       q    Type
                         _______ _______ _______ _____ _____    ______ ____

>  <TORSDO>
F 8

>  <vina_score>
-5.2

$$$$
ZINC02375827
 OpenBabel01091701393D

 26 26  0  0  1  0  0  0  0  0999 V2000
   10.2520   12.6180    0.1650 C   0  0  0  0  0  0  0  0  0  0  0  0
   10.4720   13.3020    1.2470 N   0  0  0  0  0  0  0  0  0  0  0  0
   12.1530   14.0280   -1.4830 C   0  0  0  0  0  0  0  0  0  0  0  0
   10.6930   13.9750   -1.8530 C   0  0  0  0  0  0  0  0  0  0  0  0
    9.8040   13.3020   -1.0590 C   0  0  0  0  0  0  0  0  0  0  0  0
    8.3900   13.2750   -1.4650 C   0  0  0  0  0  0  0  0  0  0  0  0
    8.0290   13.9210   -2.5940 N   0  0  0  0  0  0  0  0  0  0  0  0
    7.0870   13.9200   -2.8790 H   0  0  0  0  0  0  0  0  0  0  0  0
    8.9510   14.5650   -3.3320 C   0  0  0  0  0  0  0  0  0  0  0  0
    8.6000   15.1350   -4.3470 O   0  0  0  0  0  0  0  0  0  0  0  0
    7.5630   12.6860   -0.7950 O   0  0  0  0  0  0  0  0  0  0  0  0
   10.2460   14.5980   -2.9810 N   0  0  0  0  0  0  0  0  0  0  0  0
   10.8880   15.0810   -3.5510 H   0  0  0  0  0  0  0  0  0  0  0  0
   10.8980   12.6520    2.4130 N   0  0  0  0  0  0  0  0  0  0  0  0
   10.2950   12.5880    3.1890 H   0  0  0  0  0  0  0  0  0  0  0  0
   12.1330   12.1150    2.4720 C   0  0  0  0  0  0  0  0  0  0  0  0
   12.8760   12.1960    1.5170 O   0  0  0  0  0  0  0  0  0  0  0  0
   12.5910   11.4170    3.7260 C   0  0  1  0  0  0  0  0  0  0  0  0
   11.6320   10.3470    4.0550 N   0  0  0  0  0  0  0  0  0  0  0  0
   11.8540    9.9610    4.9730 H   0  0  0  0  0  0  0  0  0  0  0  0
   10.6860   10.7300    4.0680 H   0  0  0  0  0  0  0  0  0  0  0  0
   11.6910    9.6100    3.3530 H   0  0  0  0  0  0  0  0  0  0  0  0
   13.9870   10.8320    3.5050 C   0  0  0  0  0  0  0  0  0  0  0  0
   14.4670   10.1530    4.7900 C   0  0  0  0  0  0  0  0  0  0  0  0
   15.7330   11.1830    5.5800 S   0  0  0  0  0  0  0  0  0  0  0  0
   15.2500   12.8780    5.1540 C   0  0  0  0  0  0  0  0  0  0  0  0
  1  2  2  0  0  0  0
  2 14  1  0  0  0  0
  4  3  1  0  0  0  0
  4  5  2  0  0  0  0
  5  1  1  0  0  0  0
  6  5  1  0  0  0  0
  6 11  2  0  0  0  0
  7  6  1  0  0  0  0
  8  7  1  0  0  0  0
  9 12  1  0  0  0  0
  9  7  1  0  0  0  0
 10  9  2  0  0  0  0
 12  4  1  0  0  0  0
 13 12  1  0  0  0  0
 14 16  1  0  0  0  0
 14 15  1  0  0  0  0
 17 16  2  0  0  0  0
 18 16  1  6  0  0  0
 18 19  1  0  0  0  0
 19 21  1  0  0  0  0
 19 20  1  0  0  0  0
 22 19  1  0  0  0  0
 23 18  1  0  0  0  0
 23 24  1  0  0  0  0
 24 25  1  0  0  0  0
 26 25  1  0  0  0  0
M  END
>  <MODEL>
1

>  <REMARK>
 VINA RESULT:      -5.0      0.000      0.000
  Name = ZINC02375827
                            x       y       z     vdW  Elec       q    Type
                         _______ _______ _______ _____ _____    ______ ____

>  <TORSDO>
F 7

>  <vina_score>
-5.0

$$$$
ZINC13693206
 OpenBabel01091701453D

 29 31  0  0  1  0  0  0  0  0999 V2000
    6.8500   11.6750    0.7640 C   0  0  2  0  0  0  0  0  0  0  0  0
    6.9530   11.1590   -0.6580 C   0  0  0  0  0  0  0  0  0  0  0  0
    7.7110   12.0360   -1.3110 N   0  0  0  0  0  0  0  0  0  0  0  0
    8.1170   13.0230   -0.5410 C   0  0  0  0  0  0  0  0  0  0  0  0
    6.4430   10.1530   -1.1100 O   0  0  0  0  0  0  0  0  0  0  0  0
    7.6540   12.9110    0.7340 N   0  0  0  0  0  0  0  0  0  0  0  0
    7.8230   13.5270    1.4820 H   0  0  0  0  0  0  0  0  0  0  0  0
    8.9060   14.0460   -0.9730 N   0  0  0  0  0  0  0  0  0  0  0  0
    9.3800   14.0970   -2.3650 C   0  0  0  0  0  0  0  0  0  0  0  0
   10.8980   14.3070   -2.3590 C   0  0  0  0  0  0  0  0  0  0  0  0
   11.2080   15.5090   -1.5560 N   0  0  0  0  0  0  0  0  0  0  0  0
   10.6740   16.2970   -1.9230 H   0  0  0  0  0  0  0  0  0  0  0  0
   12.6500   15.8180   -1.6480 C   0  0  0  0  0  0  0  0  0  0  0  0
   10.8280   15.2930   -0.1420 C   0  0  0  0  0  0  0  0  0  0  0  0
    9.3070   15.1280   -0.0620 C   0  0  0  0  0  0  0  0  0  0  0  0
    7.4430   10.6690    1.7520 C   0  0  0  0  0  0  0  0  0  0  0  0
    9.2360   12.1850    2.5290 N   0  0  0  0  0  0  0  0  0  0  0  0
    8.5460   12.8640    2.7000 H   0  0  0  0  0  0  0  0  0  0  0  0
    8.8940   10.9970    1.9920 C   0  0  0  0  0  0  0  0  0  0  0  0
    9.7540   10.1930    1.7020 O   0  0  0  0  0  0  0  0  0  0  0  0
   13.2230   12.9810    3.4620 C   0  0  0  0  0  0  0  0  0  0  0  0
   12.8820   12.5410    2.1900 C   0  0  0  0  0  0  0  0  0  0  0  0
   11.5630   12.2770    1.8800 C   0  0  0  0  0  0  0  0  0  0  0  0
   10.5760   12.4520    2.8420 C   0  0  0  0  0  0  0  0  0  0  0  0
   10.9170   12.8970    4.1130 C   0  0  0  0  0  0  0  0  0  0  0  0
   12.2370   13.1550    4.4230 C   0  0  0  0  0  0  0  0  0  0  0  0
   14.5220   13.2390    3.7650 O   0  0  0  0  0  0  0  0  0  0  0  0
   15.4240   11.4240    5.0810 C   0  0  0  0  0  0  0  0  0  0  0  0
   14.9650   12.8830    5.0760 C   0  0  0  0  0  0  0  0  0  0  0  0
  1 16  1  1  0  0  0
  2  1  1  0  0  0  0
  3  2  1  0  0  0  0
  3  4  2  0  0  0  0
  4  6  1  0  0  0  0
  5  2  2  0  0  0  0
  6  1  1  0  0  0  0
  6  7  1  0  0  0  0
  8  4  1  0  0  0  0
  8 15  1  0  0  0  0
  9 10  1  0  0  0  0
  9  8  1  0  0  0  0
 10 11  1  0  0  0  0
 11 14  1  0  0  0  0
 12 11  1  0  0  0  0
 13 11  1  0  0  0  0
 14 15  1  0  0  0  0
 16 19  1  0  0  0  0
 17 18  1  0  0  0  0
 17 24  1  0  0  0  0
 19 17  1  0  0  0  0
 20 19  2  0  0  0  0
 21 27  1  0  0  0  0
 21 26  2  0  0  0  0
 22 21  1  0  0  0  0
 23 22  2  0  0  0  0
 23 24  1  0  0  0  0
 24 25  2  0  0  0  0
 25 26  1  0  0  0  0
 27 29  1  0  0  0  0
 29 28  1  0  0  0  0
M  END
>  <MODEL>
1

>  <REMARK>
 VINA RESULT:      -5.0      0.000      0.000
  Name = ZINC13693206
                            x       y       z     vdW  Elec       q    Type
                         _______ _______ _______ _____ _____    ______ ____

>  <TORSDO>
F 6

>  <vina_score>
-5.0

$$$$
ZINC06444932
 OpenBabel01091701303D

 33 35  0  0  1  0  0  0  0  0999 V2000
   11.2430   16.3400   -0.8350 C   0  0  0  0  0  0  0  0  0  0  0  0
   10.3960   15.1650   -1.0570 N   0  0  0  0  0  0  0  0  0  0  0  0
    9.7800   14.5430    0.0170 C   0  0  0  0  0  0  0  0  0  0  0  0
    8.9810   13.4300   -0.2210 C   0  0  0  0  0  0  0  0  0  0  0  0
    8.5010   13.0210    1.0150 N   0  0  0  0  0  0  0  0  0  0  0  0
    9.0130   13.8790    1.9370 C   0  0  0  0  0  0  0  0  0  0  0  0
    8.8210   12.9700   -1.5400 C   0  0  0  0  0  0  0  0  0  0  0  0
    9.4470   13.6160   -2.5450 N   0  0  0  0  0  0  0  0  0  0  0  0
    9.2840   13.1400   -3.9210 C   0  0  0  0  0  0  0  0  0  0  0  0
    8.1270   11.9960   -1.7730 O   0  0  0  0  0  0  0  0  0  0  0  0
    9.7670   14.7730    1.3320 N   0  0  0  0  0  0  0  0  0  0  0  0
   10.2220   14.6880   -2.3030 C   0  0  0  0  0  0  0  0  0  0  0  0
   10.7740   15.2430   -3.2330 O   0  0  0  0  0  0  0  0  0  0  0  0
    8.7810   13.8220    3.2930 N   0  0  0  0  0  0  0  0  0  0  0  0
    8.0140   14.3010    3.6810 H   0  0  0  0  0  0  0  0  0  0  0  0
    9.6760   13.0490    4.1580 C   0  0  0  0  0  0  0  0  0  0  0  0
    8.8740   11.9700    4.8870 C   0  0  0  0  0  0  0  0  0  0  0  0
    9.7090   10.8340    5.1220 O   0  0  0  0  0  0  0  0  0  0  0  0
    9.2570   10.0320    4.8170 H   0  0  0  0  0  0  0  0  0  0  0  0
    7.6140   11.8840    1.2760 C   0  0  0  0  0  0  0  0  0  0  0  0
    8.4420   10.6010    1.3670 C   0  0  2  0  0  0  0  0  0  0  0  0
    8.4860   10.1570    2.7240 O   0  0  0  0  0  0  0  0  0  0  0  0
    9.4080   10.1260    3.0240 H   0  0  0  0  0  0  0  0  0  0  0  0
    9.8650   10.8770    0.8740 C   0  0  0  0  0  0  0  0  0  0  0  0
   10.8010   10.2150    1.7270 O   0  0  0  0  0  0  0  0  0  0  0  0
   11.7170   10.9950    2.3600 C   0  0  0  0  0  0  0  0  0  0  0  0
   12.0810   12.2180    1.8170 C   0  0  0  0  0  0  0  0  0  0  0  0
   13.0080   13.0120    2.4630 C   0  0  0  0  0  0  0  0  0  0  0  0
   13.5820   12.5830    3.6500 C   0  0  0  0  0  0  0  0  0  0  0  0
   13.2220   11.3580    4.1910 C   0  0  0  0  0  0  0  0  0  0  0  0
   12.2920   10.5650    3.5460 C   0  0  0  0  0  0  0  0  0  0  0  0
   14.4990   13.3640    4.2830 O   0  0  0  0  0  0  0  0  0  0  0  0
   15.4660   12.6990    5.0980 C   0  0  0  0  0  0  0  0  0  0  0  0
  2  1  1  0  0  0  0
  2  3  1  0  0  0  0
  3 11  1  0  0  0  0
  4  3  2  0  0  0  0
  4  5  1  0  0  0  0
  5 20  1  0  0  0  0
  5  6  1  0  0  0  0
  6 14  1  0  0  0  0
  7  4  1  0  0  0  0
  8 12  1  0  0  0  0
  8  7  1  0  0  0  0
  9  8  1  0  0  0  0
 10  7  2  0  0  0  0
 11  6  2  0  0  0  0
 12  2  1  0  0  0  0
 13 12  2  0  0  0  0
 14 15  1  0  0  0  0
 14 16  1  0  0  0  0
 16 17  1  0  0  0  0
 17 18  1  0  0  0  0
 19 18  1  0  0  0  0
 20 21  1  0  0  0  0
 21 24  1  1  0  0  0
 21 22  1  0  0  0  0
 22 23  1  0  0  0  0
 24 25  1  0  0  0  0
 25 26  1  0  0  0  0
 26 31  1  0  0  0  0
 27 26  2  0  0  0  0
 27 28  1  0  0  0  0
 28 29  2  0  0  0  0
 29 30  1  0  0  0  0
 29 32  1  0  0  0  0
 31 30  2  0  0  0  0
 32 33  1  0  0  0  0
M  END
>  <MODEL>
1

>  <REMARK>
 VINA RESULT:      -5.0      0.000      0.000
  Name = ZINC06444932
                            x       y       z     vdW  Elec       q    Type
                         _______ _______ _______ _____ _____    ______ ____

>  <TORSDO>
F 11

>  <vina_score>
-5.0

$$$$
ZINC22962643
 OpenBabel01091701313D

 30 31  0  0  0  0  0  0  0  0999 V2000
    9.5600   11.9290    1.5430 C   0  0  0  0  0  0  0  0  0  0  0  0
    9.6250   11.9790    0.1650 C   0  0  0  0  0  0  0  0  0  0  0  0
    8.4700   11.8390   -0.5670 N   0  0  0  0  0  0  0  0  0  0  0  0
    7.2900   11.6490    0.0520 C   0  0  0  0  0  0  0  0  0  0  0  0
    7.2070   11.6020    1.3930 N   0  0  0  0  0  0  0  0  0  0  0  0
    6.3290   11.4690    1.8210 H   0  0  0  0  0  0  0  0  0  0  0  0
    6.2810   11.5210   -0.6140 O   0  0  0  0  0  0  0  0  0  0  0  0
    8.3080   11.7340    2.1570 C   0  0  0  0  0  0  0  0  0  0  0  0
    8.2210   11.6860    3.3720 O   0  0  0  0  0  0  0  0  0  0  0  0
   11.3350   13.2710    2.4120 C   0  0  0  0  0  0  0  0  0  0  0  0
   10.7260   12.0700    2.3220 N   0  0  0  0  0  0  0  0  0  0  0  0
   12.3860   13.3750    3.0130 O   0  0  0  0  0  0  0  0  0  0  0  0
   10.9320   16.1490   -1.4880 C   0  0  0  0  0  0  0  0  0  0  0  0
   10.5300   15.8290   -0.0720 C   0  0  0  0  0  0  0  0  0  0  0  0
    9.6160   16.6420    0.5790 C   0  0  0  0  0  0  0  0  0  0  0  0
    9.2470   16.3430    1.8820 C   0  0  0  0  0  0  0  0  0  0  0  0
    9.8080   15.2300    2.4890 C   0  0  0  0  0  0  0  0  0  0  0  0
   10.7240   14.4610    1.7760 C   0  0  0  0  0  0  0  0  0  0  0  0
   11.0490   14.7820    0.5290 N   0  0  0  0  0  0  0  0  0  0  0  0
   11.2780   10.9140    3.0320 C   0  0  0  0  0  0  0  0  0  0  0  0
   12.2310   10.1540    2.1080 C   0  0  0  0  0  0  0  0  0  0  0  0
   13.5680   10.2730    2.6010 O   0  0  0  0  0  0  0  0  0  0  0  0
   13.6770   10.1530    4.0200 C   0  0  0  0  0  0  0  0  0  0  0  0
   10.8300   12.1680   -0.4670 N   0  0  0  0  0  0  0  0  0  0  0  0
   11.4430   11.4080   -0.5950 H   0  0  0  0  0  0  0  0  0  0  0  0
   11.0820   13.0630   -0.7920 H   0  0  0  0  0  0  0  0  0  0  0  0
    8.5250   11.8900   -2.0300 C   0  0  0  0  0  0  0  0  0  0  0  0
    8.9700   13.2840   -2.4760 C   0  0  0  0  0  0  0  0  0  0  0  0
    7.8240   14.2760   -2.2640 C   0  0  0  0  0  0  0  0  0  0  0  0
    9.3470   13.2500   -3.9570 C   0  0  0  0  0  0  0  0  0  0  0  0
  1  8  1  0  0  0  0
  1 11  1  0  0  0  0
  2  1  2  0  0  0  0
  3  4  1  0  0  0  0
  3  2  1  0  0  0  0
  4  5  1  0  0  0  0
  5  6  1  0  0  0  0
  5  8  1  0  0  0  0
  7  4  2  0  0  0  0
  8  9  2  0  0  0  0
 10 12  2  0  0  0  0
 11 10  1  0  0  0  0
 11 20  1  0  0  0  0
 13 14  1  0  0  0  0
 14 19  2  0  0  0  0
 14 15  1  0  0  0  0
 15 16  2  0  0  0  0
 16 17  1  0  0  0  0
 18 10  1  0  0  0  0
 18 17  2  0  0  0  0
 19 18  1  0  0  0  0
 21 22  1  0  0  0  0
 21 20  1  0  0  0  0
 22 23  1  0  0  0  0
 24  2  1  0  0  0  0
 25 24  1  0  0  0  0
 26 24  1  0  0  0  0
 27  3  1  0  0  0  0
 28 29  1  0  0  0  0
 28 27  1  0  0  0  0
 30 28  1  0  0  0  0
M  END
>  <MODEL>
1

>  <REMARK>
 VINA RESULT:      -5.0      0.000      0.000
  Name = ZINC22962643
                            x       y       z     vdW  Elec       q    Type
                         _______ _______ _______ _____ _____    ______ ____

>  <TORSDO>
F 8

>  <vina_score>
-5.0

$$$$
ZINC01606538
 OpenBabel01091701303D

 23 23  0  0  0  0  0  0  0  0999 V2000
   15.4520   12.5540    5.1460 C   0  0  0  0  0  0  0  0  0  0  0  0
   14.2710   11.9710    4.4140 C   0  0  0  0  0  0  0  0  0  0  0  0
   13.5600   12.7600    3.5260 C   0  0  0  0  0  0  0  0  0  0  0  0
   12.4650   12.1990    2.8470 C   0  0  0  0  0  0  0  0  0  0  0  0
   12.1410   10.8610    3.1080 C   0  0  0  0  0  0  0  0  0  0  0  0
   12.9040   10.1530    4.0150 C   0  0  0  0  0  0  0  0  0  0  0  0
   13.9250   10.7180    4.6310 N   0  0  0  0  0  0  0  0  0  0  0  0
   13.9180   14.0520    3.3090 O   0  0  0  0  0  0  0  0  0  0  0  0
   13.2580   14.7100    3.2060 H   0  0  0  0  0  0  0  0  0  0  0  0
   11.6780   12.9940    1.8870 C   0  0  0  0  0  0  0  0  0  0  0  0
   12.2270   13.4120    0.7870 N   0  0  0  0  0  0  0  0  0  0  0  0
   11.4800   14.1680   -0.1260 N   0  0  0  0  0  0  0  0  0  0  0  0
   11.1140   15.0410    0.1420 H   0  0  0  0  0  0  0  0  0  0  0  0
   11.2630   13.6990   -1.3710 C   0  0  0  0  0  0  0  0  0  0  0  0
   11.7150   12.6230   -1.7010 O   0  0  0  0  0  0  0  0  0  0  0  0
   10.4590   14.5120   -2.3530 C   0  0  0  0  0  0  0  0  0  0  0  0
    9.2260   13.7900   -2.6920 N   0  0  0  0  0  0  0  0  0  0  0  0
    8.9440   12.7870   -1.6570 C   0  0  0  0  0  0  0  0  0  0  0  0
    9.3900   13.1230   -3.9900 C   0  0  0  0  0  0  0  0  0  0  0  0
    8.1080   14.7410   -2.7700 C   0  0  0  0  0  0  0  0  0  0  0  0
   10.9780   10.2050    2.4110 C   0  0  0  0  0  0  0  0  0  0  0  0
   11.1940   10.2300    0.9980 O   0  0  0  0  0  0  0  0  0  0  0  0
   11.8250    9.5350    0.7560 H   0  0  0  0  0  0  0  0  0  0  0  0
  2  7  1  0  0  0  0
  2  1  1  0  0  0  0
  3  2  2  0  0  0  0
  4  5  2  0  0  0  0
  4  3  1  0  0  0  0
  5  6  1  0  0  0  0
  6  7  2  0  0  0  0
  8  3  1  0  0  0  0
  9  8  1  0  0  0  0
 10  4  1  0  0  0  0
 11 10  2  0  0  0  0
 12 13  1  0  0  0  0
 12 11  1  0  0  0  0
 14 12  1  0  0  0  0
 15 14  2  0  0  0  0
 16 14  1  0  0  0  0
 17 16  1  0  0  0  0
 17 18  1  0  0  0  0
 19 17  1  0  0  0  0
 20 17  1  0  0  0  0
 21  5  1  0  0  0  0
 22 21  1  0  0  0  0
 23 22  1  0  0  0  0
M  END
>  <MODEL>
1

>  <REMARK>
 VINA RESULT:      -5.0      0.000      0.000
  Name = ZINC01606538
                            x       y       z     vdW  Elec       q    Type
                         _______ _______ _______ _____ _____    ______ ____

>  <TORSDO>
F 7

>  <vina_score>
-5.0

$$$$
ZINC06414339
 OpenBabel01091701393D

 34 36  0  0  1  0  0  0  0  0999 V2000
    8.6240   14.3680   -2.4680 C   0  0  1  0  0  0  0  0  0  0  0  0
    7.3350   14.8020   -2.0300 O   0  0  0  0  0  0  0  0  0  0  0  0
    6.8490   14.0500   -1.6550 H   0  0  0  0  0  0  0  0  0  0  0  0
    9.7060   15.1220   -1.6930 C   0  0  0  0  0  0  0  0  0  0  0  0
   12.1830   13.5360    1.3400 N   0  0  0  0  0  0  0  0  0  0  0  0
   10.7540   13.7110    1.6380 C   0  0  0  0  0  0  0  0  0  0  0  0
   10.1490   14.7130    0.6530 C   0  0  0  0  0  0  0  0  0  0  0  0
   10.3300   14.1980   -0.7220 N   0  0  0  0  0  0  0  0  0  0  0  0
    9.8790   13.2850   -0.7960 H   0  0  0  0  0  0  0  0  0  0  0  0
   11.7700   14.0480   -1.0180 C   0  0  0  0  0  0  0  0  0  0  0  0
   12.3750   13.0470   -0.0320 C   0  0  0  0  0  0  0  0  0  0  0  0
   13.9870   10.9880    4.1000 C   0  0  0  0  0  0  0  0  0  0  0  0
   13.3430   10.4620    2.9910 C   0  0  0  0  0  0  0  0  0  0  0  0
   12.7440   11.3050    2.0750 C   0  0  0  0  0  0  0  0  0  0  0  0
   12.7880   12.6810    2.2670 C   0  0  0  0  0  0  0  0  0  0  0  0
   13.4310   13.2060    3.3800 C   0  0  0  0  0  0  0  0  0  0  0  0
   14.0300   12.3610    4.2940 C   0  0  0  0  0  0  0  0  0  0  0  0
   15.6970   10.6710    5.7240 C   0  0  0  0  0  0  0  0  0  0  0  0
   14.5760   10.1570    5.0020 O   0  0  0  0  0  0  0  0  0  0  0  0
    8.7680   12.8660   -2.2160 C   0  0  0  0  0  0  0  0  0  0  0  0
    7.6790   12.4100   -1.4110 O   0  0  0  0  0  0  0  0  0  0  0  0
    7.9760   11.9750   -0.1610 C   0  0  0  0  0  0  0  0  0  0  0  0
    9.0860   11.1630    0.0440 C   0  0  0  0  0  0  0  0  0  0  0  0
    9.3940   10.7230    1.3130 C   0  0  0  0  0  0  0  0  0  0  0  0
    8.5830   11.0860    2.3920 C   0  0  0  0  0  0  0  0  0  0  0  0
    7.4670   11.8980    2.1800 C   0  0  0  0  0  0  0  0  0  0  0  0
    7.1680   12.3380    0.9100 C   0  0  0  0  0  0  0  0  0  0  0  0
    8.9080   10.6120    3.7520 C   0  0  0  0  0  0  0  0  0  0  0  0
   10.1880   10.5920    4.1710 N   0  0  0  0  0  0  0  0  0  0  0  0
   10.9080   10.8930    3.5700 H   0  0  0  0  0  0  0  0  0  0  0  0
    8.0190   10.2400    4.4940 O   0  0  0  0  0  0  0  0  0  0  0  0
   10.4880   10.1530    5.4300 N   0  0  0  0  0  0  0  0  0  0  0  0
    9.8990   10.6370    6.1080 H   0  0  0  0  0  0  0  0  0  0  0  0
   10.3200    9.1490    5.4890 H   0  0  0  0  0  0  0  0  0  0  0  0
  1 20  1  1  0  0  0
  1  2  1  0  0  0  0
  1  4  1  0  0  0  0
  2  3  1  0  0  0  0
  4  8  1  0  0  0  0
  5  6  1  0  0  0  0
  5 15  1  0  0  0  0
  7  6  1  0  0  0  0
  8  7  1  0  0  0  0
  9  8  1  0  0  0  0
 10  8  1  0  0  0  0
 10 11  1  0  0  0  0
 11  5  1  0  0  0  0
 12 17  1  0  0  0  0
 12 19  1  0  0  0  0
 13 12  2  0  0  0  0
 14 15  2  0  0  0  0
 14 13  1  0  0  0  0
 15 16  1  0  0  0  0
 16 17  2  0  0  0  0
 19 18  1  0  0  0  0
 20 21  1  0  0  0  0
 21 22  1  0  0  0  0
 22 23  2  0  0  0  0
 22 27  1  0  0  0  0
 23 24  1  0  0  0  0
 24 25  2  0  0  0  0
 25 28  1  0  0  0  0
 26 25  1  0  0  0  0
 27 26  2  0  0  0  0
 28 29  1  0  0  0  0
 28 31  2  0  0  0  0
 29 32  1  0  0  0  0
 30 29  1  0  0  0  0
 32 34  1  0  0  0  0
 32 33  1  0  0  0  0
M  END
>  <MODEL>
1

>  <REMARK>
 VINA RESULT:      -4.9      0.000      0.000
  Name = ZINC06414339
                            x       y       z     vdW  Elec       q    Type
                         _______ _______ _______ _____ _____    ______ ____

>  <TORSDO>
F 10

>  <vina_score>
-4.9

$$$$
ZINC29665193
 OpenBabel01091701503D

 35 38  0  0  0  0  0  0  0  0999 V2000
   12.9120   14.6130    0.6950 S   0  0  0  0  0  0  0  0  0  0  0  0
   11.3030   11.6820    2.7200 C   0  0  0  0  0  0  0  0  0  0  0  0
   12.1460   11.0580    1.9280 N   0  0  0  0  0  0  0  0  0  0  0  0
   12.7590   11.9080    1.1830 N   0  0  0  0  0  0  0  0  0  0  0  0
   12.3520   13.1270    1.4580 C   0  0  0  0  0  0  0  0  0  0  0  0
   11.4090   13.0270    2.4430 N   0  0  0  0  0  0  0  0  0  0  0  0
    8.6410   10.1890    4.7360 C   0  0  0  0  0  0  0  0  0  0  0  0
    9.0930   10.7750    3.5380 C   0  0  0  0  0  0  0  0  0  0  0  0
   10.4130   11.0610    3.7130 C   0  0  0  0  0  0  0  0  0  0  0  0
   10.7610   10.6810    4.9590 O   0  0  0  0  0  0  0  0  0  0  0  0
    9.6920   10.1540    5.5790 C   0  0  0  0  0  0  0  0  0  0  0  0
   10.6660   14.1220    3.0710 C   0  0  0  0  0  0  0  0  0  0  0  0
    9.4500   14.4740    2.2100 C   0  0  0  0  0  0  0  0  0  0  0  0
    9.4320   15.9590    1.9510 C   0  0  0  0  0  0  0  0  0  0  0  0
    9.6740   16.4290    0.7110 N   0  0  0  0  0  0  0  0  0  0  0  0
    9.6620   17.3980    0.5410 H   0  0  0  0  0  0  0  0  0  0  0  0
    9.8630   15.8030   -0.0250 H   0  0  0  0  0  0  0  0  0  0  0  0
    9.1990   16.7300    2.8570 O   0  0  0  0  0  0  0  0  0  0  0  0
   12.7290   14.1590   -1.0480 C   0  0  0  0  0  0  0  0  0  0  0  0
   11.4700   13.3510   -1.2270 C   0  0  0  0  0  0  0  0  0  0  0  0
   10.2680   13.9250   -1.0270 N   0  0  0  0  0  0  0  0  0  0  0  0
   10.2070   14.8890   -0.8400 H   0  0  0  0  0  0  0  0  0  0  0  0
   11.5390   12.1840   -1.5510 O   0  0  0  0  0  0  0  0  0  0  0  0
    9.1020   13.1480   -1.0840 C   0  0  0  0  0  0  0  0  0  0  0  0
    8.6220   12.5320    0.0630 C   0  0  0  0  0  0  0  0  0  0  0  0
    7.4710   11.7640    0.0050 C   0  0  0  0  0  0  0  0  0  0  0  0
    6.7930   11.6170   -1.2040 C   0  0  0  0  0  0  0  0  0  0  0  0
    5.7060   10.8180   -1.0000 O   0  0  0  0  0  0  0  0  0  0  0  0
    5.9440   10.1540    0.2550 C   0  0  0  0  0  0  0  0  0  0  0  0
    7.2800   12.2300   -2.3470 C   0  0  0  0  0  0  0  0  0  0  0  0
    6.8000   11.0660    0.9680 O   0  0  0  0  0  0  0  0  0  0  0  0
    8.4300   12.9950   -2.2890 C   0  0  0  0  0  0  0  0  0  0  0  0
    8.9420   13.6530   -3.5110 N   0  0  0  0  0  0  0  0  0  0  0  0
    8.7040   14.8300   -3.7150 O   0  0  0  0  0  0  0  0  0  0  0  0
    9.6040   13.0190   -4.3130 O   0  0  0  0  0  0  0  0  0  0  0  0
  1  5  1  0  0  0  0
  2  9  1  0  0  0  0
  3  2  2  0  0  0  0
  4  5  2  0  0  0  0
  4  3  1  0  0  0  0
  5  6  1  0  0  0  0
  6  2  1  0  0  0  0
  6 12  1  0  0  0  0
  7 11  2  0  0  0  0
  8  9  2  0  0  0  0
  8  7  1  0  0  0  0
  9 10  1  0  0  0  0
 10 11  1  0  0  0  0
 13 12  1  0  0  0  0
 14 13  1  0  0  0  0
 14 18  2  0  0  0  0
 15 14  1  0  0  0  0
 16 15  1  0  0  0  0
 17 15  1  0  0  0  0
 19  1  1  0  0  0  0
 20 19  1  0  0  0  0
 20 21  1  0  0  0  0
 21 22  1  0  0  0  0
 23 20  2  0  0  0  0
 24 21  1  0  0  0  0
 24 25  2  0  0  0  0
 26 25  1  0  0  0  0
 26 31  1  0  0  0  0
 27 28  1  0  0  0  0
 27 26  2  0  0  0  0
 28 29  1  0  0  0  0
 29 31  1  0  0  0  0
 30 32  2  0  0  0  0
 30 27  1  0  0  0  0
 32 24  1  0  0  0  0
 33 32  1  0  0  0  0
 34 33  2  0  0  0  0
 35 33  2  0  0  0  0
M  END
>  <MODEL>
1

>  <REMARK>
 VINA RESULT:      -4.8      0.000      0.000
  Name = ZINC29665193
                            x       y       z     vdW  Elec       q    Type
                         _______ _______ _______ _____ _____    ______ ____

>  <TORSDO>
F 9

>  <vina_score>
-4.8

$$$$
ZINC11899088
 OpenBabel01091701333D

 34 36  0  0  1  0  0  0  0  0999 V2000
    8.5560   11.6100    3.5900 C   0  0  0  0  0  0  0  0  0  0  0  0
    8.6850   12.8050    2.7530 N   0  0  0  0  0  0  0  0  0  0  0  0
    8.0720   12.9430    1.9950 H   0  0  0  0  0  0  0  0  0  0  0  0
    9.6410   13.7150    3.0210 C   0  0  0  0  0  0  0  0  0  0  0  0
   10.3960   13.5460    3.9560 O   0  0  0  0  0  0  0  0  0  0  0  0
    9.7730   14.9350    2.1670 C   0  0  0  0  0  0  0  0  0  0  0  0
    9.9770   14.8100    0.8410 N   0  0  0  0  0  0  0  0  0  0  0  0
   10.0400   13.9160    0.4340 H   0  0  0  0  0  0  0  0  0  0  0  0
    9.6950   16.0370    2.6680 O   0  0  0  0  0  0  0  0  0  0  0  0
   10.1050   16.0060    0.0040 C   0  0  0  0  0  0  0  0  0  0  0  0
   11.2500   15.8110   -0.9930 C   0  0  0  0  0  0  0  0  0  0  0  0
   10.7260   15.1280   -2.1950 N   0  0  0  0  0  0  0  0  0  0  0  0
   10.9320   15.6970   -3.0150 H   0  0  0  0  0  0  0  0  0  0  0  0
   11.3760   13.8090   -2.3490 C   0  0  0  0  0  0  0  0  0  0  0  0
   10.8400   13.1430   -3.6190 C   0  0  0  0  0  0  0  0  0  0  0  0
    9.4170   13.0270   -3.5260 O   0  0  0  0  0  0  0  0  0  0  0  0
    8.7480   14.2780   -3.3540 C   0  0  0  0  0  0  0  0  0  0  0  0
    9.2630   14.9560   -2.0810 C   0  0  0  0  0  0  0  0  0  0  0  0
    8.9670   10.3760    2.7850 C   0  0  1  0  0  0  0  0  0  0  0  0
    8.4020   10.4370    1.4200 N   0  0  0  0  0  0  0  0  0  0  0  0
    8.7230    9.6250    0.8910 H   0  0  0  0  0  0  0  0  0  0  0  0
    8.8590   11.6660    0.7380 C   0  0  0  0  0  0  0  0  0  0  0  0
    8.3030   11.6750   -0.6880 C   0  0  0  0  0  0  0  0  0  0  0  0
    6.8270   11.6530   -0.6250 N   0  0  0  0  0  0  0  0  0  0  0  0
    6.5050   12.4660   -0.0980 H   0  0  0  0  0  0  0  0  0  0  0  0
    6.2620   11.7150   -1.9900 C   0  0  0  0  0  0  0  0  0  0  0  0
    6.3700   10.4240    0.0560 C   0  0  0  0  0  0  0  0  0  0  0  0
    6.9250   10.4160    1.4830 C   0  0  0  0  0  0  0  0  0  0  0  0
   10.9620   10.1540    5.1470 C   0  0  0  0  0  0  0  0  0  0  0  0
   11.3370   10.2220    3.7330 N   0  0  0  0  0  0  0  0  0  0  0  0
   12.6100   10.1930    3.2450 C   0  0  0  0  0  0  0  0  0  0  0  0
   12.5490   10.2830    1.9010 C   0  0  0  0  0  0  0  0  0  0  0  0
   11.1890   10.3620    1.5450 C   0  0  0  0  0  0  0  0  0  0  0  0
   10.4700   10.3200    2.6850 C   0  0  0  0  0  0  0  0  0  0  0  0
  2  4  1  0  0  0  0
  2  1  1  0  0  0  0
  3  2  1  0  0  0  0
  4  5  2  0  0  0  0
  6  9  2  0  0  0  0
  6  4  1  0  0  0  0
  7  6  1  0  0  0  0
  8  7  1  0  0  0  0
 10  7  1  0  0  0  0
 11 10  1  0  0  0  0
 12 18  1  0  0  0  0
 12 11  1  0  0  0  0
 13 12  1  0  0  0  0
 14 12  1  0  0  0  0
 15 16  1  0  0  0  0
 15 14  1  0  0  0  0
 16 17  1  0  0  0  0
 17 18  1  0  0  0  0
 19 20  1  6  0  0  0
 19  1  1  0  0  0  0
 20 28  1  0  0  0  0
 21 20  1  0  0  0  0
 22 20  1  0  0  0  0
 23 24  1  0  0  0  0
 23 22  1  0  0  0  0
 24 25  1  0  0  0  0
 24 27  1  0  0  0  0
 26 24  1  0  0  0  0
 27 28  1  0  0  0  0
 30 29  1  0  0  0  0
 31 30  1  0  0  0  0
 32 31  2  0  0  0  0
 33 32  1  0  0  0  0
 33 34  2  0  0  0  0
 34 19  1  0  0  0  0
 34 30  1  0  0  0  0
M  END
>  <MODEL>
1

>  <REMARK>
 VINA RESULT:      -4.8      0.000      0.000
  Name = ZINC11899088
                            x       y       z     vdW  Elec       q    Type
                         _______ _______ _______ _____ _____    ______ ____

>  <TORSDO>
F 8

>  <vina_score>
-4.8

$$$$
ZINC29937211
 OpenBabel01091701443D

 32 33  0  0  0  0  0  0  0  0999 V2000
    8.8140   10.1540    2.4170 N   0  0  0  0  0  0  0  0  0  0  0  0
    9.6630   10.1500    1.9180 H   0  0  0  0  0  0  0  0  0  0  0  0
    8.8250   10.1560    3.7640 C   0  0  0  0  0  0  0  0  0  0  0  0
    7.7800   10.1600    4.3790 O   0  0  0  0  0  0  0  0  0  0  0  0
    7.5400   10.1550    1.6940 C   0  0  0  0  0  0  0  0  0  0  0  0
    8.5760   11.9370    0.3250 N   0  0  0  0  0  0  0  0  0  0  0  0
    9.1740   12.1290    1.0820 H   0  0  0  0  0  0  0  0  0  0  0  0
    7.6950   10.9190    0.4040 C   0  0  0  0  0  0  0  0  0  0  0  0
    7.0270   10.6190   -0.5630 O   0  0  0  0  0  0  0  0  0  0  0  0
   10.9520   11.8400   -1.2360 C   0  0  0  0  0  0  0  0  0  0  0  0
    9.7790   12.7020   -1.6250 C   0  0  0  0  0  0  0  0  0  0  0  0
    8.6370   12.7200   -0.8330 C   0  0  0  0  0  0  0  0  0  0  0  0
    7.5580   13.5160   -1.1930 C   0  0  0  0  0  0  0  0  0  0  0  0
    7.6220   14.2880   -2.3370 C   0  0  0  0  0  0  0  0  0  0  0  0
    8.7580   14.2690   -3.1230 C   0  0  0  0  0  0  0  0  0  0  0  0
    9.8360   13.4760   -2.7670 C   0  0  0  0  0  0  0  0  0  0  0  0
   11.2620   13.4560   -3.7570 Cl  0  0  0  0  0  0  0  0  0  0  0  0
   10.1360   10.1530    4.5070 C   0  0  0  0  0  0  0  0  0  0  0  0
   10.6180   11.5290    4.6510 N   0  0  0  0  0  0  0  0  0  0  0  0
   10.5960   11.9710    5.5300 H   0  0  0  0  0  0  0  0  0  0  0  0
   11.1110   12.2150    3.5370 C   0  0  0  0  0  0  0  0  0  0  0  0
   12.2840   11.7980    2.9250 C   0  0  0  0  0  0  0  0  0  0  0  0
   12.7660   12.4750    1.8220 C   0  0  0  0  0  0  0  0  0  0  0  0
   12.0860   13.5760    1.3340 C   0  0  0  0  0  0  0  0  0  0  0  0
   10.9190   13.9980    1.9440 C   0  0  0  0  0  0  0  0  0  0  0  0
   10.4300   13.3220    3.0450 C   0  0  0  0  0  0  0  0  0  0  0  0
   12.6170   14.3160    0.1340 C   0  0  0  0  0  0  0  0  0  0  0  0
   11.5870   15.3090   -0.3400 C   0  0  0  0  0  0  0  0  0  0  0  0
   10.5180   15.5910    0.4320 N   0  0  0  0  0  0  0  0  0  0  0  0
   10.4100   15.1490    1.3050 H   0  0  0  0  0  0  0  0  0  0  0  0
    9.5160   16.5570   -0.0290 C   0  0  0  0  0  0  0  0  0  0  0  0
   11.7200   15.8530   -1.4150 O   0  0  0  0  0  0  0  0  0  0  0  0
  1  3  1  0  0  0  0
  2  1  1  0  0  0  0
  3  4  2  0  0  0  0
  3 18  1  0  0  0  0
  5  1  1  0  0  0  0
  6  8  1  0  0  0  0
  6  7  1  0  0  0  0
  8  5  1  0  0  0  0
  9  8  2  0  0  0  0
 11 10  1  0  0  0  0
 11 12  2  0  0  0  0
 12  6  1  0  0  0  0
 13 12  1  0  0  0  0
 14 13  2  0  0  0  0
 15 16  2  0  0  0  0
 15 14  1  0  0  0  0
 16 11  1  0  0  0  0
 17 16  1  0  0  0  0
 18 19  1  0  0  0  0
 19 20  1  0  0  0  0
 21 19  1  0  0  0  0
 22 21  2  0  0  0  0
 23 22  1  0  0  0  0
 24 23  2  0  0  0  0
 24 25  1  0  0  0  0
 25 26  2  0  0  0  0
 26 21  1  0  0  0  0
 27 24  1  0  0  0  0
 28 27  1  0  0  0  0
 28 29  1  0  0  0  0
 29 30  1  0  0  0  0
 31 29  1  0  0  0  0
 32 28  2  0  0  0  0
M  END
>  <MODEL>
1

>  <REMARK>
 VINA RESULT:      -4.7      0.000      0.000
  Name = ZINC29937211
                            x       y       z     vdW  Elec       q    Type
                         _______ _______ _______ _____ _____    ______ ____

>  <TORSDO>
F 8

>  <vina_score>
-4.7

$$$$
ZINC29188439
 OpenBabel01091701463D

 34 35  0  0  1  0  0  0  0  0999 V2000
   13.2500   10.4240    2.2540 N   0  0  0  0  0  0  0  0  0  0  0  0
   13.7230   11.2670    1.9280 H   0  0  0  0  0  0  0  0  0  0  0  0
   13.8840    9.6260    2.2330 H   0  0  0  0  0  0  0  0  0  0  0  0
   12.7970   10.6440    3.6340 C   0  0  1  0  0  0  0  0  0  0  0  0
   13.8670   11.4220    4.4030 C   0  0  0  0  0  0  0  0  0  0  0  0
    9.1580   12.8890    3.5980 C   0  0  0  0  0  0  0  0  0  0  0  0
   10.3710   13.5340    3.7780 C   0  0  0  0  0  0  0  0  0  0  0  0
   11.5460   12.8050    3.7890 C   0  0  0  0  0  0  0  0  0  0  0  0
   11.5140   11.4330    3.6220 C   0  0  0  0  0  0  0  0  0  0  0  0
   10.3070   10.7840    3.4370 C   0  0  0  0  0  0  0  0  0  0  0  0
    9.1260   11.5090    3.4300 C   0  0  0  0  0  0  0  0  0  0  0  0
    8.0020   13.6040    3.5870 O   0  0  0  0  0  0  0  0  0  0  0  0
    8.1020   14.9970    3.2820 C   0  0  0  0  0  0  0  0  0  0  0  0
    9.3750   16.7040    1.9750 C   0  0  0  0  0  0  0  0  0  0  0  0
    9.3520   15.2450    2.4360 C   0  0  0  0  0  0  0  0  0  0  0  0
    7.9370   10.8700    3.2540 O   0  0  0  0  0  0  0  0  0  0  0  0
    7.7560   10.1630    2.0270 C   0  0  0  0  0  0  0  0  0  0  0  0
    6.3730   10.4800    1.4540 C   0  0  0  0  0  0  0  0  0  0  0  0
    6.3920   10.2860   -0.0640 C   0  0  0  0  0  0  0  0  0  0  0  0
   12.1120   10.1530    1.3630 C   0  0  0  0  0  0  0  0  0  0  0  0
   11.7130   11.4230    0.6570 C   0  0  0  0  0  0  0  0  0  0  0  0
   10.5960   11.4530   -0.0960 N   0  0  0  0  0  0  0  0  0  0  0  0
   10.0400   10.6450   -0.1840 H   0  0  0  0  0  0  0  0  0  0  0  0
   12.3970   12.4190    0.7660 O   0  0  0  0  0  0  0  0  0  0  0  0
   10.2240   12.6340   -0.7520 N   0  0  0  0  0  0  0  0  0  0  0  0
   10.9380   13.2080   -1.7400 C   0  0  0  0  0  0  0  0  0  0  0  0
   10.1620   14.4450   -2.1420 C   0  0  2  0  0  0  0  0  0  0  0  0
   10.9960   15.7050   -1.9030 C   0  0  0  0  0  0  0  0  0  0  0  0
    8.9890   14.4240   -1.2500 N   0  0  0  0  0  0  0  0  0  0  0  0
   11.9840   12.8140   -2.2110 O   0  0  0  0  0  0  0  0  0  0  0  0
    9.1160   13.3300   -0.4770 C   0  0  0  0  0  0  0  0  0  0  0  0
    8.3110   13.0100    0.3770 O   0  0  0  0  0  0  0  0  0  0  0  0
    9.7250   14.3600   -3.6060 C   0  0  0  0  0  0  0  0  0  0  0  0
    9.2670   12.9340   -3.9190 C   0  0  0  0  0  0  0  0  0  0  0  0
  2  1  1  0  0  0  0
  3  1  1  0  0  0  0
  4  1  1  6  0  0  0
  4  5  1  0  0  0  0
  6  7  2  0  0  0  0
  7  8  1  0  0  0  0
  9  4  1  0  0  0  0
  9  8  2  0  0  0  0
 10  9  1  0  0  0  0
 11 10  2  0  0  0  0
 11  6  1  0  0  0  0
 12  6  1  0  0  0  0
 13 12  1  0  0  0  0
 14 15  1  0  0  0  0
 15 13  1  0  0  0  0
 16 11  1  0  0  0  0
 17 16  1  0  0  0  0
 18 17  1  0  0  0  0
 19 18  1  0  0  0  0
 20  1  1  0  0  0  0
 21 24  2  0  0  0  0
 21 20  1  0  0  0  0
 22 21  1  0  0  0  0
 23 22  1  0  0  0  0
 25 31  1  0  0  0  0
 25 22  1  0  0  0  0
 26 25  1  0  0  0  0
 27 33  1  6  0  0  0
 27 28  1  0  0  0  0
 27 26  1  0  0  0  0
 27 29  1  0  0  0  0
 29 31  1  0  0  0  0
 30 26  2  0  0  0  0
 31 32  2  0  0  0  0
 34 33  1  0  0  0  0
M  END
>  <MODEL>
1

>  <REMARK>
 VINA RESULT:      -4.7      0.000      0.000
  Name = ZINC29188439
                            x       y       z     vdW  Elec       q    Type
                         _______ _______ _______ _____ _____    ______ ____

>  <TORSDO>
F 12

>  <vina_score>
-4.7

$$$$
ZINC27310656
 OpenBabel01091701503D

 29 30  0  0  1  0  0  0  0  0999 V2000
   11.2810   11.7360    3.7120 C   0  0  0  0  0  0  0  0  0  0  0  0
   11.2950   10.1540    4.4880 S   0  0  0  0  0  0  0  0  0  0  0  0
   10.1190   12.2030    3.1090 C   0  0  2  0  0  0  0  0  0  0  0  0
   10.1080   13.4390    2.5030 N   0  0  0  0  0  0  0  0  0  0  0  0
    9.3790   14.4130    3.0300 C   0  0  0  0  0  0  0  0  0  0  0  0
    9.3440   15.6640    2.4500 C   0  0  0  0  0  0  0  0  0  0  0  0
   10.0840   15.9010    1.3010 C   0  0  0  0  0  0  0  0  0  0  0  0
   10.8410   14.8580    0.7720 C   0  0  0  0  0  0  0  0  0  0  0  0
   11.5810   15.0460   -0.3520 O   0  0  0  0  0  0  0  0  0  0  0  0
   10.8330   13.6280    1.4080 C   0  0  0  0  0  0  0  0  0  0  0  0
   12.4150   12.5040    3.7030 N   0  0  0  0  0  0  0  0  0  0  0  0
   12.3680   13.4540    3.9600 H   0  0  0  0  0  0  0  0  0  0  0  0
   13.6980   11.9130    3.3110 C   0  0  0  0  0  0  0  0  0  0  0  0
   15.0960   10.5510    5.0440 C   0  0  0  0  0  0  0  0  0  0  0  0
   14.6180   11.8740    4.5030 C   0  0  0  0  0  0  0  0  0  0  0  0
   15.0030   12.9910    5.0710 C   0  0  0  0  0  0  0  0  0  0  0  0
    8.9490   11.4120    3.1190 C   0  0  0  0  0  0  0  0  0  0  0  0
    8.5970   10.8560    4.1470 O   0  0  0  0  0  0  0  0  0  0  0  0
    8.1570   11.2560    1.8910 C   0  0  0  0  0  0  0  0  0  0  0  0
    7.0060   10.5130    1.6830 C   0  0  0  0  0  0  0  0  0  0  0  0
    6.4610   10.5440    0.4220 C   0  0  0  0  0  0  0  0  0  0  0  0
    7.0640   11.2860   -0.5420 C   0  0  0  0  0  0  0  0  0  0  0  0
    8.4250   11.9750    0.2820 S   0  0  0  0  0  0  0  0  0  0  0  0
    6.6530   11.4630   -1.9820 C   0  0  0  0  0  0  0  0  0  0  0  0
    7.7080   12.1750   -2.7070 N   0  0  0  0  0  0  0  0  0  0  0  0
    8.3400   11.6760   -3.2740 H   0  0  0  0  0  0  0  0  0  0  0  0
    7.8130   13.5150   -2.6000 C   0  0  0  0  0  0  0  0  0  0  0  0
    8.8980   14.2480   -3.3470 C   0  0  0  0  0  0  0  0  0  0  0  0
    7.0350   14.1300   -1.9030 O   0  0  0  0  0  0  0  0  0  0  0  0
  1  2  2  0  0  0  0
  3  4  1  1  0  0  0
  3 17  1  0  0  0  0
  3  1  1  0  0  0  0
  4  5  1  0  0  0  0
  6  5  2  0  0  0  0
  7  6  1  0  0  0  0
  8  7  1  0  0  0  0
  8 10  2  0  0  0  0
  9  8  1  0  0  0  0
 10  4  1  0  0  0  0
 11  1  1  0  0  0  0
 11 12  1  0  0  0  0
 13 11  1  0  0  0  0
 13 15  1  0  0  0  0
 15 14  1  0  0  0  0
 15 16  2  0  0  0  0
 17 18  2  0  0  0  0
 19 17  1  0  0  0  0
 20 19  2  0  0  0  0
 21 20  1  0  0  0  0
 22 23  1  0  0  0  0
 22 21  2  0  0  0  0
 23 19  1  0  0  0  0
 24 22  1  0  0  0  0
 25 27  1  0  0  0  0
 25 24  1  0  0  0  0
 26 25  1  0  0  0  0
 27 29  2  0  0  0  0
 28 27  1  0  0  0  0
M  END
>  <MODEL>
1

>  <REMARK>
 VINA RESULT:      -4.7      0.000      0.000
  Name = ZINC27310656
                            x       y       z     vdW  Elec       q    Type
                         _______ _______ _______ _____ _____    ______ ____

>  <TORSDO>
F 8

>  <vina_score>
-4.7

$$$$
ZINC04806136
 OpenBabel01091701283D

 15 14  0  0  1  0  0  0  0  0999 V2000
    8.2340   12.7700   -2.1480 C   0  0  1  0  0  0  0  0  0  0  0  0
    7.1470   13.6960   -1.7810 N   0  0  0  0  0  0  0  0  0  0  0  0
    6.9070   13.5630   -0.7980 H   0  0  0  0  0  0  0  0  0  0  0  0
    7.4550   14.6570   -1.9280 H   0  0  0  0  0  0  0  0  0  0  0  0
    6.3290   13.5070   -2.3590 H   0  0  0  0  0  0  0  0  0  0  0  0
    9.0650   13.3990   -3.2370 C   0  0  0  0  0  0  0  0  0  0  0  0
    9.2860   12.7320   -4.3810 O   0  0  0  0  0  0  0  0  0  0  0  0
    9.5370   14.4990   -3.0780 O   0  0  0  0  0  0  0  0  0  0  0  0
    9.1190   12.4790   -0.9350 C   0  0  0  0  0  0  0  0  0  0  0  0
    8.6620   13.3360    0.2480 C   0  0  0  0  0  0  0  0  0  0  0  0
    9.9820   14.4940    0.7010 S   0  0  2  0  0  0  0  0  0  0  0  0
    9.7590   15.7410    0.0560 O   0  0  0  0  0  0  0  0  0  0  0  0
   12.2630   14.7610   -0.7840 C   0  0  0  0  0  0  0  0  0  0  0  0
   11.4850   13.7290    0.0350 C   0  0  0  0  0  0  0  0  0  0  0  0
   12.3590   13.2310    1.1880 C   0  0  0  0  0  0  0  0  0  0  0  0
  1  6  1  6  0  0  0
  1  2  1  0  0  0  0
  1  9  1  0  0  0  0
  2  3  1  0  0  0  0
  4  2  1  0  0  0  0
  5  2  1  0  0  0  0
  6  8  1  0  0  0  0
  7  6  2  0  0  0  0
  9 10  1  0  0  0  0
 10 11  1  0  0  0  0
 11 14  1  6  0  0  0
 12 11  1  0  0  0  0
 13 14  1  0  0  0  0
 14 15  1  0  0  0  0
M  END
>  <MODEL>
1

>  <REMARK>
 VINA RESULT:      -4.7      0.000      0.000
  Name = ZINC04806136
                            x       y       z     vdW  Elec       q    Type
                         _______ _______ _______ _____ _____    ______ ____

>  <TORSDO>
F 6

>  <vina_score>
-4.7

$$$$
ZINC02441083
 OpenBabel01091701353D

 40 43  0  0  1  0  0  0  0  0999 V2000
    8.3900   13.0710   -1.3970 C   0  0  0  0  0  0  0  0  0  0  0  0
    9.0950   12.8400   -2.4760 N   0  0  0  0  0  0  0  0  0  0  0  0
   10.2350   13.5750   -2.4350 C   0  0  0  0  0  0  0  0  0  0  0  0
   11.3380   13.7290   -3.2910 C   0  0  0  0  0  0  0  0  0  0  0  0
   12.3110   14.5590   -2.9260 N   0  0  0  0  0  0  0  0  0  0  0  0
   12.2490   15.2270   -1.7890 C   0  0  0  0  0  0  0  0  0  0  0  0
   11.2350   15.1130   -0.9580 N   0  0  0  0  0  0  0  0  0  0  0  0
   10.2170   14.3070   -1.2370 C   0  0  0  0  0  0  0  0  0  0  0  0
    9.0430   13.9710   -0.6010 N   0  0  0  0  0  0  0  0  0  0  0  0
    8.5800   14.4840    0.6900 C   0  0  2  0  0  0  0  0  0  0  0  0
    9.7010   15.2950    1.3890 C   0  0  2  0  0  0  0  0  0  0  0  0
    9.2980   15.1860    2.8800 C   0  0  2  0  0  0  0  0  0  0  0  0
    8.3810   13.9480    2.9340 C   0  0  1  0  0  0  0  0  0  0  0  0
    8.3270   13.3990    1.6080 O   0  0  0  0  0  0  0  0  0  0  0  0
    9.6900   16.6570    0.9560 O   0  0  0  0  0  0  0  0  0  0  0  0
    8.9510   17.1230    1.3740 H   0  0  0  0  0  0  0  0  0  0  0  0
    8.5870   16.3530    3.2950 O   0  0  0  0  0  0  0  0  0  0  0  0
    7.8420   16.0950    3.8610 H   0  0  0  0  0  0  0  0  0  0  0  0
    8.9590   12.9140    3.9030 C   0  0  0  0  0  0  0  0  0  0  0  0
   10.2530   13.3400    4.3370 O   0  0  0  0  0  0  0  0  0  0  0  0
   10.1820   13.7500    5.2130 H   0  0  0  0  0  0  0  0  0  0  0  0
   11.4110   13.0330   -4.4860 N   0  0  0  0  0  0  0  0  0  0  0  0
   11.9940   13.3580   -5.2100 H   0  0  0  0  0  0  0  0  0  0  0  0
   10.8800   12.2130   -4.6120 H   0  0  0  0  0  0  0  0  0  0  0  0
    7.1710   12.4930   -1.1060 N   0  0  0  0  0  0  0  0  0  0  0  0
    6.3750   13.0590   -0.9800 H   0  0  0  0  0  0  0  0  0  0  0  0
    7.0650   11.1010   -0.9900 N   0  0  0  0  0  0  0  0  0  0  0  0
    7.0890   10.5370   -1.7960 H   0  0  0  0  0  0  0  0  0  0  0  0
    6.9260   10.5170    0.2630 C   0  0  0  0  0  0  0  0  0  0  0  0
    5.7230   10.2810    0.7520 C   0  0  0  0  0  0  0  0  0  0  0  0
    8.1500   10.1540    1.0650 C   0  0  0  0  0  0  0  0  0  0  0  0
    9.2770   10.8810    0.5720 O   0  0  0  0  0  0  0  0  0  0  0  0
   12.5680   11.1390    3.0450 C   0  0  0  0  0  0  0  0  0  0  0  0
   12.4770   11.9520    1.9310 C   0  0  0  0  0  0  0  0  0  0  0  0
   11.3740   11.8680    1.1010 C   0  0  0  0  0  0  0  0  0  0  0  0
   10.3600   10.9660    1.3870 C   0  0  0  0  0  0  0  0  0  0  0  0
   10.4520   10.1550    2.5080 C   0  0  0  0  0  0  0  0  0  0  0  0
   11.5580   10.2390    3.3320 C   0  0  0  0  0  0  0  0  0  0  0  0
   14.0450   12.7010    4.2810 C   0  0  0  0  0  0  0  0  0  0  0  0
   13.7710   11.2330    3.9490 C   0  0  0  0  0  0  0  0  0  0  0  0
  1 25  1  0  0  0  0
  1  9  1  0  0  0  0
  2  3  1  0  0  0  0
  2  1  2  0  0  0  0
  3  8  2  0  0  0  0
  4  5  2  0  0  0  0
  4  3  1  0  0  0  0
  5  6  1  0  0  0  0
  6  7  2  0  0  0  0
  8  7  1  0  0  0  0
  8  9  1  0  0  0  0
 10  9  1  6  0  0  0
 10 11  1  0  0  0  0
 10 14  1  0  0  0  0
 11 15  1  6  0  0  0
 11 12  1  0  0  0  0
 12 13  1  0  0  0  0
 12 17  1  6  0  0  0
 13 19  1  1  0  0  0
 14 13  1  0  0  0  0
 15 16  1  0  0  0  0
 17 18  1  0  0  0  0
 19 20  1  0  0  0  0
 20 21  1  0  0  0  0
 22  4  1  0  0  0  0
 23 22  1  0  0  0  0
 24 22  1  0  0  0  0
 25 27  1  0  0  0  0
 25 26  1  0  0  0  0
 27 29  1  0  0  0  0
 28 27  1  0  0  0  0
 29 30  2  0  0  0  0
 29 31  1  0  0  0  0
 32 31  1  0  0  0  0
 32 36  1  0  0  0  0
 33 38  1  0  0  0  0
 33 40  1  0  0  0  0
 34 33  2  0  0  0  0
 35 36  2  0  0  0  0
 35 34  1  0  0  0  0
 36 37  1  0  0  0  0
 37 38  2  0  0  0  0
 40 39  1  0  0  0  0
M  END
>  <MODEL>
1

>  <REMARK>
 VINA RESULT:      -4.7      0.000      0.000
  Name = ZINC02441083
                            x       y       z     vdW  Elec       q    Type
                         _______ _______ _______ _____ _____    ______ ____

>  <TORSDO>
F 13

>  <vina_score>
-4.7

$$$$
ZINC29840205
 OpenBabel01091701373D

 31 31  0  0  0  0  0  0  0  0999 V2000
   11.4630   12.5740    3.4970 C   0  0  0  0  0  0  0  0  0  0  0  0
   10.5200   11.8520    4.2050 C   0  0  0  0  0  0  0  0  0  0  0  0
    9.2570   11.6530    3.6800 C   0  0  0  0  0  0  0  0  0  0  0  0
    8.9290   12.1880    2.4450 C   0  0  0  0  0  0  0  0  0  0  0  0
    9.8760   12.9210    1.7330 C   0  0  0  0  0  0  0  0  0  0  0  0
   11.1430   13.1110    2.2640 C   0  0  0  0  0  0  0  0  0  0  0  0
    9.5490   13.4640    0.4830 N   0  0  0  0  0  0  0  0  0  0  0  0
    9.3680   12.8690   -0.2800 H   0  0  0  0  0  0  0  0  0  0  0  0
    9.4820   14.8000    0.3260 C   0  0  0  0  0  0  0  0  0  0  0  0
    9.6270   15.5330    1.2820 O   0  0  0  0  0  0  0  0  0  0  0  0
    9.2250   15.3870   -1.0390 C   0  0  0  0  0  0  0  0  0  0  0  0
    9.9680   14.6220   -2.0490 N   0  0  0  0  0  0  0  0  0  0  0  0
   10.0870   13.6710   -1.6970 H   0  0  0  0  0  0  0  0  0  0  0  0
   11.3040   15.1930   -2.2650 C   0  0  0  0  0  0  0  0  0  0  0  0
   12.3630   14.2350   -1.7150 C   0  0  0  0  0  0  0  0  0  0  0  0
    9.2180   14.5460   -3.3100 C   0  0  0  0  0  0  0  0  0  0  0  0
    9.2180   13.1040   -3.8170 C   0  0  0  0  0  0  0  0  0  0  0  0
    8.2630   12.3390   -3.0790 O   0  0  0  0  0  0  0  0  0  0  0  0
    7.4070   12.7960   -3.0860 H   0  0  0  0  0  0  0  0  0  0  0  0
   13.0730   12.8170    4.1700 S   0  0  0  0  0  0  0  0  0  0  0  0
   12.8930   13.3340    5.4810 O   0  0  0  0  0  0  0  0  0  0  0  0
   13.8280   13.5010    3.1790 O   0  0  0  0  0  0  0  0  0  0  0  0
   13.7630   11.3220    4.3420 N   0  0  0  0  0  0  0  0  0  0  0  0
   15.7330   12.4920    5.1960 C   0  0  0  0  0  0  0  0  0  0  0  0
   14.9770   11.1630    5.1450 C   0  0  0  0  0  0  0  0  0  0  0  0
   13.1570   10.1570    3.6910 C   0  0  0  0  0  0  0  0  0  0  0  0
   13.5250   10.1530    2.2060 C   0  0  0  0  0  0  0  0  0  0  0  0
    7.6850   11.9990    1.9290 O   0  0  0  0  0  0  0  0  0  0  0  0
    7.3890   10.7020    1.4070 C   0  0  0  0  0  0  0  0  0  0  0  0
    7.4190   10.7470   -0.1210 C   0  0  0  0  0  0  0  0  0  0  0  0
    5.9990   10.2680    1.8780 C   0  0  0  0  0  0  0  0  0  0  0  0
  1 20  1  0  0  0  0
  1  2  2  0  0  0  0
  3  2  1  0  0  0  0
  4  3  2  0  0  0  0
  5  6  2  0  0  0  0
  5  4  1  0  0  0  0
  6  1  1  0  0  0  0
  7  5  1  0  0  0  0
  8  7  1  0  0  0  0
  9  7  1  0  0  0  0
  9 10  2  0  0  0  0
 11  9  1  0  0  0  0
 12 13  1  0  0  0  0
 12 11  1  0  0  0  0
 14 12  1  0  0  0  0
 14 15  1  0  0  0  0
 16 12  1  0  0  0  0
 17 16  1  0  0  0  0
 17 18  1  0  0  0  0
 19 18  1  0  0  0  0
 20 23  1  0  0  0  0
 20 21  2  0  0  0  0
 22 20  2  0  0  0  0
 23 25  1  0  0  0  0
 25 24  1  0  0  0  0
 26 23  1  0  0  0  0
 27 26  1  0  0  0  0
 28  4  1  0  0  0  0
 29 31  1  0  0  0  0
 29 28  1  0  0  0  0
 30 29  1  0  0  0  0
M  END
>  <MODEL>
1

>  <REMARK>
 VINA RESULT:      -4.5      0.000      0.000
  Name = ZINC29840205
                            x       y       z     vdW  Elec       q    Type
                         _______ _______ _______ _____ _____    ______ ____

>  <TORSDO>
F 13

>  <vina_score>
-4.5

$$$$
ZINC09600195
 OpenBabel01091701403D

 32 33  0  0  1  0  0  0  0  0999 V2000
    9.2190   12.3960    3.4580 C   0  0  0  0  0  0  0  0  0  0  0  0
    9.2270   12.5920    2.1250 N   0  0  0  0  0  0  0  0  0  0  0  0
    9.8960   12.1390    1.5640 H   0  0  0  0  0  0  0  0  0  0  0  0
    8.3940   12.9560    4.1500 O   0  0  0  0  0  0  0  0  0  0  0  0
   11.2750   11.0440    3.3610 N   0  0  0  0  0  0  0  0  0  0  0  0
   11.3760   11.3180    2.4210 H   0  0  0  0  0  0  0  0  0  0  0  0
   10.2280   11.4870    4.0850 C   0  0  0  0  0  0  0  0  0  0  0  0
   10.1050   11.1500    5.2430 O   0  0  0  0  0  0  0  0  0  0  0  0
   12.2640   10.1540    3.9740 C   0  0  0  0  0  0  0  0  0  0  0  0
   13.6700   10.7030    3.7220 C   0  0  0  0  0  0  0  0  0  0  0  0
   13.9180   11.8240    4.6550 N   0  0  0  0  0  0  0  0  0  0  0  0
   13.1990   11.8170    5.3780 H   0  0  0  0  0  0  0  0  0  0  0  0
   15.6290   10.1880    5.2590 C   0  0  0  0  0  0  0  0  0  0  0  0
   15.2420   11.6680    5.2900 C   0  0  0  0  0  0  0  0  0  0  0  0
   13.8550   13.1090    3.9280 C   0  0  0  0  0  0  0  0  0  0  0  0
   13.3370   12.8480    2.5110 C   0  0  0  0  0  0  0  0  0  0  0  0
    8.2380   13.4830    1.5110 C   0  0  0  0  0  0  0  0  0  0  0  0
    7.1070   12.6490    0.9060 C   0  0  1  0  0  0  0  0  0  0  0  0
    7.5090   12.1520   -0.4200 N   0  0  0  0  0  0  0  0  0  0  0  0
    7.4350   10.6760   -0.3460 C   0  0  0  0  0  0  0  0  0  0  0  0
    6.4820   10.4390    0.8500 C   0  0  0  0  0  0  0  0  0  0  0  0
    6.8360   11.5170    1.7490 O   0  0  0  0  0  0  0  0  0  0  0  0
    7.9500   13.0620   -1.7310 S   0  0  0  0  0  0  0  0  0  0  0  0
    7.0420   14.1520   -1.7930 O   0  0  0  0  0  0  0  0  0  0  0  0
    8.1290   12.1560   -2.8120 O   0  0  0  0  0  0  0  0  0  0  0  0
    9.5350   13.7470   -1.3800 C   0  0  0  0  0  0  0  0  0  0  0  0
   10.6420   12.9220   -1.3040 C   0  0  0  0  0  0  0  0  0  0  0  0
   11.8870   13.4580   -1.0330 C   0  0  0  0  0  0  0  0  0  0  0  0
   12.0230   14.8210   -0.8270 C   0  0  0  0  0  0  0  0  0  0  0  0
   13.2390   15.3450   -0.5570 F   0  0  0  0  0  0  0  0  0  0  0  0
   10.9130   15.6450   -0.8970 C   0  0  0  0  0  0  0  0  0  0  0  0
    9.6700   15.1070   -1.1730 C   0  0  0  0  0  0  0  0  0  0  0  0
  1  7  1  0  0  0  0
  1  4  2  0  0  0  0
  2  1  1  0  0  0  0
  3  2  1  0  0  0  0
  5  9  1  0  0  0  0
  5  7  1  0  0  0  0
  6  5  1  0  0  0  0
  7  8  2  0  0  0  0
 10  9  1  0  0  0  0
 10 11  1  0  0  0  0
 11 14  1  0  0  0  0
 11 12  1  0  0  0  0
 13 14  1  0  0  0  0
 15 11  1  0  0  0  0
 16 15  1  0  0  0  0
 17  2  1  0  0  0  0
 18 17  1  1  0  0  0
 18 22  1  0  0  0  0
 19 20  1  0  0  0  0
 19 18  1  0  0  0  0
 20 21  1  0  0  0  0
 21 22  1  0  0  0  0
 23 26  1  0  0  0  0
 23 19  1  0  0  0  0
 24 23  2  0  0  0  0
 25 23  2  0  0  0  0
 26 27  2  0  0  0  0
 26 32  1  0  0  0  0
 27 28  1  0  0  0  0
 28 29  2  0  0  0  0
 29 30  1  0  0  0  0
 31 29  1  0  0  0  0
 32 31  2  0  0  0  0
M  END
>  <MODEL>
1

>  <REMARK>
 VINA RESULT:      -4.5      0.000      0.000
  Name = ZINC09600195
                            x       y       z     vdW  Elec       q    Type
                         _______ _______ _______ _____ _____    ______ ____

>  <TORSDO>
F 10

>  <vina_score>
-4.5

$$$$
ZINC25317503
 OpenBabel01091701453D

 30 31  0  0  0  0  0  0  0  0999 V2000
    9.0060   13.4290    0.0320 N   0  0  0  0  0  0  0  0  0  0  0  0
    9.5320   14.5320    0.6460 C   0  0  0  0  0  0  0  0  0  0  0  0
    9.0330   14.5830    1.8480 N   0  0  0  0  0  0  0  0  0  0  0  0
    8.2280   13.5970    2.0330 N   0  0  0  0  0  0  0  0  0  0  0  0
    8.1710   12.8580    0.9500 C   0  0  0  0  0  0  0  0  0  0  0  0
    9.2790   12.9580   -1.3280 C   0  0  0  0  0  0  0  0  0  0  0  0
    9.1790   13.5580   -3.7510 C   0  0  0  0  0  0  0  0  0  0  0  0
    8.8430   14.0250   -2.3340 C   0  0  0  0  0  0  0  0  0  0  0  0
    7.3340   14.2520   -2.2160 C   0  0  0  0  0  0  0  0  0  0  0  0
   10.5120   15.5060    0.0450 C   0  0  0  0  0  0  0  0  0  0  0  0
   11.9090   14.8820    0.0330 C   0  0  0  0  0  0  0  0  0  0  0  0
   12.2950   14.5400   -1.3820 C   0  0  0  0  0  0  0  0  0  0  0  0
   11.9590   15.3690   -2.3910 N   0  0  0  0  0  0  0  0  0  0  0  0
   12.2110   15.1450   -3.3160 H   0  0  0  0  0  0  0  0  0  0  0  0
   11.4620   16.1970   -2.2020 H   0  0  0  0  0  0  0  0  0  0  0  0
   12.9080   13.5190   -1.6150 O   0  0  0  0  0  0  0  0  0  0  0  0
    7.2060   11.4010    0.7250 S   0  0  0  0  0  0  0  0  0  0  0  0
    8.3790   10.1540    1.3110 C   0  0  0  0  0  0  0  0  0  0  0  0
    8.7030   10.4110    2.7610 C   0  0  0  0  0  0  0  0  0  0  0  0
    9.9600   10.7410    3.1220 N   0  0  0  0  0  0  0  0  0  0  0  0
   11.0240   10.8480    2.1150 C   0  0  0  0  0  0  0  0  0  0  0  0
   11.6590   12.2440    2.2250 C   0  0  0  0  0  0  0  0  0  0  0  0
   11.9890   12.4990    3.6350 N   0  0  0  0  0  0  0  0  0  0  0  0
   10.9260   12.3870    4.6420 C   0  0  0  0  0  0  0  0  0  0  0  0
   10.2900   10.9960    4.5310 C   0  0  0  0  0  0  0  0  0  0  0  0
    7.8340   10.3220    3.6010 O   0  0  0  0  0  0  0  0  0  0  0  0
   13.5320   12.9040    4.0780 S   0  0  0  0  0  0  0  0  0  0  0  0
   14.3980   11.3200    4.2560 C   0  0  0  0  0  0  0  0  0  0  0  0
   13.3920   13.5300    5.3460 O   0  0  0  0  0  0  0  0  0  0  0  0
   14.0510   13.6250    2.9690 O   0  0  0  0  0  0  0  0  0  0  0  0
  1  2  1  0  0  0  0
  1  5  1  0  0  0  0
  2  3  2  0  0  0  0
  3  4  1  0  0  0  0
  5  4  2  0  0  0  0
  6  1  1  0  0  0  0
  7  8  1  0  0  0  0
  8  9  1  0  0  0  0
  8  6  1  0  0  0  0
 10  2  1  0  0  0  0
 11 10  1  0  0  0  0
 12 11  1  0  0  0  0
 13 15  1  0  0  0  0
 13 12  1  0  0  0  0
 14 13  1  0  0  0  0
 16 12  2  0  0  0  0
 17  5  1  0  0  0  0
 17 18  1  0  0  0  0
 18 19  1  0  0  0  0
 19 20  1  0  0  0  0
 19 26  2  0  0  0  0
 20 25  1  0  0  0  0
 21 22  1  0  0  0  0
 21 20  1  0  0  0  0
 22 23  1  0  0  0  0
 23 27  1  0  0  0  0
 23 24  1  0  0  0  0
 25 24  1  0  0  0  0
 27 28  1  0  0  0  0
 27 29  2  0  0  0  0
 30 27  2  0  0  0  0
M  END
>  <MODEL>
1

>  <REMARK>
 VINA RESULT:      -4.5      0.000      0.000
  Name = ZINC25317503
                            x       y       z     vdW  Elec       q    Type
                         _______ _______ _______ _____ _____    ______ ____

>  <TORSDO>
F 9

>  <vina_score>
-4.5

$$$$
ZINC21195156
 OpenBabel01091701323D

 34 36  0  0  0  0  0  0  0  0999 V2000
    7.7380   12.6150   -1.3250 C   0  0  0  0  0  0  0  0  0  0  0  0
    6.9460   11.4860   -1.5780 C   0  0  0  0  0  0  0  0  0  0  0  0
    6.5630   10.6760   -0.5490 C   0  0  0  0  0  0  0  0  0  0  0  0
    6.9460   10.9670    0.7580 C   0  0  0  0  0  0  0  0  0  0  0  0
    6.5560   10.1550    1.7730 O   0  0  0  0  0  0  0  0  0  0  0  0
    7.7250   12.0820    1.0280 C   0  0  0  0  0  0  0  0  0  0  0  0
    8.1260   12.9110   -0.0060 C   0  0  0  0  0  0  0  0  0  0  0  0
    8.1540   13.4850   -2.4280 C   0  0  0  0  0  0  0  0  0  0  0  0
    7.9260   14.6750   -2.3810 O   0  0  0  0  0  0  0  0  0  0  0  0
    8.8660   12.8990   -3.6210 C   0  0  0  0  0  0  0  0  0  0  0  0
   10.1350   13.5380   -3.7780 O   0  0  0  0  0  0  0  0  0  0  0  0
   12.3540   14.1620   -0.3540 C   0  0  0  0  0  0  0  0  0  0  0  0
   11.9860   12.8750   -0.7180 C   0  0  0  0  0  0  0  0  0  0  0  0
   11.2430   12.6660   -1.8630 C   0  0  0  0  0  0  0  0  0  0  0  0
   10.8660   13.7430   -2.6510 C   0  0  0  0  0  0  0  0  0  0  0  0
   11.2340   15.0310   -2.2870 C   0  0  0  0  0  0  0  0  0  0  0  0
   11.9760   15.2400   -1.1420 C   0  0  0  0  0  0  0  0  0  0  0  0
   12.6650   13.6800    1.9530 C   0  0  0  0  0  0  0  0  0  0  0  0
   13.0850   14.3680    0.7740 O   0  0  0  0  0  0  0  0  0  0  0  0
    8.8880   14.0030    0.2520 O   0  0  0  0  0  0  0  0  0  0  0  0
    9.8230   13.9340    0.2430 H   0  0  0  0  0  0  0  0  0  0  0  0
    8.1360   12.3910    2.4450 C   0  0  0  0  0  0  0  0  0  0  0  0
    9.5460   12.0270    2.6360 N   0  0  0  0  0  0  0  0  0  0  0  0
   10.1110   12.6490    2.0570 H   0  0  0  0  0  0  0  0  0  0  0  0
    9.7980   10.6470    2.1980 C   0  0  0  0  0  0  0  0  0  0  0  0
   11.2890   10.3330    2.3390 C   0  0  0  0  0  0  0  0  0  0  0  0
   11.6960   10.5220    3.7380 N   0  0  0  0  0  0  0  0  0  0  0  0
   11.1320    9.9010    4.3170 H   0  0  0  0  0  0  0  0  0  0  0  0
   11.4450   11.9020    4.1750 C   0  0  0  0  0  0  0  0  0  0  0  0
    9.9530   12.2160    4.0350 C   0  0  0  0  0  0  0  0  0  0  0  0
   13.1060   10.1570    3.9290 C   0  0  0  0  0  0  0  0  0  0  0  0
   13.9370   11.4240    4.1420 C   0  0  0  0  0  0  0  0  0  0  0  0
   14.8570   11.2160    5.2160 O   0  0  0  0  0  0  0  0  0  0  0  0
   15.7320   11.0000    4.8550 H   0  0  0  0  0  0  0  0  0  0  0  0
  1  7  1  0  0  0  0
  2  1  2  0  0  0  0
  2  3  1  0  0  0  0
  3  4  2  0  0  0  0
  4  6  1  0  0  0  0
  4  5  1  0  0  0  0
  6 22  1  0  0  0  0
  7 20  1  0  0  0  0
  7  6  2  0  0  0  0
  8  9  2  0  0  0  0
  8  1  1  0  0  0  0
 10  8  1  0  0  0  0
 11 10  1  0  0  0  0
 11 15  1  0  0  0  0
 12 19  1  0  0  0  0
 13 12  1  0  0  0  0
 14 13  2  0  0  0  0
 15 16  2  0  0  0  0
 15 14  1  0  0  0  0
 16 17  1  0  0  0  0
 17 12  2  0  0  0  0
 19 18  1  0  0  0  0
 21 20  1  0  0  0  0
 22 23  1  0  0  0  0
 23 30  1  0  0  0  0
 24 23  1  0  0  0  0
 25 26  1  0  0  0  0
 25 23  1  0  0  0  0
 26 27  1  0  0  0  0
 27 31  1  0  0  0  0
 27 29  1  0  0  0  0
 27 28  1  0  0  0  0
 30 29  1  0  0  0  0
 31 32  1  0  0  0  0
 32 33  1  0  0  0  0
 34 33  1  0  0  0  0
M  END
>  <MODEL>
1

>  <REMARK>
 VINA RESULT:      -4.5      0.000      0.000
  Name = ZINC21195156
                            x       y       z     vdW  Elec       q    Type
                         _______ _______ _______ _____ _____    ______ ____

>  <TORSDO>
F 11

>  <vina_score>
-4.5

$$$$
ZINC06193542
 OpenBabel01091701503D

 35 37  0  0  1  0  0  0  0  0999 V2000
    9.6170   13.2800    1.0860 C   0  0  0  0  0  0  0  0  0  0  0  0
    8.8430   13.1190    0.0310 N   0  0  0  0  0  0  0  0  0  0  0  0
    7.9450   12.1620    0.2670 C   0  0  0  0  0  0  0  0  0  0  0  0
    8.1690   11.6830    1.5530 C   0  0  0  0  0  0  0  0  0  0  0  0
    7.3510   10.6570    2.0570 C   0  0  0  0  0  0  0  0  0  0  0  0
    6.3650   10.1590    1.2830 N   0  0  0  0  0  0  0  0  0  0  0  0
    5.7900    9.4400    1.6320 H   0  0  0  0  0  0  0  0  0  0  0  0
    6.1560   10.6290    0.0400 C   0  0  0  0  0  0  0  0  0  0  0  0
    5.2580   10.1550   -0.6290 O   0  0  0  0  0  0  0  0  0  0  0  0
    7.5300   10.2220    3.1810 O   0  0  0  0  0  0  0  0  0  0  0  0
    6.9170   11.6090   -0.4800 N   0  0  0  0  0  0  0  0  0  0  0  0
    6.6570   12.0950   -1.8380 C   0  0  0  0  0  0  0  0  0  0  0  0
    9.2420   12.4070    2.0580 N   0  0  0  0  0  0  0  0  0  0  0  0
   10.6450   14.1890    1.1860 N   0  0  0  0  0  0  0  0  0  0  0  0
   10.9730   14.4640    2.0730 H   0  0  0  0  0  0  0  0  0  0  0  0
   11.2520   14.7450   -0.0250 C   0  0  0  0  0  0  0  0  0  0  0  0
   10.1520   15.2720   -0.9490 C   0  0  0  0  0  0  0  0  0  0  0  0
   10.5330   14.9870   -2.3500 N   0  0  0  0  0  0  0  0  0  0  0  0
   10.6410   15.8700   -2.8490 H   0  0  0  0  0  0  0  0  0  0  0  0
   11.5810   12.8740   -2.9950 C   0  0  0  0  0  0  0  0  0  0  0  0
   11.8170   14.2560   -2.3840 C   0  0  0  0  0  0  0  0  0  0  0  0
    9.4790   14.1890   -3.0080 C   0  0  0  0  0  0  0  0  0  0  0  0
    8.4230   15.1410   -3.5730 C   0  0  0  0  0  0  0  0  0  0  0  0
    9.8490   12.2610    3.3830 C   0  0  0  0  0  0  0  0  0  0  0  0
    9.8680   10.7830    3.7760 C   0  0  2  0  0  0  0  0  0  0  0  0
    9.2190   10.6160    5.0400 O   0  0  0  0  0  0  0  0  0  0  0  0
    9.6820   11.1400    5.7120 H   0  0  0  0  0  0  0  0  0  0  0  0
   11.3160   10.3000    3.8790 C   0  0  0  0  0  0  0  0  0  0  0  0
   12.1880   11.2900    3.3290 O   0  0  0  0  0  0  0  0  0  0  0  0
   13.3530   11.5200    3.9890 C   0  0  0  0  0  0  0  0  0  0  0  0
   13.7290   12.8180    4.3040 C   0  0  0  0  0  0  0  0  0  0  0  0
   14.9140   13.0500    4.9740 C   0  0  0  0  0  0  0  0  0  0  0  0
   15.7260   11.9900    5.3320 C   0  0  0  0  0  0  0  0  0  0  0  0
   15.3540   10.6950    5.0210 C   0  0  0  0  0  0  0  0  0  0  0  0
   14.1690   10.4580    4.3500 C   0  0  0  0  0  0  0  0  0  0  0  0
  1 14  1  0  0  0  0
  1 13  1  0  0  0  0
  2  3  1  0  0  0  0
  2  1  2  0  0  0  0
  3  4  2  0  0  0  0
  4  5  1  0  0  0  0
  4 13  1  0  0  0  0
  5 10  2  0  0  0  0
  6  7  1  0  0  0  0
  6  5  1  0  0  0  0
  8  6  1  0  0  0  0
  9  8  2  0  0  0  0
 11  8  1  0  0  0  0
 11  3  1  0  0  0  0
 12 11  1  0  0  0  0
 13 24  1  0  0  0  0
 14 15  1  0  0  0  0
 16 14  1  0  0  0  0
 17 16  1  0  0  0  0
 18 17  1  0  0  0  0
 19 18  1  0  0  0  0
 20 21  1  0  0  0  0
 21 18  1  0  0  0  0
 22 18  1  0  0  0  0
 23 22  1  0  0  0  0
 25 24  1  1  0  0  0
 25 28  1  0  0  0  0
 25 26  1  0  0  0  0
 26 27  1  0  0  0  0
 29 28  1  0  0  0  0
 29 30  1  0  0  0  0
 30 31  2  0  0  0  0
 30 35  1  0  0  0  0
 31 32  1  0  0  0  0
 32 33  2  0  0  0  0
 34 33  1  0  0  0  0
 35 34  2  0  0  0  0
M  END
>  <MODEL>
1

>  <REMARK>
 VINA RESULT:      -4.4      0.000      0.000
  Name = ZINC06193542
                            x       y       z     vdW  Elec       q    Type
                         _______ _______ _______ _____ _____    ______ ____

>  <TORSDO>
F 12

>  <vina_score>
-4.4

$$$$
ZINC20119545
 OpenBabel01091701283D

 32 34  0  0  0  0  0  0  0  0999 V2000
    9.3610   13.7540    1.8030 C   0  0  0  0  0  0  0  0  0  0  0  0
   10.7850   13.3020    1.6110 C   0  0  0  0  0  0  0  0  0  0  0  0
   11.3930   12.4720    2.5630 C   0  0  0  0  0  0  0  0  0  0  0  0
   10.8550   11.9420    3.7730 C   0  0  0  0  0  0  0  0  0  0  0  0
   11.6140   11.1700    4.5320 N   0  0  0  0  0  0  0  0  0  0  0  0
   12.8600   10.8700    4.2110 C   0  0  0  0  0  0  0  0  0  0  0  0
   13.4150   11.3290    3.1050 N   0  0  0  0  0  0  0  0  0  0  0  0
   12.7330   12.1050    2.2890 C   0  0  0  0  0  0  0  0  0  0  0  0
   13.0720   12.9180    0.7480 S   0  0  0  0  0  0  0  0  0  0  0  0
   11.4850   13.6990    0.5120 C   0  0  0  0  0  0  0  0  0  0  0  0
   11.0420   14.5580   -0.5930 C   0  0  0  0  0  0  0  0  0  0  0  0
   10.8250   14.0270   -1.8130 N   0  0  0  0  0  0  0  0  0  0  0  0
   10.9620   13.0630   -1.9620 H   0  0  0  0  0  0  0  0  0  0  0  0
   10.8720   15.7480   -0.4080 O   0  0  0  0  0  0  0  0  0  0  0  0
   10.3820   14.8840   -2.9150 C   0  0  0  0  0  0  0  0  0  0  0  0
    9.1020   14.3090   -3.5250 C   0  0  0  0  0  0  0  0  0  0  0  0
    9.4140   12.9690   -4.1960 C   0  0  0  0  0  0  0  0  0  0  0  0
    8.5500   15.2840   -4.5680 C   0  0  0  0  0  0  0  0  0  0  0  0
    8.0620   14.0970   -2.4240 C   0  0  0  0  0  0  0  0  0  0  0  0
    7.9310   15.2940   -1.6550 O   0  0  0  0  0  0  0  0  0  0  0  0
    7.3220   15.9020   -2.1030 H   0  0  0  0  0  0  0  0  0  0  0  0
    9.5580   12.2310    4.1470 N   0  0  0  0  0  0  0  0  0  0  0  0
    9.2640   13.1670    4.2190 H   0  0  0  0  0  0  0  0  0  0  0  0
    8.6200   11.1440    4.4390 C   0  0  0  0  0  0  0  0  0  0  0  0
    8.5910   10.1660    3.2630 C   0  0  0  0  0  0  0  0  0  0  0  0
    7.7990   10.7410    2.1670 N   0  0  0  0  0  0  0  0  0  0  0  0
    7.7030   11.7420    2.3430 H   0  0  0  0  0  0  0  0  0  0  0  0
    6.4520   10.1540    2.1250 C   0  0  0  0  0  0  0  0  0  0  0  0
    5.6450   10.8230    1.0100 C   0  0  0  0  0  0  0  0  0  0  0  0
    6.3400   10.6730   -0.2310 O   0  0  0  0  0  0  0  0  0  0  0  0
    7.6550   11.2340   -0.2260 C   0  0  0  0  0  0  0  0  0  0  0  0
    8.4830   10.5700    0.8770 C   0  0  0  0  0  0  0  0  0  0  0  0
  2  1  1  0  0  0  0
  2  3  1  0  0  0  0
  3  4  1  0  0  0  0
  4 22  1  0  0  0  0
  4  5  2  0  0  0  0
  6  5  1  0  0  0  0
  7  6  2  0  0  0  0
  8  3  2  0  0  0  0
  8  7  1  0  0  0  0
  9  8  1  0  0  0  0
 10  9  1  0  0  0  0
 10  2  2  0  0  0  0
 11 14  2  0  0  0  0
 11 10  1  0  0  0  0
 12 11  1  0  0  0  0
 13 12  1  0  0  0  0
 15 12  1  0  0  0  0
 16 15  1  0  0  0  0
 16 19  1  0  0  0  0
 17 16  1  0  0  0  0
 18 16  1  0  0  0  0
 19 20  1  0  0  0  0
 21 20  1  0  0  0  0
 22 23  1  0  0  0  0
 22 24  1  0  0  0  0
 25 24  1  0  0  0  0
 26 27  1  0  0  0  0
 26 25  1  0  0  0  0
 28 26  1  0  0  0  0
 29 28  1  0  0  0  0
 30 31  1  0  0  0  0
 30 29  1  0  0  0  0
 31 32  1  0  0  0  0
 32 26  1  0  0  0  0
M  END
>  <MODEL>
1

>  <REMARK>
 VINA RESULT:      -4.4      0.000      0.000
  Name = ZINC20119545
                            x       y       z     vdW  Elec       q    Type
                         _______ _______ _______ _____ _____    ______ ____

>  <TORSDO>
F 9

>  <vina_score>
-4.4

$$$$
ZINC15686069
 OpenBabel01091701493D

 32 33  0  0  0  0  0  0  0  0999 V2000
    5.9650   12.2020   -2.4720 C   0  0  0  0  0  0  0  0  0  0  0  0
    7.0250   11.9670   -1.4270 C   0  0  0  0  0  0  0  0  0  0  0  0
    6.9000   10.9080   -0.5450 C   0  0  0  0  0  0  0  0  0  0  0  0
    7.8690   10.6830    0.4110 C   0  0  0  0  0  0  0  0  0  0  0  0
    8.9720   11.5350    0.4940 C   0  0  0  0  0  0  0  0  0  0  0  0
    9.0920   12.6020   -0.3980 C   0  0  0  0  0  0  0  0  0  0  0  0
    8.1180   12.8110   -1.3530 C   0  0  0  0  0  0  0  0  0  0  0  0
   10.0120   11.3050    1.5200 C   0  0  0  0  0  0  0  0  0  0  0  0
   11.2550   11.7930    1.3390 N   0  0  0  0  0  0  0  0  0  0  0  0
   11.4900   12.2440    0.4950 H   0  0  0  0  0  0  0  0  0  0  0  0
    9.7460   10.6770    2.5250 O   0  0  0  0  0  0  0  0  0  0  0  0
   12.2090   11.6600    2.3460 C   0  0  0  0  0  0  0  0  0  0  0  0
   12.6930   12.7900    2.9960 C   0  0  0  0  0  0  0  0  0  0  0  0
   13.6300   12.6630    3.9970 C   0  0  0  0  0  0  0  0  0  0  0  0
   14.1050   11.3960    4.3500 C   0  0  0  0  0  0  0  0  0  0  0  0
   13.6190   10.2630    3.6900 C   0  0  0  0  0  0  0  0  0  0  0  0
   12.6780   10.3970    2.6950 C   0  0  0  0  0  0  0  0  0  0  0  0
   15.1130   11.2550    5.4160 C   0  0  0  0  0  0  0  0  0  0  0  0
   15.7330   12.3470    5.9050 O   0  0  0  0  0  0  0  0  0  0  0  0
   15.3840   10.1550    5.8550 O   0  0  0  0  0  0  0  0  0  0  0  0
    8.2680   14.1570   -2.4810 S   0  0  0  0  0  0  0  0  0  0  0  0
    7.1090   14.9600   -2.3100 O   0  0  0  0  0  0  0  0  0  0  0  0
    8.6290   13.5970   -3.7360 O   0  0  0  0  0  0  0  0  0  0  0  0
    9.5550   15.0720   -1.9830 N   0  0  0  0  0  0  0  0  0  0  0  0
   10.7880   15.0930   -2.7740 C   0  0  0  0  0  0  0  0  0  0  0  0
   11.5150   13.7550   -2.6220 C   0  0  0  0  0  0  0  0  0  0  0  0
   11.6490   13.1380   -3.9040 O   0  0  0  0  0  0  0  0  0  0  0  0
   12.1470   13.7240   -4.4950 H   0  0  0  0  0  0  0  0  0  0  0  0
    9.4610   15.8620   -0.7520 C   0  0  0  0  0  0  0  0  0  0  0  0
   10.1650   15.1180    0.3850 C   0  0  0  0  0  0  0  0  0  0  0  0
    9.4480   15.3240    1.6040 O   0  0  0  0  0  0  0  0  0  0  0  0
    8.5830   15.7150    1.4080 H   0  0  0  0  0  0  0  0  0  0  0  0
  1  2  1  0  0  0  0
  2  7  2  0  0  0  0
  2  3  1  0  0  0  0
  3  4  2  0  0  0  0
  4  5  1  0  0  0  0
  5  8  1  0  0  0  0
  6  5  2  0  0  0  0
  7  6  1  0  0  0  0
  8 11  2  0  0  0  0
  9  8  1  0  0  0  0
  9 12  1  0  0  0  0
 10  9  1  0  0  0  0
 12 17  2  0  0  0  0
 12 13  1  0  0  0  0
 13 14  2  0  0  0  0
 14 15  1  0  0  0  0
 15 18  1  0  0  0  0
 16 15  2  0  0  0  0
 17 16  1  0  0  0  0
 18 20  2  0  0  0  0
 18 19  1  0  0  0  0
 21 22  2  0  0  0  0
 21 24  1  0  0  0  0
 21  7  1  0  0  0  0
 23 21  2  0  0  0  0
 24 29  1  0  0  0  0
 25 26  1  0  0  0  0
 25 24  1  0  0  0  0
 27 26  1  0  0  0  0
 28 27  1  0  0  0  0
 29 30  1  0  0  0  0
 30 31  1  0  0  0  0
 32 31  1  0  0  0  0
M  END
>  <MODEL>
1

>  <REMARK>
 VINA RESULT:      -4.2      0.000      0.000
  Name = ZINC15686069
                            x       y       z     vdW  Elec       q    Type
                         _______ _______ _______ _____ _____    ______ ____

>  <TORSDO>
F 11

>  <vina_score>
-4.2

$$$$
ZINC08713733
 OpenBabel01091701183D

 25 26  0  0  1  0  0  0  0  0999 V2000
   11.2930   12.8040    0.1330 N   0  0  0  0  0  0  0  0  0  0  0  0
   11.0060   12.4110    1.3910 C   0  0  0  0  0  0  0  0  0  0  0  0
   12.1510   12.5590    2.1220 C   0  0  0  0  0  0  0  0  0  0  0  0
   13.1170   13.0240    1.3120 N   0  0  0  0  0  0  0  0  0  0  0  0
   12.6430   13.1810    0.1240 N   0  0  0  0  0  0  0  0  0  0  0  0
    9.0850   12.7170   -0.7540 C   0  0  0  0  0  0  0  0  0  0  0  0
   10.4130   12.8240   -0.9570 N   0  0  0  0  0  0  0  0  0  0  0  0
   10.7650   12.9170   -1.8720 H   0  0  0  0  0  0  0  0  0  0  0  0
    8.6510   12.6030    0.3770 O   0  0  0  0  0  0  0  0  0  0  0  0
    8.1660   12.7380   -1.8930 C   0  0  1  0  0  0  0  0  0  0  0  0
    7.0230   12.2420   -1.7840 N   0  0  0  0  0  0  0  0  0  0  0  0
    5.9960   11.7980   -1.6850 N   0  0  0  0  0  0  0  0  0  0  0  0
    8.9310   15.2790   -4.5940 C   0  0  0  0  0  0  0  0  0  0  0  0
    8.5110   14.6760   -3.3270 N   0  0  0  0  0  0  0  0  0  0  0  0
    8.1760   15.2450   -2.5980 H   0  0  0  0  0  0  0  0  0  0  0  0
    8.5850   13.3400   -3.1590 C   0  0  0  0  0  0  0  0  0  0  0  0
    8.9990   12.6360   -4.0610 O   0  0  0  0  0  0  0  0  0  0  0  0
   12.3030   12.2510    3.5560 C   0  0  0  0  0  0  0  0  0  0  0  0
   13.8180   12.4670    4.3220 S   0  0  0  0  0  0  0  0  0  0  0  0
   11.2470   11.8000    4.2630 N   0  0  0  0  0  0  0  0  0  0  0  0
   10.3630   12.7300    4.9830 C   0  0  0  0  0  0  0  0  0  0  0  0
    8.9130   12.4070    4.6060 C   0  0  0  0  0  0  0  0  0  0  0  0
    8.6710   11.0140    4.8130 O   0  0  0  0  0  0  0  0  0  0  0  0
    9.4700   10.1540    3.9960 C   0  0  0  0  0  0  0  0  0  0  0  0
   10.9500   10.3610    4.3410 C   0  0  0  0  0  0  0  0  0  0  0  0
  1  2  1  0  0  0  0
  2  3  2  0  0  0  0
  3 18  1  0  0  0  0
  4  3  1  0  0  0  0
  5  1  1  0  0  0  0
  5  4  2  0  0  0  0
  6  9  2  0  0  0  0
  7  6  1  0  0  0  0
  7  1  1  0  0  0  0
  8  7  1  0  0  0  0
 10 16  1  1  0  0  0
 10 11  1  0  0  0  0
 10  6  1  0  0  0  0
 11 12  1  0  0  0  0
 13 14  1  0  0  0  0
 14 16  1  0  0  0  0
 14 15  1  0  0  0  0
 17 16  2  0  0  0  0
 18 20  1  0  0  0  0
 18 19  2  0  0  0  0
 20 25  1  0  0  0  0
 20 21  1  0  0  0  0
 22 23  1  0  0  0  0
 22 21  1  0  0  0  0
 24 25  1  0  0  0  0
 24 23  1  0  0  0  0
M  END
>  <MODEL>
1

>  <REMARK>
 VINA RESULT:      -4.2      0.000      0.000
  Name = ZINC08713733
                            x       y       z     vdW  Elec       q    Type
                         _______ _______ _______ _____ _____    ______ ____

>  <TORSDO>
F 5

>  <vina_score>
-4.2

$$$$
ZINC05887406
 OpenBabel01091701333D

 33 33  0  0  1  0  0  0  0  0999 V2000
    9.0130   13.7040   -0.5350 C   0  0  2  0  0  0  0  0  0  0  0  0
    9.3510   12.6440    0.4810 C   0  0  0  0  0  0  0  0  0  0  0  0
    9.5880   12.9910    1.7620 N   0  0  0  0  0  0  0  0  0  0  0  0
    9.4700   13.9260    2.0490 H   0  0  0  0  0  0  0  0  0  0  0  0
    9.4100   11.4800    0.1470 O   0  0  0  0  0  0  0  0  0  0  0  0
   10.0040   12.0220    2.6850 C   0  0  0  0  0  0  0  0  0  0  0  0
    9.0390   11.3270    3.2260 C   0  0  0  0  0  0  0  0  0  0  0  0
    9.1830   10.2220    4.2060 C   0  0  0  0  0  0  0  0  0  0  0  0
   10.3100   10.4190    5.1870 C   0  0  0  0  0  0  0  0  0  0  0  0
   11.6710   10.1630    4.5930 C   0  0  0  0  0  0  0  0  0  0  0  0
   12.1350   11.2150    3.7240 N   0  0  0  0  0  0  0  0  0  0  0  0
   11.4310   11.9460    2.8880 C   0  0  0  0  0  0  0  0  0  0  0  0
   12.0870   12.6760    2.1710 O   0  0  0  0  0  0  0  0  0  0  0  0
   13.5690   11.5080    3.7810 C   0  0  0  0  0  0  0  0  0  0  0  0
   13.7820   12.8990    4.3820 C   0  0  0  0  0  0  0  0  0  0  0  0
   14.9280   12.8790    5.2360 O   0  0  0  0  0  0  0  0  0  0  0  0
   15.3900   11.5660    5.5580 C   0  0  0  0  0  0  0  0  0  0  0  0
    8.9710   13.0770   -1.9300 C   0  0  0  0  0  0  0  0  0  0  0  0
    6.7140   12.0380   -1.6620 C   0  0  0  0  0  0  0  0  0  0  0  0
    7.5290   13.0710   -2.4430 C   0  0  0  0  0  0  0  0  0  0  0  0
    6.9140   14.4590   -2.2510 C   0  0  0  0  0  0  0  0  0  0  0  0
   10.0800   14.8010   -0.5020 C   0  0  2  0  0  0  0  0  0  0  0  0
    9.6260   15.9150    0.4050 C   0  0  0  0  0  0  0  0  0  0  0  0
    9.8120   15.8170    1.7370 N   0  0  0  0  0  0  0  0  0  0  0  0
   10.3090   15.0530    2.1090 H   0  0  0  0  0  0  0  0  0  0  0  0
    9.0940   16.8990   -0.0610 O   0  0  0  0  0  0  0  0  0  0  0  0
    9.2920   16.8120    2.6000 O   0  0  0  0  0  0  0  0  0  0  0  0
    8.5510   16.4440    3.1070 H   0  0  0  0  0  0  0  0  0  0  0  0
   10.2920   15.3490   -1.9150 C   0  0  0  0  0  0  0  0  0  0  0  0
   11.7510   15.1450   -2.3280 C   0  0  0  0  0  0  0  0  0  0  0  0
   12.5540   14.6360   -1.1280 C   0  0  0  0  0  0  0  0  0  0  0  0
   12.5390   13.2070   -1.1190 O   0  0  0  0  0  0  0  0  0  0  0  0
   11.7850   12.8950   -0.5940 H   0  0  0  0  0  0  0  0  0  0  0  0
  1 18  1  6  0  0  0
  1 22  1  0  0  0  0
  1  2  1  0  0  0  0
  2  3  1  0  0  0  0
  3  4  1  0  0  0  0
  3  6  1  0  0  0  0
  5  2  2  0  0  0  0
  6 12  1  0  0  0  0
  6  7  2  0  0  0  0
  7  8  1  0  0  0  0
  8  9  1  0  0  0  0
 10  9  1  0  0  0  0
 11 14  1  0  0  0  0
 11 10  1  0  0  0  0
 12 11  1  0  0  0  0
 13 12  2  0  0  0  0
 14 15  1  0  0  0  0
 15 16  1  0  0  0  0
 16 17  1  0  0  0  0
 20 21  1  0  0  0  0
 20 18  1  0  0  0  0
 20 19  1  0  0  0  0
 22 29  1  6  0  0  0
 22 23  1  0  0  0  0
 23 24  1  0  0  0  0
 24 25  1  0  0  0  0
 24 27  1  0  0  0  0
 26 23  2  0  0  0  0
 27 28  1  0  0  0  0
 30 29  1  0  0  0  0
 30 31  1  0  0  0  0
 31 32  1  0  0  0  0
 32 33  1  0  0  0  0
M  END
>  <MODEL>
1

>  <REMARK>
 VINA RESULT:      -4.2      0.000      0.000
  Name = ZINC05887406
                            x       y       z     vdW  Elec       q    Type
                         _______ _______ _______ _____ _____    ______ ____

>  <TORSDO>
F 14

>  <vina_score>
-4.2

$$$$
ZINC19848804
 OpenBabel01091701303D

 33 35  0  0  1  0  0  0  0  0999 V2000
    8.9200   12.2020    2.0030 N   0  0  0  0  0  0  0  0  0  0  0  0
    9.9520   11.3510    2.0340 C   0  0  0  0  0  0  0  0  0  0  0  0
   10.4670   11.1380    0.6280 C   0  0  2  0  0  0  0  0  0  0  0  0
   11.8630   11.7810    0.4960 C   0  0  1  0  0  0  0  0  0  0  0  0
   11.5930   13.1990    0.1420 N   0  0  0  0  0  0  0  0  0  0  0  0
   11.3830   13.7710    0.9600 H   0  0  0  0  0  0  0  0  0  0  0  0
   12.4080   13.6220   -0.3000 H   0  0  0  0  0  0  0  0  0  0  0  0
   10.4540   13.1260   -0.8080 C   0  0  2  0  0  0  0  0  0  0  0  0
    9.5340   12.0280   -0.2350 C   0  0  2  0  0  0  0  0  0  0  0  0
   10.4050   10.8340    3.0330 O   0  0  0  0  0  0  0  0  0  0  0  0
    8.5990   12.6430    0.7820 C   0  0  0  0  0  0  0  0  0  0  0  0
    7.7000   13.4170    0.5300 O   0  0  0  0  0  0  0  0  0  0  0  0
   12.6050   11.7000    1.8050 C   0  0  0  0  0  0  0  0  0  0  0  0
   13.0360   10.4760    2.2790 C   0  0  0  0  0  0  0  0  0  0  0  0
   13.7170   10.3980    3.4790 C   0  0  0  0  0  0  0  0  0  0  0  0
   13.9700   11.5510    4.2110 C   0  0  0  0  0  0  0  0  0  0  0  0
   13.5400   12.7800    3.7360 C   0  0  0  0  0  0  0  0  0  0  0  0
   12.8610   12.8550    2.5290 C   0  0  0  0  0  0  0  0  0  0  0  0
   14.6400   11.4740    5.3900 O   0  0  0  0  0  0  0  0  0  0  0  0
   15.7320   12.3780    5.5760 C   0  0  0  0  0  0  0  0  0  0  0  0
   12.4420   14.0600    2.0590 O   0  0  0  0  0  0  0  0  0  0  0  0
   13.0690   14.7220    1.8440 H   0  0  0  0  0  0  0  0  0  0  0  0
   10.9400   12.7420   -2.1820 C   0  0  0  0  0  0  0  0  0  0  0  0
   10.1030   12.7950   -3.2290 O   0  0  0  0  0  0  0  0  0  0  0  0
   12.0840   12.3850   -2.3400 O   0  0  0  0  0  0  0  0  0  0  0  0
    8.1980   12.6150    3.2100 C   0  0  0  0  0  0  0  0  0  0  0  0
    8.1460   14.1430    3.2750 C   0  0  0  0  0  0  0  0  0  0  0  0
    9.3920   16.2250    2.6770 C   0  0  0  0  0  0  0  0  0  0  0  0
    9.5140   14.7160    2.8980 C   0  0  0  0  0  0  0  0  0  0  0  0
    9.7170   14.4660   -0.8600 C   0  0  0  0  0  0  0  0  0  0  0  0
   10.7000   15.6010   -0.5670 C   0  0  0  0  0  0  0  0  0  0  0  0
    9.9220   16.8830   -0.2620 C   0  0  0  0  0  0  0  0  0  0  0  0
   11.5980   15.8270   -1.7850 C   0  0  0  0  0  0  0  0  0  0  0  0
  1  2  1  0  0  0  0
  1 26  1  0  0  0  0
  2 10  2  0  0  0  0
  3  2  1  1  0  0  0
  4  3  1  0  0  0  0
  4 13  1  1  0  0  0
  5  4  1  0  0  0  0
  5  6  1  0  0  0  0
  7  5  1  0  0  0  0
  8 23  1  6  0  0  0
  8  9  1  0  0  0  0
  8  5  1  0  0  0  0
  9  3  1  0  0  0  0
  9 11  1  1  0  0  0
 11  1  1  0  0  0  0
 12 11  2  0  0  0  0
 13 14  2  0  0  0  0
 13 18  1  0  0  0  0
 14 15  1  0  0  0  0
 15 16  2  0  0  0  0
 16 19  1  0  0  0  0
 17 16  1  0  0  0  0
 18 17  2  0  0  0  0
 19 20  1  0  0  0  0
 21 18  1  0  0  0  0
 22 21  1  0  0  0  0
 24 23  2  0  0  0  0
 25 23  1  0  0  0  0
 26 27  1  0  0  0  0
 28 29  1  0  0  0  0
 29 27  1  0  0  0  0
 30  8  1  0  0  0  0
 30 31  1  0  0  0  0
 31 32  1  0  0  0  0
 33 31  1  0  0  0  0
M  END
>  <MODEL>
1

>  <REMARK>
 VINA RESULT:      -3.9      0.000      0.000
  Name = ZINC19848804
                            x       y       z     vdW  Elec       q    Type
                         _______ _______ _______ _____ _____    ______ ____

>  <TORSDO>
F 9

>  <vina_score>
-3.9

$$$$
ZINC24962321
 OpenBabel01091701323D

 26 27  0  0  1  0  0  0  0  0999 V2000
    8.3590   11.0790    0.0330 C   0  0  0  0  0  0  0  0  0  0  0  0
    9.5310   11.7440    0.0650 N   0  0  0  0  0  0  0  0  0  0  0  0
    9.7900   12.3220   -0.6900 H   0  0  0  0  0  0  0  0  0  0  0  0
   10.3480   11.6180    1.1290 C   0  0  0  0  0  0  0  0  0  0  0  0
   11.5200   12.2840    1.1600 N   0  0  0  0  0  0  0  0  0  0  0  0
   11.7450   12.9200    0.4440 H   0  0  0  0  0  0  0  0  0  0  0  0
   10.0290   10.9070    2.0600 O   0  0  0  0  0  0  0  0  0  0  0  0
    8.0400   10.3690    0.9610 O   0  0  0  0  0  0  0  0  0  0  0  0
   12.4190   12.0680    2.2120 C   0  0  0  0  0  0  0  0  0  0  0  0
   13.0000   13.1480    2.8630 C   0  0  0  0  0  0  0  0  0  0  0  0
   13.8860   12.9310    3.9000 C   0  0  0  0  0  0  0  0  0  0  0  0
   14.1950   11.6410    4.2890 C   0  0  0  0  0  0  0  0  0  0  0  0
   13.6180   10.5640    3.6430 C   0  0  0  0  0  0  0  0  0  0  0  0
   12.7300   10.7730    2.6050 C   0  0  0  0  0  0  0  0  0  0  0  0
   15.1450   11.4120    5.4010 N   0  0  0  0  0  0  0  0  0  0  0  0
   15.7310   12.3530    5.9050 O   0  0  0  0  0  0  0  0  0  0  0  0
   15.3400   10.2820    5.8130 O   0  0  0  0  0  0  0  0  0  0  0  0
    5.9980   11.3360   -0.6780 C   0  0  0  0  0  0  0  0  0  0  0  0
    7.4460   11.2200   -1.1580 C   0  0  1  0  0  0  0  0  0  0  0  0
    7.8080   12.4220   -1.9120 N   0  0  0  0  0  0  0  0  0  0  0  0
    7.1480   13.5420   -1.6890 C   0  0  0  0  0  0  0  0  0  0  0  0
    7.4610   14.6990   -2.3770 C   0  0  0  0  0  0  0  0  0  0  0  0
    8.4800   14.6730   -3.3170 C   0  0  0  0  0  0  0  0  0  0  0  0
    9.1530   13.4750   -3.5290 C   0  0  0  0  0  0  0  0  0  0  0  0
   10.1580   13.4010   -4.4410 O   0  0  0  0  0  0  0  0  0  0  0  0
    8.7820   12.3550   -2.7960 C   0  0  0  0  0  0  0  0  0  0  0  0
  1  2  1  0  0  0  0
  1  8  2  0  0  0  0
  2  4  1  0  0  0  0
  3  2  1  0  0  0  0
  4  5  1  0  0  0  0
  4  7  2  0  0  0  0
  5  9  1  0  0  0  0
  6  5  1  0  0  0  0
  9 14  2  0  0  0  0
  9 10  1  0  0  0  0
 10 11  2  0  0  0  0
 11 12  1  0  0  0  0
 12 15  1  0  0  0  0
 13 12  2  0  0  0  0
 14 13  1  0  0  0  0
 15 17  2  0  0  0  0
 15 16  2  0  0  0  0
 19 20  1  1  0  0  0
 19 18  1  0  0  0  0
 19  1  1  0  0  0  0
 20 21  1  0  0  0  0
 22 21  2  0  0  0  0
 23 22  1  0  0  0  0
 24 23  1  0  0  0  0
 24 26  2  0  0  0  0
 25 24  1  0  0  0  0
 26 20  1  0  0  0  0
M  END
>  <MODEL>
1

>  <REMARK>
 VINA RESULT:      -3.8      0.000      0.000
  Name = ZINC24962321
                            x       y       z     vdW  Elec       q    Type
                         _______ _______ _______ _____ _____    ______ ____

>  <TORSDO>
F 4

>  <vina_score>
-3.8

$$$$
ZINC02014486
 OpenBabel01091701403D

 27 28  0  0  0  0  0  0  0  0999 V2000
    9.1330   10.8480    1.1160 N   0  0  0  0  0  0  0  0  0  0  0  0
    9.1780   11.0970    0.1630 H   0  0  0  0  0  0  0  0  0  0  0  0
    7.9360   10.7350    1.7260 C   0  0  0  0  0  0  0  0  0  0  0  0
    7.8810   10.4280    2.8980 O   0  0  0  0  0  0  0  0  0  0  0  0
   11.0080   11.6200    2.2920 C   0  0  0  0  0  0  0  0  0  0  0  0
   10.3120   10.6140    1.8360 N   0  0  0  0  0  0  0  0  0  0  0  0
   12.8360   10.1620    3.1680 C   0  0  0  0  0  0  0  0  0  0  0  0
   13.9700   10.3950    3.9570 C   0  0  0  0  0  0  0  0  0  0  0  0
   13.9830   11.7140    4.2610 C   0  0  0  0  0  0  0  0  0  0  0  0
   12.9180   12.3030    3.6950 O   0  0  0  0  0  0  0  0  0  0  0  0
   12.2020   11.3820    3.0200 C   0  0  0  0  0  0  0  0  0  0  0  0
   15.0530   12.4290    5.1220 N   0  0  0  0  0  0  0  0  0  0  0  0
   15.7320   11.7890    5.9050 O   0  0  0  0  0  0  0  0  0  0  0  0
   15.2150   13.6320    5.0160 O   0  0  0  0  0  0  0  0  0  0  0  0
    6.6690   10.9870    0.9500 C   0  0  0  0  0  0  0  0  0  0  0  0
    6.9600   11.9420   -0.1400 N   0  0  0  0  0  0  0  0  0  0  0  0
    6.1080   12.4560   -0.3660 H   0  0  0  0  0  0  0  0  0  0  0  0
    8.0000   12.9000    0.2920 C   0  0  0  0  0  0  0  0  0  0  0  0
    8.2410   13.9070   -0.8350 C   0  0  0  0  0  0  0  0  0  0  0  0
    8.6960   13.1770   -2.0370 N   0  0  0  0  0  0  0  0  0  0  0  0
    9.5470   12.6630   -1.8110 H   0  0  0  0  0  0  0  0  0  0  0  0
    7.6560   12.2190   -2.4700 C   0  0  0  0  0  0  0  0  0  0  0  0
    7.4150   11.2120   -1.3430 C   0  0  0  0  0  0  0  0  0  0  0  0
    8.9870   14.1320   -3.1280 C   0  0  0  0  0  0  0  0  0  0  0  0
    9.4560   13.3460   -4.3560 C   0  0  0  0  0  0  0  0  0  0  0  0
   10.8680   13.1410   -4.2800 O   0  0  0  0  0  0  0  0  0  0  0  0
   11.0480   12.2770   -3.8800 H   0  0  0  0  0  0  0  0  0  0  0  0
  1  3  1  0  0  0  0
  1  6  1  0  0  0  0
  2  1  1  0  0  0  0
  3  4  2  0  0  0  0
  5 11  1  0  0  0  0
  6  5  2  0  0  0  0
  7  8  1  0  0  0  0
  8  9  2  0  0  0  0
  9 12  1  0  0  0  0
 10  9  1  0  0  0  0
 11  7  2  0  0  0  0
 11 10  1  0  0  0  0
 12 13  2  0  0  0  0
 14 12  2  0  0  0  0
 15  3  1  0  0  0  0
 16 18  1  0  0  0  0
 16 15  1  0  0  0  0
 17 16  1  0  0  0  0
 19 18  1  0  0  0  0
 20 21  1  0  0  0  0
 20 19  1  0  0  0  0
 22 20  1  0  0  0  0
 22 23  1  0  0  0  0
 23 16  1  0  0  0  0
 24 20  1  0  0  0  0
 25 26  1  0  0  0  0
 25 24  1  0  0  0  0
 26 27  1  0  0  0  0
M  END
>  <MODEL>
1

>  <REMARK>
 VINA RESULT:      -3.6      0.000      0.000
  Name = ZINC02014486
                            x       y       z     vdW  Elec       q    Type
                         _______ _______ _______ _____ _____    ______ ____

>  <TORSDO>
F 8

>  <vina_score>
-3.6

$$$$
ZINC09467478
 OpenBabel01091701313D

 33 35  0  0  0  0  0  0  0  0999 V2000
   12.1590   13.3380    0.1710 C   0  0  0  0  0  0  0  0  0  0  0  0
   12.9360   13.5680   -0.8620 N   0  0  0  0  0  0  0  0  0  0  0  0
   12.2920   14.2250   -1.7580 N   0  0  0  0  0  0  0  0  0  0  0  0
   11.0630   14.4550   -1.3540 C   0  0  0  0  0  0  0  0  0  0  0  0
   10.9330   13.8950   -0.1150 N   0  0  0  0  0  0  0  0  0  0  0  0
   12.6610   13.3040    2.6090 C   0  0  0  0  0  0  0  0  0  0  0  0
   13.0010   12.6230    3.7600 C   0  0  0  0  0  0  0  0  0  0  0  0
   13.2220   11.2530    3.7180 C   0  0  0  0  0  0  0  0  0  0  0  0
   13.0950   10.5630    2.5190 C   0  0  0  0  0  0  0  0  0  0  0  0
   12.7500   11.2350    1.3670 C   0  0  0  0  0  0  0  0  0  0  0  0
   12.5290   12.6130    1.4040 C   0  0  0  0  0  0  0  0  0  0  0  0
   13.5610   10.5860    4.8510 O   0  0  0  0  0  0  0  0  0  0  0  0
   14.9520   10.5080    5.1650 C   0  0  0  0  0  0  0  0  0  0  0  0
   15.3960   11.7510    5.6290 F   0  0  0  0  0  0  0  0  0  0  0  0
   15.6710   10.1540    4.0190 F   0  0  0  0  0  0  0  0  0  0  0  0
    9.8210   13.8910    0.6770 N   0  0  0  0  0  0  0  0  0  0  0  0
    9.1760   13.1500    0.6160 H   0  0  0  0  0  0  0  0  0  0  0  0
    9.6640   14.6290    1.3100 H   0  0  0  0  0  0  0  0  0  0  0  0
    9.8130   15.3190   -2.2460 S   0  0  0  0  0  0  0  0  0  0  0  0
    8.9640   13.9240   -3.0280 C   0  0  0  0  0  0  0  0  0  0  0  0
    7.8730   13.4250   -2.1150 C   0  0  0  0  0  0  0  0  0  0  0  0
    7.8280   12.1230   -1.7700 N   0  0  0  0  0  0  0  0  0  0  0  0
    8.5070   11.4980   -2.1140 H   0  0  0  0  0  0  0  0  0  0  0  0
    7.0370   14.1940   -1.6920 O   0  0  0  0  0  0  0  0  0  0  0  0
    6.7680   11.6370   -0.8840 C   0  0  0  0  0  0  0  0  0  0  0  0
    7.1670   10.2770   -0.3080 C   0  0  0  0  0  0  0  0  0  0  0  0
    7.6640   10.4530    1.0590 N   0  0  0  0  0  0  0  0  0  0  0  0
    8.9550   10.6830    1.2320 C   0  0  0  0  0  0  0  0  0  0  0  0
    9.3980   10.8580    2.6780 C   0  0  0  0  0  0  0  0  0  0  0  0
    7.7860   10.6340    3.5300 S   0  0  0  0  0  0  0  0  0  0  0  0
    9.7320   10.7520    0.3040 O   0  0  0  0  0  0  0  0  0  0  0  0
    6.7850   10.3660    2.0750 C   0  0  0  0  0  0  0  0  0  0  0  0
    5.5900   10.1540    2.0150 O   0  0  0  0  0  0  0  0  0  0  0  0
  1 11  1  0  0  0  0
  2  1  2  0  0  0  0
  3  4  2  0  0  0  0
  3  2  1  0  0  0  0
  4  5  1  0  0  0  0
  5  1  1  0  0  0  0
  5 16  1  0  0  0  0
  6  7  2  0  0  0  0
  8  7  1  0  0  0  0
  8 12  1  0  0  0  0
  9  8  2  0  0  0  0
 10 11  2  0  0  0  0
 10  9  1  0  0  0  0
 11  6  1  0  0  0  0
 12 13  1  0  0  0  0
 13 14  1  0  0  0  0
 15 13  1  0  0  0  0
 16 18  1  0  0  0  0
 17 16  1  0  0  0  0
 19  4  1  0  0  0  0
 20 19  1  0  0  0  0
 20 21  1  0  0  0  0
 21 22  1  0  0  0  0
 21 24  2  0  0  0  0
 22 25  1  0  0  0  0
 23 22  1  0  0  0  0
 25 26  1  0  0  0  0
 26 27  1  0  0  0  0
 27 28  1  0  0  0  0
 27 32  1  0  0  0  0
 28 29  1  0  0  0  0
 29 30  2  0  0  0  0
 31 28  2  0  0  0  0
 32 30  1  0  0  0  0
 33 32  2  0  0  0  0
M  END
>  <MODEL>
1

>  <REMARK>
 VINA RESULT:      -3.6      0.000      0.000
  Name = ZINC09467478
                            x       y       z     vdW  Elec       q    Type
                         _______ _______ _______ _____ _____    ______ ____

>  <TORSDO>
F 10

>  <vina_score>
-3.6

$$$$
ZINC04794950
 OpenBabel01091701273D

 24 24  0  0  0  0  0  0  0  0999 V2000
   12.0880   12.7030    1.6880 P   0  0  0  0  0  0  0  0  0  0  0  0
   10.8440   12.7020    2.7000 N   0  0  0  0  0  0  0  0  0  0  0  0
    9.3620   12.7800    2.0950 P   0  0  0  0  0  0  0  0  0  0  0  0
    9.3160   13.9700    1.0230 N   0  0  0  0  0  0  0  0  0  0  0  0
   10.4660   14.0470   -0.0890 P   0  0  0  0  0  0  0  0  0  0  0  0
   11.8860   13.8970    0.6400 N   0  0  0  0  0  0  0  0  0  0  0  0
   13.2700   12.9080    3.9950 C   0  0  0  0  0  0  0  0  0  0  0  0
   13.5170   12.9370    2.5470 N   0  0  0  0  0  0  0  0  0  0  0  0
   14.1750   12.1960    2.3050 H   0  0  0  0  0  0  0  0  0  0  0  0
   12.1530   11.2340    0.8690 N   0  0  0  0  0  0  0  0  0  0  0  0
   12.8050   11.3150    0.0900 H   0  0  0  0  0  0  0  0  0  0  0  0
   12.6000   10.1550    1.7590 C   0  0  0  0  0  0  0  0  0  0  0  0
    8.2620   13.0860    3.3310 N   0  0  0  0  0  0  0  0  0  0  0  0
    7.9000   14.5090    3.3720 C   0  0  0  0  0  0  0  0  0  0  0  0
    8.7890   12.6400    4.6280 C   0  0  0  0  0  0  0  0  0  0  0  0
    8.9810   11.3230    1.3430 N   0  0  0  0  0  0  0  0  0  0  0  0
    7.6110   11.3490    0.8130 C   0  0  0  0  0  0  0  0  0  0  0  0
    9.1700   10.1920    2.2600 C   0  0  0  0  0  0  0  0  0  0  0  0
   10.2650   12.7990   -1.2000 N   0  0  0  0  0  0  0  0  0  0  0  0
   11.3510   12.7940   -2.1890 C   0  0  0  0  0  0  0  0  0  0  0  0
    8.9540   12.8870   -1.8580 C   0  0  0  0  0  0  0  0  0  0  0  0
   10.3900   15.5300   -0.8810 N   0  0  0  0  0  0  0  0  0  0  0  0
   11.7220   15.9560   -1.3310 C   0  0  0  0  0  0  0  0  0  0  0  0
    9.7710   16.5530   -0.0270 C   0  0  0  0  0  0  0  0  0  0  0  0
  1  8  1  0  0  0  0
  1  2  1  0  0  0  0
  3  2  1  0  0  0  0
  3 13  1  0  0  0  0
  4  3  1  0  0  0  0
  5  6  1  0  0  0  0
  5  4  1  0  0  0  0
  6  1  1  0  0  0  0
  8  7  1  0  0  0  0
  9  8  1  0  0  0  0
 10  1  1  0  0  0  0
 10 12  1  0  0  0  0
 11 10  1  0  0  0  0
 13 14  1  0  0  0  0
 13 15  1  0  0  0  0
 16  3  1  0  0  0  0
 16 18  1  0  0  0  0
 17 16  1  0  0  0  0
 19  5  1  0  0  0  0
 20 19  1  0  0  0  0
 21 19  1  0  0  0  0
 22  5  1  0  0  0  0
 22 24  1  0  0  0  0
 23 22  1  0  0  0  0
M  END
>  <MODEL>
1

>  <REMARK>
 VINA RESULT:      -3.4      0.000      0.000
  Name = ZINC04794950
                            x       y       z     vdW  Elec       q    Type
                         _______ _______ _______ _____ _____    ______ ____

>  <TORSDO>
F 6

>  <vina_score>
-3.4

$$$$
ZINC28887676
 OpenBabel01091701253D

 34 37  0  0  1  0  0  0  0  0999 V2000
    8.2420   13.0470   -2.1830 C   0  0  0  0  0  0  0  0  0  0  0  0
    6.9870   12.4840   -2.3270 C   0  0  0  0  0  0  0  0  0  0  0  0
    6.4890   11.6370   -1.3560 C   0  0  0  0  0  0  0  0  0  0  0  0
    7.2480   11.3500   -0.2320 C   0  0  0  0  0  0  0  0  0  0  0  0
    8.5110   11.9200   -0.0840 C   0  0  0  0  0  0  0  0  0  0  0  0
    9.0050   12.7660   -1.0660 C   0  0  0  0  0  0  0  0  0  0  0  0
    9.2800   11.6380    1.0520 N   0  0  0  0  0  0  0  0  0  0  0  0
    9.9220   10.8920    1.0390 H   0  0  0  0  0  0  0  0  0  0  0  0
    9.1410   12.3890    2.1630 C   0  0  0  0  0  0  0  0  0  0  0  0
    8.4270   13.3680    2.1480 O   0  0  0  0  0  0  0  0  0  0  0  0
    9.8750   12.0100    3.4250 C   0  0  1  0  0  0  0  0  0  0  0  0
   10.7390   10.7470    3.2050 C   0  0  0  0  0  0  0  0  0  0  0  0
   11.9860   11.0030    4.0200 C   0  0  0  0  0  0  0  0  0  0  0  0
   12.0740   12.3080    4.3310 N   0  0  0  0  0  0  0  0  0  0  0  0
   12.7900   10.1550    4.3450 O   0  0  0  0  0  0  0  0  0  0  0  0
   10.9460   13.0660    3.7790 C   0  0  0  0  0  0  0  0  0  0  0  0
   13.1590   12.8970    5.1210 C   0  0  0  0  0  0  0  0  0  0  0  0
   14.4720   12.7890    4.3460 C   0  0  0  0  0  0  0  0  0  0  0  0
   15.5370   11.8330    4.8870 C   0  0  0  0  0  0  0  0  0  0  0  0
   15.7330   13.3460    5.0100 C   0  0  0  0  0  0  0  0  0  0  0  0
    8.8690   14.1260   -3.4270 S   0  0  0  0  0  0  0  0  0  0  0  0
    7.8030   14.9960   -3.7860 O   0  0  0  0  0  0  0  0  0  0  0  0
    9.5360   13.3060   -4.3770 O   0  0  0  0  0  0  0  0  0  0  0  0
   10.0310   15.0700   -2.7180 N   0  0  0  0  0  0  0  0  0  0  0  0
   10.6630   15.0320   -0.3830 C   0  0  0  0  0  0  0  0  0  0  0  0
   11.4430   14.5160    0.6390 C   0  0  0  0  0  0  0  0  0  0  0  0
   12.3710   13.5270    0.3690 C   0  0  0  0  0  0  0  0  0  0  0  0
   12.5240   13.0500   -0.9200 C   0  0  0  0  0  0  0  0  0  0  0  0
   11.7450   13.5560   -1.9430 C   0  0  0  0  0  0  0  0  0  0  0  0
   10.8160   14.5520   -1.6820 C   0  0  0  0  0  0  0  0  0  0  0  0
    9.5140   16.3170    1.2550 C   0  0  0  0  0  0  0  0  0  0  0  0
    9.7500   16.0040   -0.1190 O   0  0  0  0  0  0  0  0  0  0  0  0
    6.7600   10.5170    0.7260 O   0  0  0  0  0  0  0  0  0  0  0  0
    7.1500    9.6760    0.8590 H   0  0  0  0  0  0  0  0  0  0  0  0
  1  6  1  0  0  0  0
  2  1  2  0  0  0  0
  2  3  1  0  0  0  0
  3  4  2  0  0  0  0
  4  5  1  0  0  0  0
  4 33  1  0  0  0  0
  5  7  1  0  0  0  0
  6  5  2  0  0  0  0
  7  9  1  0  0  0  0
  8  7  1  0  0  0  0
 10  9  2  0  0  0  0
 11  9  1  6  0  0  0
 11 16  1  0  0  0  0
 12 11  1  0  0  0  0
 12 13  1  0  0  0  0
 13 14  1  0  0  0  0
 13 15  2  0  0  0  0
 14 17  1  0  0  0  0
 16 14  1  0  0  0  0
 18 19  1  0  0  0  0
 18 20  1  0  0  0  0
 18 17  1  0  0  0  0
 19 20  1  0  0  0  0
 21 24  1  0  0  0  0
 21  1  1  0  0  0  0
 22 21  2  0  0  0  0
 23 21  2  0  0  0  0
 24 30  1  0  0  0  0
 25 32  1  0  0  0  0
 25 26  2  0  0  0  0
 27 26  1  0  0  0  0
 28 27  2  0  0  0  0
 29 30  2  0  0  0  0
 29 28  1  0  0  0  0
 30 25  1  0  0  0  0
 32 31  1  0  0  0  0
 33 34  1  0  0  0  0
M  END
>  <MODEL>
1

>  <REMARK>
 VINA RESULT:      -3.1      0.000      0.000
  Name = ZINC28887676
                            x       y       z     vdW  Elec       q    Type
                         _______ _______ _______ _____ _____    ______ ____

>  <TORSDO>
F 9

>  <vina_score>
-3.1

$$$$
ZINC29372671
 OpenBabel01091701423D

 33 34  0  0  1  0  0  0  0  0999 V2000
   10.0300   12.1230    0.7290 N   0  0  0  0  0  0  0  0  0  0  0  0
   10.1680   12.7080   -0.0510 H   0  0  0  0  0  0  0  0  0  0  0  0
    9.0300   11.2200    0.7260 C   0  0  0  0  0  0  0  0  0  0  0  0
    8.8600   10.5000    1.6870 O   0  0  0  0  0  0  0  0  0  0  0  0
   10.5620   12.7180    3.1030 C   0  0  0  0  0  0  0  0  0  0  0  0
   11.5770   12.7200    4.0480 C   0  0  0  0  0  0  0  0  0  0  0  0
   11.3390   13.2240    5.4480 C   0  0  0  0  0  0  0  0  0  0  0  0
   12.8030   12.2480    3.6650 C   0  0  0  0  0  0  0  0  0  0  0  0
   12.5350   11.7970    1.9610 S   0  0  0  0  0  0  0  0  0  0  0  0
   10.8620   12.2300    1.8270 C   0  0  0  0  0  0  0  0  0  0  0  0
   14.0300   12.1410    4.4580 C   0  0  0  0  0  0  0  0  0  0  0  0
   14.5070   10.9260    4.7990 N   0  0  0  0  0  0  0  0  0  0  0  0
   14.0300   10.1130    4.5160 H   0  0  0  0  0  0  0  0  0  0  0  0
   15.7330   10.8190    5.5920 C   0  0  0  0  0  0  0  0  0  0  0  0
   14.6180   13.1470    4.8080 O   0  0  0  0  0  0  0  0  0  0  0  0
    9.2180   13.2070    3.4320 C   0  0  0  0  0  0  0  0  0  0  0  0
    8.5710   12.6620    4.3060 O   0  0  0  0  0  0  0  0  0  0  0  0
    8.7010   14.2590    2.7670 O   0  0  0  0  0  0  0  0  0  0  0  0
    9.7440   15.5920    1.0160 C   0  0  0  0  0  0  0  0  0  0  0  0
    9.5870   15.3840    2.5240 C   0  0  0  0  0  0  0  0  0  0  0  0
    8.1230   11.1040   -0.4710 C   0  0  1  0  0  0  0  0  0  0  0  0
    6.6790   10.9140   -0.0020 C   0  0  0  0  0  0  0  0  0  0  0  0
    8.2180   12.3250   -1.2750 N   0  0  0  0  0  0  0  0  0  0  0  0
    7.1090   12.9350   -1.6480 C   0  0  0  0  0  0  0  0  0  0  0  0
    7.1500   14.0900   -2.4070 C   0  0  0  0  0  0  0  0  0  0  0  0
    8.3750   14.6130   -2.7790 C   0  0  0  0  0  0  0  0  0  0  0  0
    9.5340   13.9440   -2.3690 C   0  0  0  0  0  0  0  0  0  0  0  0
    9.4080   12.7860   -1.6010 C   0  0  0  0  0  0  0  0  0  0  0  0
   10.8700   14.4580   -2.7380 C   0  0  0  0  0  0  0  0  0  0  0  0
   11.2270   15.7140   -2.3980 N   0  0  0  0  0  0  0  0  0  0  0  0
   12.1170   16.0560   -2.6440 H   0  0  0  0  0  0  0  0  0  0  0  0
   10.5970   16.2860   -1.9040 H   0  0  0  0  0  0  0  0  0  0  0  0
   11.6470   13.7510   -3.3480 O   0  0  0  0  0  0  0  0  0  0  0  0
  1 10  1  0  0  0  0
  2  1  1  0  0  0  0
  3  1  1  0  0  0  0
  3  4  2  0  0  0  0
  5 16  1  0  0  0  0
  5  6  1  0  0  0  0
  6  7  1  0  0  0  0
  8  6  2  0  0  0  0
  8 11  1  0  0  0  0
  9  8  1  0  0  0  0
 10  9  1  0  0  0  0
 10  5  2  0  0  0  0
 11 12  1  0  0  0  0
 11 15  2  0  0  0  0
 12 14  1  0  0  0  0
 13 12  1  0  0  0  0
 16 17  2  0  0  0  0
 18 16  1  0  0  0  0
 19 20  1  0  0  0  0
 20 18  1  0  0  0  0
 21 23  1  1  0  0  0
 21 22  1  0  0  0  0
 21  3  1  0  0  0  0
 24 23  1  0  0  0  0
 25 24  2  0  0  0  0
 26 25  1  0  0  0  0
 26 27  1  0  0  0  0
 27 28  2  0  0  0  0
 28 23  1  0  0  0  0
 29 30  1  0  0  0  0
 29 27  1  0  0  0  0
 30 32  1  0  0  0  0
 31 30  1  0  0  0  0
 33 29  2  0  0  0  0
M  END
>  <MODEL>
1

>  <REMARK>
 VINA RESULT:      -2.7      0.000      0.000
  Name = ZINC29372671
                            x       y       z     vdW  Elec       q    Type
                         _______ _______ _______ _____ _____    ______ ____

>  <TORSDO>
F 8

>  <vina_score>
-2.7

$$$$
ZINC12801698
 OpenBabel01091701313D

 33 35  0  0  0  0  0  0  0  0999 V2000
    6.5170   10.7480    0.0300 C   0  0  0  0  0  0  0  0  0  0  0  0
    7.8170   10.4540   -0.1690 N   0  0  0  0  0  0  0  0  0  0  0  0
    8.1820   10.4340   -1.0830 H   0  0  0  0  0  0  0  0  0  0  0  0
    6.0670   10.7720    1.1570 O   0  0  0  0  0  0  0  0  0  0  0  0
    8.6480   10.1750    0.9240 N   0  0  0  0  0  0  0  0  0  0  0  0
    8.8600    9.2430    1.1560 H   0  0  0  0  0  0  0  0  0  0  0  0
    9.1580   11.1850    1.6570 C   0  0  0  0  0  0  0  0  0  0  0  0
    8.8950   12.3380    1.3700 O   0  0  0  0  0  0  0  0  0  0  0  0
   10.0310   10.8920    2.8060 C   0  0  0  0  0  0  0  0  0  0  0  0
    9.5450   10.2090    3.8920 C   0  0  0  0  0  0  0  0  0  0  0  0
   11.0020   10.1530    4.9280 S   0  0  0  0  0  0  0  0  0  0  0  0
   12.0990   11.0340    3.8270 C   0  0  0  0  0  0  0  0  0  0  0  0
   11.3080   11.2830    2.8030 N   0  0  0  0  0  0  0  0  0  0  0  0
   13.4330   11.3630    4.0010 N   0  0  0  0  0  0  0  0  0  0  0  0
   14.1040   10.3950    4.8790 C   0  0  0  0  0  0  0  0  0  0  0  0
   15.5860   10.7610    4.9960 C   0  0  0  0  0  0  0  0  0  0  0  0
   15.7040   12.1020    5.4790 O   0  0  0  0  0  0  0  0  0  0  0  0
   15.0620   13.0710    4.6460 C   0  0  0  0  0  0  0  0  0  0  0  0
   13.5750   12.7290    4.5260 C   0  0  0  0  0  0  0  0  0  0  0  0
    5.6230   11.0480   -1.1450 C   0  0  0  0  0  0  0  0  0  0  0  0
    6.6080   11.7710   -2.4850 S   0  0  0  0  0  0  0  0  0  0  0  0
    6.8520   13.4950   -1.9710 C   0  0  0  0  0  0  0  0  0  0  0  0
    8.9610   14.2960   -0.9580 N   0  0  0  0  0  0  0  0  0  0  0  0
    8.4620   14.4680   -0.1280 H   0  0  0  0  0  0  0  0  0  0  0  0
    8.3160   13.8400   -2.0510 C   0  0  0  0  0  0  0  0  0  0  0  0
    8.9160   13.7040   -3.0970 O   0  0  0  0  0  0  0  0  0  0  0  0
   12.1960   16.0410   -1.0950 C   0  0  0  0  0  0  0  0  0  0  0  0
   13.0730   14.9710   -1.0960 C   0  0  0  0  0  0  0  0  0  0  0  0
   12.5890   13.6780   -1.0510 C   0  0  0  0  0  0  0  0  0  0  0  0
   11.2250   13.4490   -1.0050 C   0  0  0  0  0  0  0  0  0  0  0  0
   10.7520   12.1840   -0.9620 F   0  0  0  0  0  0  0  0  0  0  0  0
   10.3420   14.5220   -1.0050 C   0  0  0  0  0  0  0  0  0  0  0  0
   10.8330   15.8210   -1.0560 C   0  0  0  0  0  0  0  0  0  0  0  0
  1  4  2  0  0  0  0
  2  1  1  0  0  0  0
  2  5  1  0  0  0  0
  3  2  1  0  0  0  0
  5  6  1  0  0  0  0
  5  7  1  0  0  0  0
  7  9  1  0  0  0  0
  8  7  2  0  0  0  0
  9 10  2  0  0  0  0
 10 11  1  0  0  0  0
 12 14  1  0  0  0  0
 12 11  1  0  0  0  0
 13  9  1  0  0  0  0
 13 12  2  0  0  0  0
 14 19  1  0  0  0  0
 14 15  1  0  0  0  0
 15 16  1  0  0  0  0
 16 17  1  0  0  0  0
 18 17  1  0  0  0  0
 19 18  1  0  0  0  0
 20  1  1  0  0  0  0
 21 22  1  0  0  0  0
 21 20  1  0  0  0  0
 23 24  1  0  0  0  0
 25 22  1  0  0  0  0
 25 23  1  0  0  0  0
 26 25  2  0  0  0  0
 27 33  1  0  0  0  0
 28 27  2  0  0  0  0
 28 29  1  0  0  0  0
 29 30  2  0  0  0  0
 30 31  1  0  0  0  0
 32 30  1  0  0  0  0
 32 23  1  0  0  0  0
 33 32  2  0  0  0  0
M  END
>  <MODEL>
1

>  <REMARK>
 VINA RESULT:      -2.3      0.000      0.000
  Name = ZINC12801698
                            x       y       z     vdW  Elec       q    Type
                         _______ _______ _______ _____ _____    ______ ____

>  <TORSDO>
F 8

>  <vina_score>
-2.3

$$$$
ZINC15636405
 OpenBabel01091701463D

 36 39  0  0  1  0  0  0  0  0999 V2000
   12.2890   11.8190    1.4480 C   0  0  0  0  0  0  0  0  0  0  0  0
   11.3900   10.9560    1.8130 N   0  0  0  0  0  0  0  0  0  0  0  0
   11.6180   14.2760   -1.9470 C   0  0  0  0  0  0  0  0  0  0  0  0
   12.5780   14.6330   -1.0180 C   0  0  0  0  0  0  0  0  0  0  0  0
   12.8030   13.8390    0.0880 C   0  0  0  0  0  0  0  0  0  0  0  0
   12.0560   12.6720    0.2690 C   0  0  0  0  0  0  0  0  0  0  0  0
   11.0920   12.3150   -0.6770 C   0  0  0  0  0  0  0  0  0  0  0  0
   10.8750   13.1200   -1.7750 C   0  0  0  0  0  0  0  0  0  0  0  0
   10.1470   10.9250    1.1690 N   0  0  0  0  0  0  0  0  0  0  0  0
   10.0910   11.0840    0.1990 H   0  0  0  0  0  0  0  0  0  0  0  0
    9.0270   10.6780    1.8770 C   0  0  0  0  0  0  0  0  0  0  0  0
    9.0960   10.4830    3.0750 O   0  0  0  0  0  0  0  0  0  0  0  0
    7.7150   10.6440    1.1960 C   0  0  0  0  0  0  0  0  0  0  0  0
    6.5860   10.1790    1.8740 C   0  0  0  0  0  0  0  0  0  0  0  0
    5.3640   10.1540    1.2350 C   0  0  0  0  0  0  0  0  0  0  0  0
    5.2570   10.5780   -0.0790 C   0  0  0  0  0  0  0  0  0  0  0  0
    6.3720   11.0390   -0.7550 C   0  0  0  0  0  0  0  0  0  0  0  0
    7.6000   11.0740   -0.1260 C   0  0  0  0  0  0  0  0  0  0  0  0
    6.2490   11.4950   -2.1580 N   0  0  0  0  0  0  0  0  0  0  0  0
    5.5890   12.4840   -2.4210 O   0  0  0  0  0  0  0  0  0  0  0  0
    6.8060   10.8790   -3.0500 O   0  0  0  0  0  0  0  0  0  0  0  0
   13.5700   11.9480    2.2310 C   0  0  0  0  0  0  0  0  0  0  0  0
   13.4030   13.0220    3.3080 C   0  0  1  0  0  0  0  0  0  0  0  0
   11.9620   13.0740    3.7450 C   0  0  1  0  0  0  0  0  0  0  0  0
   11.3410   12.2220    4.5690 C   0  0  0  0  0  0  0  0  0  0  0  0
   10.0060   12.5660    4.7120 N   0  0  0  0  0  0  0  0  0  0  0  0
    9.4280   12.3850    5.4870 H   0  0  0  0  0  0  0  0  0  0  0  0
    9.6370   13.2370    3.4970 C   0  0  1  0  0  0  0  0  0  0  0  0
    8.4990   14.2010    3.4710 C   0  0  0  0  0  0  0  0  0  0  0  0
    8.6020   15.1660    2.5200 C   0  0  0  0  0  0  0  0  0  0  0  0
    9.7390   15.1530    1.5760 C   0  0  0  0  0  0  0  0  0  0  0  0
   10.9220   14.6320    1.9630 C   0  0  0  0  0  0  0  0  0  0  0  0
   10.9410   14.0920    3.3500 C   0  0  2  0  0  0  0  0  0  0  0  0
   14.2760   12.6890    4.4890 C   0  0  0  0  0  0  0  0  0  0  0  0
   14.7260   11.4360    4.6600 O   0  0  0  0  0  0  0  0  0  0  0  0
   14.5730   13.5500    5.2830 O   0  0  0  0  0  0  0  0  0  0  0  0
  1  2  2  0  0  0  0
  1 22  1  0  0  0  0
  3  8  2  0  0  0  0
  3  4  1  0  0  0  0
  4  5  2  0  0  0  0
  5  6  1  0  0  0  0
  6  1  1  0  0  0  0
  7  6  2  0  0  0  0
  8  7  1  0  0  0  0
  9  2  1  0  0  0  0
  9 11  1  0  0  0  0
 10  9  1  0  0  0  0
 11 12  2  0  0  0  0
 13 14  2  0  0  0  0
 13 11  1  0  0  0  0
 15 14  1  0  0  0  0
 16 15  2  0  0  0  0
 17 18  2  0  0  0  0
 17 16  1  0  0  0  0
 18 13  1  0  0  0  0
 19 17  1  0  0  0  0
 20 19  2  0  0  0  0
 21 19  2  0  0  0  0
 23 22  1  6  0  0  0
 23 24  1  0  0  0  0
 23 34  1  0  0  0  0
 24 25  1  1  0  0  0
 25 26  1  0  0  0  0
 26 27  1  0  0  0  0
 28 29  1  1  0  0  0
 28 26  1  0  0  0  0
 30 29  1  0  0  0  0
 31 32  1  0  0  0  0
 31 30  1  0  0  0  0
 33 32  1  6  0  0  0
 33 28  1  0  0  0  0
 33 24  1  0  0  0  0
 34 35  2  0  0  0  0
 34 36  1  0  0  0  0
M  END
>  <MODEL>
1

>  <REMARK>
 VINA RESULT:      -2.0      0.000      0.000
  Name = ZINC15636405
                            x       y       z     vdW  Elec       q    Type
                         _______ _______ _______ _____ _____    ______ ____

>  <TORSDO>
F 8

>  <vina_score>
-2.0

$$$$
ZINC03766761
 OpenBabel01091701263D

 29 31  0  0  0  0  0  0  0  0999 V2000
   11.1430   13.0820    0.6440 C   0  0  0  0  0  0  0  0  0  0  0  0
    9.9280   12.4220    0.4410 C   0  0  0  0  0  0  0  0  0  0  0  0
    9.4330   11.2650    0.9090 N   0  0  0  0  0  0  0  0  0  0  0  0
    8.2620   10.8520    0.5760 N   0  0  0  0  0  0  0  0  0  0  0  0
    7.4880   11.5650   -0.2530 C   0  0  0  0  0  0  0  0  0  0  0  0
    7.9640   12.7760   -0.7710 C   0  0  0  0  0  0  0  0  0  0  0  0
    9.1960   13.1960   -0.4050 N   0  0  0  0  0  0  0  0  0  0  0  0
    9.8960   14.2730   -0.7190 C   0  0  0  0  0  0  0  0  0  0  0  0
   11.0810   14.2400   -0.1030 N   0  0  0  0  0  0  0  0  0  0  0  0
    6.1500   11.0760   -0.6220 C   0  0  0  0  0  0  0  0  0  0  0  0
    5.3220   10.5970    0.3280 N   0  0  0  0  0  0  0  0  0  0  0  0
    4.4280   10.2700    0.0800 H   0  0  0  0  0  0  0  0  0  0  0  0
    5.6130   10.5740    1.2680 H   0  0  0  0  0  0  0  0  0  0  0  0
    5.7930   11.1040   -1.7840 O   0  0  0  0  0  0  0  0  0  0  0  0
   11.9830   12.1540    2.6850 N   0  0  0  0  0  0  0  0  0  0  0  0
   11.0560   12.0290    2.9940 H   0  0  0  0  0  0  0  0  0  0  0  0
   12.2220   12.6480    1.4540 C   0  0  0  0  0  0  0  0  0  0  0  0
   13.3640   12.7210    1.0380 O   0  0  0  0  0  0  0  0  0  0  0  0
   14.8980   12.4800    4.9060 C   0  0  0  0  0  0  0  0  0  0  0  0
   15.1650   11.1460    5.1820 C   0  0  0  0  0  0  0  0  0  0  0  0
   14.3780   10.1530    4.6300 C   0  0  0  0  0  0  0  0  0  0  0  0
   13.3230   10.4850    3.8020 C   0  0  0  0  0  0  0  0  0  0  0  0
   13.0500   11.8180    3.5230 C   0  0  0  0  0  0  0  0  0  0  0  0
   13.8430   12.8170    4.0730 C   0  0  0  0  0  0  0  0  0  0  0  0
   15.7230   14.7040    4.7580 C   0  0  0  0  0  0  0  0  0  0  0  0
   15.6730   13.4550    5.4490 O   0  0  0  0  0  0  0  0  0  0  0  0
    7.1940   13.5230   -1.6270 N   0  0  0  0  0  0  0  0  0  0  0  0
    6.3710   13.9540   -1.3010 H   0  0  0  0  0  0  0  0  0  0  0  0
    7.4650   13.6290   -2.5680 H   0  0  0  0  0  0  0  0  0  0  0  0
  1 17  1  0  0  0  0
  2  1  2  0  0  0  0
  2  3  1  0  0  0  0
  4  3  2  0  0  0  0
  5  4  1  0  0  0  0
  6  7  1  0  0  0  0
  6  5  2  0  0  0  0
  7  2  1  0  0  0  0
  8  7  1  0  0  0  0
  8  9  2  0  0  0  0
  9  1  1  0  0  0  0
 10  5  1  0  0  0  0
 10 11  1  0  0  0  0
 11 13  1  0  0  0  0
 12 11  1  0  0  0  0
 14 10  2  0  0  0  0
 15 16  1  0  0  0  0
 15 23  1  0  0  0  0
 17 15  1  0  0  0  0
 18 17  2  0  0  0  0
 19 20  1  0  0  0  0
 19 26  1  0  0  0  0
 21 20  2  0  0  0  0
 22 21  1  0  0  0  0
 23 22  2  0  0  0  0
 23 24  1  0  0  0  0
 24 19  2  0  0  0  0
 25 26  1  0  0  0  0
 27 28  1  0  0  0  0
 27  6  1  0  0  0  0
 29 27  1  0  0  0  0
M  END
>  <MODEL>
1

>  <REMARK>
 VINA RESULT:      -1.8      0.000      0.000
  Name = ZINC03766761
                            x       y       z     vdW  Elec       q    Type
                         _______ _______ _______ _____ _____    ______ ____

>  <TORSDO>
F 5

>  <vina_score>
-1.8

$$$$
ZINC30969187
 OpenBabel01091701423D

 32 33  0  0  1  0  0  0  0  0999 V2000
    7.5040   10.3430    2.0310 C   0  0  0  0  0  0  0  0  0  0  0  0
   11.0740   12.3300    3.2930 C   0  0  2  0  0  0  0  0  0  0  0  0
    9.7160   12.9960    3.5320 C   0  0  0  0  0  0  0  0  0  0  0  0
    8.6810   12.3860    2.5840 C   0  0  0  0  0  0  0  0  0  0  0  0
    8.5860   10.9400    2.8260 N   0  0  0  0  0  0  0  0  0  0  0  0
    8.3650   10.8030    3.8120 H   0  0  0  0  0  0  0  0  0  0  0  0
    9.8660   10.2720    2.5580 C   0  0  0  0  0  0  0  0  0  0  0  0
   10.9370   10.8200    3.5050 C   0  0  0  0  0  0  0  0  0  0  0  0
   13.3940   12.6160    4.1010 N   0  0  0  0  0  0  0  0  0  0  0  0
   13.6920   12.0580    3.3470 H   0  0  0  0  0  0  0  0  0  0  0  0
   12.0840   12.8850    4.2640 C   0  0  0  0  0  0  0  0  0  0  0  0
   11.7180   13.5740    5.1930 O   0  0  0  0  0  0  0  0  0  0  0  0
   14.3760   13.1550    5.0440 C   0  0  0  0  0  0  0  0  0  0  0  0
   15.7290   12.4790    4.8150 C   0  0  0  0  0  0  0  0  0  0  0  0
   14.8210   10.1530    4.7120 C   0  0  0  0  0  0  0  0  0  0  0  0
   15.7330   11.1050    5.4900 C   0  0  0  0  0  0  0  0  0  0  0  0
    7.6180   10.8060    0.6020 C   0  0  0  0  0  0  0  0  0  0  0  0
    6.7530   11.7190    0.1190 N   0  0  0  0  0  0  0  0  0  0  0  0
    6.0480   12.0840    0.7000 H   0  0  0  0  0  0  0  0  0  0  0  0
    8.4870   10.3550   -0.1140 O   0  0  0  0  0  0  0  0  0  0  0  0
    6.8570   12.1490   -1.2110 N   0  0  0  0  0  0  0  0  0  0  0  0
    6.3830   11.6630   -1.9240 H   0  0  0  0  0  0  0  0  0  0  0  0
    7.6070   13.2270   -1.5120 C   0  0  0  0  0  0  0  0  0  0  0  0
    8.1910   13.8250   -0.6340 O   0  0  0  0  0  0  0  0  0  0  0  0
    7.7200   13.6900   -2.9430 C   0  0  0  0  0  0  0  0  0  0  0  0
    9.1750   14.0510   -3.2500 C   0  0  1  0  0  0  0  0  0  0  0  0
    9.5860   15.2690   -2.4060 C   0  0  0  0  0  0  0  0  0  0  0  0
   11.1320   15.4190   -2.4960 C   0  0  0  0  0  0  0  0  0  0  0  0
   11.6490   13.6540   -2.3860 S   0  0  0  0  0  0  0  0  0  0  0  0
   12.6520   13.4040   -3.3620 O   0  0  0  0  0  0  0  0  0  0  0  0
   11.9010   13.3300   -1.0250 O   0  0  0  0  0  0  0  0  0  0  0  0
   10.0840   12.8450   -2.9140 C   0  0  0  0  0  0  0  0  0  0  0  0
  1  5  1  0  0  0  0
  2  8  1  0  0  0  0
  2  3  1  0  0  0  0
  2 11  1  1  0  0  0
  4  5  1  0  0  0  0
  4  3  1  0  0  0  0
  5  6  1  0  0  0  0
  7  5  1  0  0  0  0
  7  8  1  0  0  0  0
  9 11  1  0  0  0  0
  9 13  1  0  0  0  0
 10  9  1  0  0  0  0
 11 12  2  0  0  0  0
 14 13  1  0  0  0  0
 14 16  1  0  0  0  0
 15 16  1  0  0  0  0
 17  1  1  0  0  0  0
 18 17  1  0  0  0  0
 18 19  1  0  0  0  0
 20 17  2  0  0  0  0
 21 18  1  0  0  0  0
 22 21  1  0  0  0  0
 23 21  1  0  0  0  0
 23 24  2  0  0  0  0
 25 23  1  0  0  0  0
 26 25  1  1  0  0  0
 26 32  1  0  0  0  0
 26 27  1  0  0  0  0
 28 27  1  0  0  0  0
 28 29  1  0  0  0  0
 29 31  2  0  0  0  0
 30 29  2  0  0  0  0
 32 29  1  0  0  0  0
M  END
>  <MODEL>
1

>  <REMARK>
 VINA RESULT:      -1.0      0.000      0.000
  Name = ZINC30969187
                            x       y       z     vdW  Elec       q    Type
                         _______ _______ _______ _____ _____    ______ ____

>  <TORSDO>
F 9

>  <vina_score>
-1.0

$$$$
ZINC20573659
 OpenBabel01091701253D

 37 40  0  0  0  0  0  0  0  0999 V2000
   11.2770   15.1290   -1.9200 C   0  0  0  0  0  0  0  0  0  0  0  0
   10.2440   14.2660   -1.9850 N   0  0  0  0  0  0  0  0  0  0  0  0
   10.4680   12.8570   -2.3390 C   0  0  0  0  0  0  0  0  0  0  0  0
    9.8500   11.9710   -1.2530 C   0  0  0  0  0  0  0  0  0  0  0  0
    8.3810   12.3490   -1.0650 C   0  0  0  0  0  0  0  0  0  0  0  0
    7.7570   11.4550   -0.0240 C   0  0  0  0  0  0  0  0  0  0  0  0
    6.5350   10.8920   -0.1670 C   0  0  0  0  0  0  0  0  0  0  0  0
    5.6610   11.1010   -1.3780 C   0  0  0  0  0  0  0  0  0  0  0  0
    6.2060   12.3100   -2.1510 C   0  0  0  0  0  0  0  0  0  0  0  0
    6.2990   10.1550    0.9490 N   0  0  0  0  0  0  0  0  0  0  0  0
    5.4920    9.6240    1.1410 H   0  0  0  0  0  0  0  0  0  0  0  0
    7.3850   10.2870    1.7460 C   0  0  0  0  0  0  0  0  0  0  0  0
    8.2500   11.0690    1.1540 N   0  0  0  0  0  0  0  0  0  0  0  0
    8.2740   13.8080   -0.6190 C   0  0  0  0  0  0  0  0  0  0  0  0
    7.6580   12.1660   -2.3330 N   0  0  0  0  0  0  0  0  0  0  0  0
    7.9710   12.8830   -2.9860 H   0  0  0  0  0  0  0  0  0  0  0  0
    7.8560   11.2330   -2.6950 H   0  0  0  0  0  0  0  0  0  0  0  0
    8.8740   14.7130   -1.7000 C   0  0  0  0  0  0  0  0  0  0  0  0
   12.4030   14.7470   -2.1580 O   0  0  0  0  0  0  0  0  0  0  0  0
   11.0310   16.5710   -1.5550 C   0  0  0  0  0  0  0  0  0  0  0  0
   10.5050   16.6500   -0.1200 C   0  0  0  0  0  0  0  0  0  0  0  0
   10.0950   15.1010    1.7150 C   0  0  0  0  0  0  0  0  0  0  0  0
   10.7160   15.3640    0.5490 N   0  0  0  0  0  0  0  0  0  0  0  0
   11.3120   14.6910    0.1450 H   0  0  0  0  0  0  0  0  0  0  0  0
    9.3590   15.9310    2.2120 O   0  0  0  0  0  0  0  0  0  0  0  0
    9.5630   12.1120    3.9280 C   0  0  0  0  0  0  0  0  0  0  0  0
    9.3620   13.3260    3.2990 C   0  0  0  0  0  0  0  0  0  0  0  0
   10.3070   13.8040    2.3890 C   0  0  0  0  0  0  0  0  0  0  0  0
   11.4500   13.0520    2.1130 C   0  0  0  0  0  0  0  0  0  0  0  0
   11.6500   11.8410    2.7490 C   0  0  0  0  0  0  0  0  0  0  0  0
   10.7070   11.3660    3.6560 C   0  0  0  0  0  0  0  0  0  0  0  0
    8.3940   10.2380    4.8120 C   0  0  0  0  0  0  0  0  0  0  0  0
    8.6440   11.6450    4.8160 O   0  0  0  0  0  0  0  0  0  0  0  0
   12.7670   11.1100    2.4850 O   0  0  0  0  0  0  0  0  0  0  0  0
   13.9580   11.4680    3.1870 C   0  0  0  0  0  0  0  0  0  0  0  0
   10.9020   10.1720    4.2750 O   0  0  0  0  0  0  0  0  0  0  0  0
   11.7120   10.1760    5.4520 C   0  0  0  0  0  0  0  0  0  0  0  0
  1 20  1  0  0  0  0
  2  1  1  0  0  0  0
  2 18  1  0  0  0  0
  3  2  1  0  0  0  0
  3  4  1  0  0  0  0
  4  5  1  0  0  0  0
  5 14  1  0  0  0  0
  5  6  1  0  0  0  0
  6 13  1  0  0  0  0
  7  6  2  0  0  0  0
  7 10  1  0  0  0  0
  8  7  1  0  0  0  0
  9  8  1  0  0  0  0
 10 11  1  0  0  0  0
 10 12  1  0  0  0  0
 13 12  2  0  0  0  0
 15  9  1  0  0  0  0
 15  5  1  0  0  0  0
 16 15  1  0  0  0  0
 17 15  1  0  0  0  0
 18 14  1  0  0  0  0
 19  1  2  0  0  0  0
 20 21  1  0  0  0  0
 21 23  1  0  0  0  0
 22 25  2  0  0  0  0
 22 28  1  0  0  0  0
 23 22  1  0  0  0  0
 24 23  1  0  0  0  0
 26 33  1  0  0  0  0
 27 26  2  0  0  0  0
 28 27  1  0  0  0  0
 29 28  2  0  0  0  0
 29 30  1  0  0  0  0
 30 31  2  0  0  0  0
 31 26  1  0  0  0  0
 31 36  1  0  0  0  0
 32 33  1  0  0  0  0
 34 30  1  0  0  0  0
 34 35  1  0  0  0  0
 36 37  1  0  0  0  0
M  END
>  <MODEL>
1

>  <REMARK>
 VINA RESULT:      -0.8      0.000      0.000
  Name = ZINC20573659
                            x       y       z     vdW  Elec       q    Type
                         _______ _______ _______ _____ _____    ______ ____

>  <TORSDO>
F 7

>  <vina_score>
-0.8

$$$$
ZINC23476760
 OpenBabel01091701343D

 36 39  0  0  1  0  0  0  0  0999 V2000
   13.9170   14.7060    2.1270 C   0  0  0  0  0  0  0  0  0  0  0  0
   12.9810   13.5700    1.7100 C   0  0  2  0  0  0  0  0  0  0  0  0
   12.1080   13.1400    2.8720 C   0  0  0  0  0  0  0  0  0  0  0  0
   12.4150   11.8480    3.1000 N   0  0  0  0  0  0  0  0  0  0  0  0
   13.3510   11.4060    2.2520 C   0  0  0  0  0  0  0  0  0  0  0  0
   13.7880   10.2710    2.2590 O   0  0  0  0  0  0  0  0  0  0  0  0
   11.3000   13.8170    3.4710 O   0  0  0  0  0  0  0  0  0  0  0  0
   13.7520   12.3560    1.3880 N   0  0  0  0  0  0  0  0  0  0  0  0
   12.1340   13.9870    0.5360 C   0  0  0  0  0  0  0  0  0  0  0  0
   10.7660   14.1200    0.6850 C   0  0  0  0  0  0  0  0  0  0  0  0
    9.9880   14.5090   -0.3900 C   0  0  0  0  0  0  0  0  0  0  0  0
   10.5800   14.7530   -1.6200 C   0  0  0  0  0  0  0  0  0  0  0  0
   11.9520   14.6140   -1.7680 C   0  0  0  0  0  0  0  0  0  0  0  0
   12.7260   14.2320   -0.6900 C   0  0  0  0  0  0  0  0  0  0  0  0
    9.8160   15.1310   -2.6800 O   0  0  0  0  0  0  0  0  0  0  0  0
    8.8690   14.1790   -3.1690 C   0  0  0  0  0  0  0  0  0  0  0  0
    9.5940   13.0840   -3.9070 C   0  0  0  0  0  0  0  0  0  0  0  0
   10.8970   13.2310   -4.2200 N   0  0  0  0  0  0  0  0  0  0  0  0
   11.3720   12.5160   -4.7020 H   0  0  0  0  0  0  0  0  0  0  0  0
   11.3740   14.0540   -3.9650 H   0  0  0  0  0  0  0  0  0  0  0  0
    9.0060   12.0710   -4.2210 O   0  0  0  0  0  0  0  0  0  0  0  0
   11.7990   11.0280    4.1460 C   0  0  0  0  0  0  0  0  0  0  0  0
   10.5180   10.4980    3.6610 N   0  0  0  0  0  0  0  0  0  0  0  0
   10.5450    9.4820    3.7500 H   0  0  0  0  0  0  0  0  0  0  0  0
   10.3180   10.8240    2.2420 C   0  0  0  0  0  0  0  0  0  0  0  0
    9.0120   10.1890    1.7550 C   0  0  0  0  0  0  0  0  0  0  0  0
    7.8950   10.6860    2.5700 N   0  0  0  0  0  0  0  0  0  0  0  0
    7.8670   11.7000    2.4810 H   0  0  0  0  0  0  0  0  0  0  0  0
    8.0960   10.3600    3.9890 C   0  0  0  0  0  0  0  0  0  0  0  0
    9.4000   10.9940    4.4760 C   0  0  0  0  0  0  0  0  0  0  0  0
    6.6130   10.1560    2.0840 C   0  0  0  0  0  0  0  0  0  0  0  0
    6.4120   10.5660    0.6480 C   0  0  0  0  0  0  0  0  0  0  0  0
    7.3940   11.2700   -0.0250 C   0  0  0  0  0  0  0  0  0  0  0  0
    7.1840   11.6190   -1.3170 C   0  0  0  0  0  0  0  0  0  0  0  0
    5.5520   10.9590   -1.6170 S   0  0  0  0  0  0  0  0  0  0  0  0
    5.2640   10.2560   -0.0010 C   0  0  0  0  0  0  0  0  0  0  0  0
  2  9  1  6  0  0  0
  2  1  1  0  0  0  0
  2  3  1  0  0  0  0
  3  4  1  0  0  0  0
  3  7  2  0  0  0  0
  4 22  1  0  0  0  0
  5  6  2  0  0  0  0
  5  4  1  0  0  0  0
  8  2  1  0  0  0  0
  8  5  1  0  0  0  0
  9 10  1  0  0  0  0
 11 10  2  0  0  0  0
 12 11  1  0  0  0  0
 13 12  2  0  0  0  0
 13 14  1  0  0  0  0
 14  9  2  0  0  0  0
 15 12  1  0  0  0  0
 16 15  1  0  0  0  0
 17 16  1  0  0  0  0
 18 20  1  0  0  0  0
 18 17  1  0  0  0  0
 19 18  1  0  0  0  0
 21 17  2  0  0  0  0
 23 24  1  0  0  0  0
 23 22  1  0  0  0  0
 23 30  1  0  0  0  0
 25 23  1  0  0  0  0
 26 25  1  0  0  0  0
 26 27  1  0  0  0  0
 27 29  1  0  0  0  0
 28 27  1  0  0  0  0
 29 30  1  0  0  0  0
 31 27  1  0  0  0  0
 32 31  1  0  0  0  0
 33 32  1  0  0  0  0
 34 33  2  0  0  0  0
 35 34  1  0  0  0  0
 35 36  1  0  0  0  0
 36 32  2  0  0  0  0
M  END
>  <MODEL>
1

>  <REMARK>
 VINA RESULT:       0.1      0.000      0.000
  Name = ZINC23476760
                            x       y       z     vdW  Elec       q    Type
                         _______ _______ _______ _____ _____    ______ ____

>  <TORSDO>
F 8

>  <vina_score>
0.1

$$$$
ZINC19925920
 OpenBabel01091701353D

 37 40  0  0  0  0  0  0  0  0999 V2000
    8.9340   12.9560   -0.8030 C   0  0  0  0  0  0  0  0  0  0  0  0
    7.5790   12.7930   -0.6720 C   0  0  0  0  0  0  0  0  0  0  0  0
    7.0340   13.2530   -1.7980 N   0  0  0  0  0  0  0  0  0  0  0  0
    7.9600   13.6760   -2.5820 N   0  0  0  0  0  0  0  0  0  0  0  0
    9.1170   13.5290   -2.0390 N   0  0  0  0  0  0  0  0  0  0  0  0
   10.3440   13.8850   -2.6070 C   0  0  0  0  0  0  0  0  0  0  0  0
   11.1260   15.0800   -2.2800 C   0  0  0  0  0  0  0  0  0  0  0  0
   12.2090   15.0730   -3.0080 N   0  0  0  0  0  0  0  0  0  0  0  0
   12.1820   13.9100   -3.8160 O   0  0  0  0  0  0  0  0  0  0  0  0
   10.9910   13.2060   -3.5130 N   0  0  0  0  0  0  0  0  0  0  0  0
   10.7740   16.0550   -1.3540 N   0  0  0  0  0  0  0  0  0  0  0  0
    9.8240   16.2420   -1.1750 H   0  0  0  0  0  0  0  0  0  0  0  0
   11.4720   16.5580   -0.8780 H   0  0  0  0  0  0  0  0  0  0  0  0
   10.4750   11.3480    0.1960 N   0  0  0  0  0  0  0  0  0  0  0  0
   10.1020   10.6570   -0.3980 H   0  0  0  0  0  0  0  0  0  0  0  0
    9.9730   12.5990    0.1750 C   0  0  0  0  0  0  0  0  0  0  0  0
   10.3790   13.4310    0.9630 O   0  0  0  0  0  0  0  0  0  0  0  0
   12.1410   11.9740    1.7130 C   0  0  0  0  0  0  0  0  0  0  0  0
   11.5260   11.0310    1.0660 N   0  0  0  0  0  0  0  0  0  0  0  0
   14.5990   12.1710    4.5550 C   0  0  0  0  0  0  0  0  0  0  0  0
   15.3180   11.0020    4.3630 C   0  0  0  0  0  0  0  0  0  0  0  0
   15.0050   10.1530    3.3150 C   0  0  0  0  0  0  0  0  0  0  0  0
   13.9760   10.4630    2.4520 C   0  0  0  0  0  0  0  0  0  0  0  0
   13.2420   11.6390    2.6330 C   0  0  0  0  0  0  0  0  0  0  0  0
   13.5630   12.5000    3.6900 C   0  0  0  0  0  0  0  0  0  0  0  0
   15.6790   14.1630    5.2750 C   0  0  0  0  0  0  0  0  0  0  0  0
   14.9120   12.9990    5.5870 O   0  0  0  0  0  0  0  0  0  0  0  0
   12.8600   13.6490    3.8720 O   0  0  0  0  0  0  0  0  0  0  0  0
   11.5610   13.5290    4.4550 C   0  0  0  0  0  0  0  0  0  0  0  0
    6.8510   12.2090    0.5120 C   0  0  0  0  0  0  0  0  0  0  0  0
    7.8110   11.9290    1.5880 N   0  0  0  0  0  0  0  0  0  0  0  0
    8.7430   11.9010    1.1740 H   0  0  0  0  0  0  0  0  0  0  0  0
    7.5470   10.6200    2.2020 C   0  0  0  0  0  0  0  0  0  0  0  0
    8.6030   10.3420    3.2740 C   0  0  0  0  0  0  0  0  0  0  0  0
    8.5920   11.4020    4.2330 O   0  0  0  0  0  0  0  0  0  0  0  0
    8.8480   12.6920    3.6690 C   0  0  0  0  0  0  0  0  0  0  0  0
    7.7930   12.9930    2.6010 C   0  0  0  0  0  0  0  0  0  0  0  0
  1  2  2  0  0  0  0
  1 16  1  0  0  0  0
  2 30  1  0  0  0  0
  3  2  1  0  0  0  0
  4  5  1  0  0  0  0
  4  3  2  0  0  0  0
  5  1  1  0  0  0  0
  6  7  1  0  0  0  0
  6  5  1  0  0  0  0
  7 11  1  0  0  0  0
  8  7  2  0  0  0  0
  9 10  1  0  0  0  0
  9  8  1  0  0  0  0
 10  6  2  0  0  0  0
 11 12  1  0  0  0  0
 11 13  1  0  0  0  0
 14 19  1  0  0  0  0
 15 14  1  0  0  0  0
 16 14  1  0  0  0  0
 16 17  2  0  0  0  0
 18 24  1  0  0  0  0
 19 18  2  0  0  0  0
 20 27  1  0  0  0  0
 21 20  1  0  0  0  0
 22 21  2  0  0  0  0
 23 24  2  0  0  0  0
 23 22  1  0  0  0  0
 24 25  1  0  0  0  0
 25 28  1  0  0  0  0
 25 20  2  0  0  0  0
 26 27  1  0  0  0  0
 28 29  1  0  0  0  0
 30 31  1  0  0  0  0
 31 33  1  0  0  0  0
 31 37  1  0  0  0  0
 32 31  1  0  0  0  0
 33 34  1  0  0  0  0
 34 35  1  0  0  0  0
 36 35  1  0  0  0  0
 37 36  1  0  0  0  0
M  END
>  <MODEL>
1

>  <REMARK>
 VINA RESULT:       0.3      0.000      0.000
  Name = ZINC19925920
                            x       y       z     vdW  Elec       q    Type
                         _______ _______ _______ _____ _____    ______ ____

>  <TORSDO>
F 9

>  <vina_score>
0.3

$$$$
ZINC25049844
 OpenBabel01091701283D

 35 37  0  0  0  0  0  0  0  0999 V2000
   14.2430   13.2270    3.0070 N   0  0  0  0  0  0  0  0  0  0  0  0
   15.1220   13.0580    2.5980 H   0  0  0  0  0  0  0  0  0  0  0  0
   14.1090   13.2110    4.3480 C   0  0  0  0  0  0  0  0  0  0  0  0
   13.0270   13.4200    4.8520 O   0  0  0  0  0  0  0  0  0  0  0  0
   13.1910   13.2420    0.8710 C   0  0  0  0  0  0  0  0  0  0  0  0
   13.1300   13.4870    2.1950 N   0  0  0  0  0  0  0  0  0  0  0  0
   12.3060   13.8480    2.5910 H   0  0  0  0  0  0  0  0  0  0  0  0
   14.2120   12.7950    0.3800 O   0  0  0  0  0  0  0  0  0  0  0  0
   12.7520   15.7310   -0.9310 C   0  0  0  0  0  0  0  0  0  0  0  0
   11.7690   14.5960   -0.8020 C   0  0  0  0  0  0  0  0  0  0  0  0
   12.0310   13.5120    0.0240 C   0  0  0  0  0  0  0  0  0  0  0  0
   10.5500   12.5420   -0.2300 S   0  0  0  0  0  0  0  0  0  0  0  0
    9.7700   13.6080   -1.3540 C   0  0  0  0  0  0  0  0  0  0  0  0
   10.6430   14.5980   -1.4670 N   0  0  0  0  0  0  0  0  0  0  0  0
    8.5460   13.4630   -1.9750 N   0  0  0  0  0  0  0  0  0  0  0  0
    7.8480   14.7520   -2.0700 C   0  0  0  0  0  0  0  0  0  0  0  0
    6.5250   14.5550   -2.8160 C   0  0  0  0  0  0  0  0  0  0  0  0
    5.7450   13.5660   -2.1400 O   0  0  0  0  0  0  0  0  0  0  0  0
    6.3950   12.2980   -2.0290 C   0  0  0  0  0  0  0  0  0  0  0  0
    7.7160   12.4710   -1.2760 C   0  0  0  0  0  0  0  0  0  0  0  0
   15.3060   12.9320    5.2200 C   0  0  0  0  0  0  0  0  0  0  0  0
   15.3440   11.4430    5.5710 C   0  0  0  0  0  0  0  0  0  0  0  0
   14.8990   10.6220    4.3580 C   0  0  0  0  0  0  0  0  0  0  0  0
   13.4350   10.5760    4.3100 N   0  0  0  0  0  0  0  0  0  0  0  0
   12.9110   10.7220    5.1310 H   0  0  0  0  0  0  0  0  0  0  0  0
   12.8070   10.3340    3.1430 C   0  0  0  0  0  0  0  0  0  0  0  0
   13.4540   10.1540    2.1290 O   0  0  0  0  0  0  0  0  0  0  0  0
   11.3320   10.2860    3.0950 C   0  0  0  0  0  0  0  0  0  0  0  0
   10.6740   10.2100    1.8640 C   0  0  0  0  0  0  0  0  0  0  0  0
    9.2980   10.1660    1.8230 C   0  0  0  0  0  0  0  0  0  0  0  0
    8.5650   10.1980    3.0040 C   0  0  0  0  0  0  0  0  0  0  0  0
    9.2160   10.2740    4.2300 C   0  0  0  0  0  0  0  0  0  0  0  0
   10.5920   10.3190    4.2790 C   0  0  0  0  0  0  0  0  0  0  0  0
    7.2090   10.1540    2.9590 O   0  0  0  0  0  0  0  0  0  0  0  0
    6.5980   10.2710    1.6730 C   0  0  0  0  0  0  0  0  0  0  0  0
  1  3  1  0  0  0  0
  2  1  1  0  0  0  0
  3  4  2  0  0  0  0
  3 21  1  0  0  0  0
  5  6  1  0  0  0  0
  6  7  1  0  0  0  0
  6  1  1  0  0  0  0
  8  5  2  0  0  0  0
  9 10  1  0  0  0  0
 10 11  2  0  0  0  0
 11  5  1  0  0  0  0
 12 11  1  0  0  0  0
 13 12  1  0  0  0  0
 14 13  2  0  0  0  0
 14 10  1  0  0  0  0
 15 13  1  0  0  0  0
 15 20  1  0  0  0  0
 16 15  1  0  0  0  0
 17 18  1  0  0  0  0
 17 16  1  0  0  0  0
 18 19  1  0  0  0  0
 19 20  1  0  0  0  0
 21 22  1  0  0  0  0
 23 22  1  0  0  0  0
 24 23  1  0  0  0  0
 24 25  1  0  0  0  0
 26 24  1  0  0  0  0
 27 26  2  0  0  0  0
 28 26  1  0  0  0  0
 28 33  2  0  0  0  0
 29 28  1  0  0  0  0
 30 29  2  0  0  0  0
 30 31  1  0  0  0  0
 31 32  2  0  0  0  0
 32 33  1  0  0  0  0
 34 31  1  0  0  0  0
 35 34  1  0  0  0  0
M  END
>  <MODEL>
1

>  <REMARK>
 VINA RESULT:       1.2      0.000      0.000
  Name = ZINC25049844
                            x       y       z     vdW  Elec       q    Type
                         _______ _______ _______ _____ _____    ______ ____

>  <TORSDO>
F 9

>  <vina_score>
1.2

$$$$
ZINC11190076
 OpenBabel01091701373D

 36 38  0  0  1  0  0  0  0  0999 V2000
    7.3890   12.6780   -1.0270 C   0  0  0  0  0  0  0  0  0  0  0  0
    7.4000   11.4920   -0.3880 N   0  0  0  0  0  0  0  0  0  0  0  0
    6.7700   10.7840   -0.6540 H   0  0  0  0  0  0  0  0  0  0  0  0
    8.1080   13.5780   -0.6460 O   0  0  0  0  0  0  0  0  0  0  0  0
    8.3090   11.2660    0.6550 C   0  0  0  0  0  0  0  0  0  0  0  0
    7.8520   10.8250    1.8900 C   0  0  0  0  0  0  0  0  0  0  0  0
    8.7480   10.6010    2.9170 C   0  0  0  0  0  0  0  0  0  0  0  0
   10.1040   10.8190    2.7140 C   0  0  0  0  0  0  0  0  0  0  0  0
   10.5600   11.2670    1.4810 C   0  0  0  0  0  0  0  0  0  0  0  0
    9.6650   11.4840    0.4530 C   0  0  0  0  0  0  0  0  0  0  0  0
   11.0120   10.5930    3.7560 N   0  0  0  0  0  0  0  0  0  0  0  0
   10.7120   10.6500    4.6920 H   0  0  0  0  0  0  0  0  0  0  0  0
   12.2990   10.3000    3.4780 C   0  0  0  0  0  0  0  0  0  0  0  0
   12.6520   10.1530    2.3270 O   0  0  0  0  0  0  0  0  0  0  0  0
   13.2970   10.1540    4.5970 C   0  0  0  0  0  0  0  0  0  0  0  0
   13.8200   11.4910    4.9480 N   0  0  0  0  0  0  0  0  0  0  0  0
   13.2710   11.8690    5.7210 H   0  0  0  0  0  0  0  0  0  0  0  0
   15.2340   11.3880    5.3690 C   0  0  0  0  0  0  0  0  0  0  0  0
   15.7330   12.7810    5.7600 C   0  0  0  0  0  0  0  0  0  0  0  0
   15.5720   13.6680    4.6500 O   0  0  0  0  0  0  0  0  0  0  0  0
   14.2220   13.7830    4.1950 C   0  0  0  0  0  0  0  0  0  0  0  0
   13.7060   12.4000    3.7880 C   0  0  0  0  0  0  0  0  0  0  0  0
    6.4860   12.8870   -2.2150 C   0  0  0  0  0  0  0  0  0  0  0  0
    7.4240   12.6120   -3.7430 S   0  0  0  0  0  0  0  0  0  0  0  0
    8.3610   14.1500   -3.9650 C   0  0  1  0  0  0  0  0  0  0  0  0
    7.5360   15.3290   -3.4450 C   0  0  0  0  0  0  0  0  0  0  0  0
    9.8530   14.8480   -2.1200 N   0  0  0  0  0  0  0  0  0  0  0  0
    9.1520   15.4770   -1.8340 H   0  0  0  0  0  0  0  0  0  0  0  0
    9.6560   14.0640   -3.1980 C   0  0  0  0  0  0  0  0  0  0  0  0
   10.5200   13.2900   -3.5520 O   0  0  0  0  0  0  0  0  0  0  0  0
   13.5350   13.4250    0.9240 C   0  0  0  0  0  0  0  0  0  0  0  0
   12.6600   14.1390   -0.0740 C   0  0  0  0  0  0  0  0  0  0  0  0
   11.4230   13.7680   -0.4740 C   0  0  0  0  0  0  0  0  0  0  0  0
   11.0520   14.7690   -1.4100 C   0  0  0  0  0  0  0  0  0  0  0  0
   12.0600   15.5970   -1.4780 N   0  0  0  0  0  0  0  0  0  0  0  0
   12.9560   15.2640   -0.7390 O   0  0  0  0  0  0  0  0  0  0  0  0
  1  4  2  0  0  0  0
  1  2  1  0  0  0  0
  2  5  1  0  0  0  0
  3  2  1  0  0  0  0
  5  6  1  0  0  0  0
  6  7  2  0  0  0  0
  8  7  1  0  0  0  0
  8 11  1  0  0  0  0
  9  8  2  0  0  0  0
 10  5  2  0  0  0  0
 10  9  1  0  0  0  0
 11 12  1  0  0  0  0
 13 11  1  0  0  0  0
 13 15  1  0  0  0  0
 14 13  2  0  0  0  0
 15 16  1  0  0  0  0
 16 18  1  0  0  0  0
 16 17  1  0  0  0  0
 18 19  1  0  0  0  0
 20 19  1  0  0  0  0
 21 20  1  0  0  0  0
 22 21  1  0  0  0  0
 22 16  1  0  0  0  0
 23  1  1  0  0  0  0
 24 23  1  0  0  0  0
 25 24  1  1  0  0  0
 25 26  1  0  0  0  0
 25 29  1  0  0  0  0
 27 28  1  0  0  0  0
 27 34  1  0  0  0  0
 29 27  1  0  0  0  0
 30 29  2  0  0  0  0
 32 31  1  0  0  0  0
 33 32  2  0  0  0  0
 34 33  1  0  0  0  0
 35 34  2  0  0  0  0
 35 36  1  0  0  0  0
 36 32  1  0  0  0  0
M  END
>  <MODEL>
1

>  <REMARK>
 VINA RESULT:       4.6      0.000      0.000
  Name = ZINC11190076
                            x       y       z     vdW  Elec       q    Type
                         _______ _______ _______ _____ _____    ______ ____

>  <TORSDO>
F 9

>  <vina_score>
4.6

$$$$
ZINC13216929
 OpenBabel01091701363D

 29 30  0  0  0  0  0  0  0  0999 V2000
   10.8300   13.7930    1.4850 C   0  0  0  0  0  0  0  0  0  0  0  0
   12.1570   13.4470    1.2490 C   0  0  0  0  0  0  0  0  0  0  0  0
   12.9980   13.1790    2.3050 C   0  0  0  0  0  0  0  0  0  0  0  0
   12.5180   13.2540    3.6160 C   0  0  0  0  0  0  0  0  0  0  0  0
   11.1830   13.5960    3.8490 C   0  0  0  0  0  0  0  0  0  0  0  0
   10.3490   13.8680    2.7890 C   0  0  0  0  0  0  0  0  0  0  0  0
   10.3240   13.6780   -0.8310 C   0  0  0  0  0  0  0  0  0  0  0  0
    9.9810   14.0640    0.4140 N   0  0  0  0  0  0  0  0  0  0  0  0
    9.1320   14.5360    0.5660 H   0  0  0  0  0  0  0  0  0  0  0  0
   11.3250   13.0100   -1.0080 O   0  0  0  0  0  0  0  0  0  0  0  0
   10.8550   12.9760   -3.8040 C   0  0  0  0  0  0  0  0  0  0  0  0
    9.7240   13.7510   -3.2880 N   0  0  0  0  0  0  0  0  0  0  0  0
    8.7210   14.2930   -4.0170 C   0  0  0  0  0  0  0  0  0  0  0  0
    7.8910   14.9230   -3.1500 C   0  0  0  0  0  0  0  0  0  0  0  0
    8.3730   14.7660   -1.9200 N   0  0  0  0  0  0  0  0  0  0  0  0
    9.4850   14.0650   -1.9800 C   0  0  0  0  0  0  0  0  0  0  0  0
    6.6560   15.6560   -3.5100 N   0  0  0  0  0  0  0  0  0  0  0  0
    5.6500   15.5230   -2.8370 O   0  0  0  0  0  0  0  0  0  0  0  0
    6.6470   16.3940   -4.4800 O   0  0  0  0  0  0  0  0  0  0  0  0
   13.4180   12.9670    4.7510 C   0  0  0  0  0  0  0  0  0  0  0  0
   14.7080   12.6510    4.5240 N   0  0  0  0  0  0  0  0  0  0  0  0
   15.0510   12.6160    3.6020 H   0  0  0  0  0  0  0  0  0  0  0  0
   12.9920   13.0110    5.8890 O   0  0  0  0  0  0  0  0  0  0  0  0
   15.5990   12.3620    5.6490 C   0  0  0  0  0  0  0  0  0  0  0  0
   15.7250   10.8470    5.8260 C   0  0  0  0  0  0  0  0  0  0  0  0
   14.9780   10.1760    4.7410 N   0  0  0  0  0  0  0  0  0  0  0  0
   15.2130    9.1840    4.7420 H   0  0  0  0  0  0  0  0  0  0  0  0
   15.3510   10.7580    3.4350 C   0  0  0  0  0  0  0  0  0  0  0  0
   13.5240   10.3250    4.9640 C   0  0  0  0  0  0  0  0  0  0  0  0
  1  6  1  0  0  0  0
  2  1  2  0  0  0  0
  2  3  1  0  0  0  0
  3  4  2  0  0  0  0
  4  5  1  0  0  0  0
  4 20  1  0  0  0  0
  6  5  2  0  0  0  0
  7  8  1  0  0  0  0
  8  9  1  0  0  0  0
  8  1  1  0  0  0  0
 10  7  2  0  0  0  0
 11 12  1  0  0  0  0
 12 16  1  0  0  0  0
 13 12  1  0  0  0  0
 13 14  2  0  0  0  0
 14 15  1  0  0  0  0
 16 15  2  0  0  0  0
 16  7  1  0  0  0  0
 17 14  1  0  0  0  0
 17 18  2  0  0  0  0
 19 17  2  0  0  0  0
 20 23  2  0  0  0  0
 21 20  1  0  0  0  0
 21 24  1  0  0  0  0
 22 21  1  0  0  0  0
 24 25  1  0  0  0  0
 26 27  1  0  0  0  0
 26 29  1  0  0  0  0
 26 25  1  0  0  0  0
 28 26  1  0  0  0  0
M  END
>  <MODEL>
1

>  <REMARK>
 VINA RESULT:       9.7      0.000      0.000
  Name = ZINC13216929
                            x       y       z     vdW  Elec       q    Type
                         _______ _______ _______ _____ _____    ______ ____

>  <TORSDO>
F 7

>  <vina_score>
9.7

$$$$
