ZINC17969353
 OpenBabel01081722213D

 23 24  0  0  1  0  0  0  0  0999 V2000
  -29.2470   13.1370  -17.3590 N   0  0  0  0  0  0  0  0  0  0  0  0
  -30.4200   13.4740  -17.8470 C   0  0  0  0  0  0  0  0  0  0  0  0
  -31.4610   12.3910  -17.9570 C   0  0  2  0  0  0  0  0  0  0  0  0
  -31.5140   11.9300  -19.4030 C   0  0  0  0  0  0  0  0  0  0  0  0
  -30.4260   11.4430  -20.0200 O   0  0  0  0  0  0  0  0  0  0  0  0
  -32.6640   12.0280  -20.0250 N   0  0  0  0  0  0  0  0  0  0  0  0
  -33.7570   12.5090  -19.4340 C   0  0  0  0  0  0  0  0  0  0  0  0
  -33.8230   12.9390  -18.1910 N   0  0  0  0  0  0  0  0  0  0  0  0
  -32.7610   12.9210  -17.3810 C   0  0  0  0  0  0  0  0  0  0  0  0
  -32.8310   13.3160  -16.2340 O   0  0  0  0  0  0  0  0  0  0  0  0
  -34.8860   12.5650  -20.1700 O   0  0  0  0  0  0  0  0  0  0  0  0
  -35.6900   12.2380  -19.8180 H   0  0  0  0  0  0  0  0  0  0  0  0
  -28.1650   14.1710  -17.2220 C   0  0  0  0  0  0  0  0  0  0  0  0
  -28.2800   15.1510  -18.3910 C   0  0  0  0  0  0  0  0  0  0  0  0
  -27.6290   13.8310  -21.8590 C   0  0  0  0  0  0  0  0  0  0  0  0
  -26.8850   12.6140  -21.4800 N   0  0  0  0  0  0  0  0  0  0  0  0
  -27.5490   11.8920  -21.1990 H   0  0  0  0  0  0  0  0  0  0  0  0
  -26.3380   12.2930  -22.2770 H   0  0  0  0  0  0  0  0  0  0  0  0
  -25.9810   12.9010  -20.3510 C   0  0  0  0  0  0  0  0  0  0  0  0
  -26.7970   13.3950  -19.1540 C   0  0  0  0  0  0  0  0  0  0  0  0
  -27.5230   14.6210  -19.5460 N   0  0  0  0  0  0  0  0  0  0  0  0
  -26.8490   15.3230  -19.8490 H   0  0  0  0  0  0  0  0  0  0  0  0
  -28.4460   14.3250  -20.6610 C   0  0  0  0  0  0  0  0  0  0  0  0
  1 13  1  0  0  0  0
  2  1  2  0  0  0  0
  3  2  1  6  0  0  0
  3  9  1  0  0  0  0
  4  3  1  0  0  0  0
  5  4  2  0  0  0  0
  6  7  1  0  0  0  0
  6  4  1  0  0  0  0
  7  8  2  0  0  0  0
  8  9  1  0  0  0  0
  9 10  2  0  0  0  0
 11 12  1  0  0  0  0
 11  7  1  0  0  0  0
 14 13  1  0  0  0  0
 15 16  1  0  0  0  0
 15 23  1  0  0  0  0
 16 17  1  0  0  0  0
 16 19  1  0  0  0  0
 18 16  1  0  0  0  0
 19 20  1  0  0  0  0
 21 20  1  0  0  0  0
 21 14  1  0  0  0  0
 22 21  1  0  0  0  0
 23 21  1  0  0  0  0
M  END
>  <MODEL>
1

>  <REMARK>
 VINA RESULT:      -7.3      0.000      0.000
  Name = ZINC17969353
                            x       y       z     vdW  Elec       q    Type
                         _______ _______ _______ _____ _____    ______ ____

>  <TORSDO>
F 5

>  <vina_score>
-7.3

$$$$
ZINC01646936
 OpenBabel01081722193D

 26 27  0  0  1  0  0  0  0  0999 V2000
  -29.2420   11.8850  -22.1080 C   0  0  0  0  0  0  0  0  0  0  0  0
  -28.1670   12.5810  -22.3730 N   0  0  0  0  0  0  0  0  0  0  0  0
  -28.0300   13.5640  -21.4760 C   0  0  0  0  0  0  0  0  0  0  0  0
  -29.1000   13.4760  -20.5980 C   0  0  0  0  0  0  0  0  0  0  0  0
  -29.8570   12.3950  -21.0260 N   0  0  0  0  0  0  0  0  0  0  0  0
  -31.0930   11.9020  -20.4140 C   0  0  2  0  0  0  0  0  0  0  0  0
  -32.2970   12.4200  -21.2070 C   0  0  1  0  0  0  0  0  0  0  0  0
  -33.5860   11.9500  -20.5260 C   0  0  1  0  0  0  0  0  0  0  0  0
  -33.5920   12.4400  -19.0750 C   0  0  1  0  0  0  0  0  0  0  0  0
  -32.3370   11.9230  -18.3650 C   0  0  0  0  0  0  0  0  0  0  0  0
  -31.1750   12.3690  -19.0670 O   0  0  0  0  0  0  0  0  0  0  0  0
  -32.2680   13.8470  -21.2420 O   0  0  0  0  0  0  0  0  0  0  0  0
  -31.9660   14.1850  -20.3850 H   0  0  0  0  0  0  0  0  0  0  0  0
  -34.7150   12.4890  -21.2170 O   0  0  0  0  0  0  0  0  0  0  0  0
  -35.2660   12.9900  -20.5950 H   0  0  0  0  0  0  0  0  0  0  0  0
  -33.5960   13.8690  -19.0540 O   0  0  0  0  0  0  0  0  0  0  0  0
  -34.4690   14.1940  -19.3250 H   0  0  0  0  0  0  0  0  0  0  0  0
  -29.3740   14.3450  -19.4570 C   0  0  0  0  0  0  0  0  0  0  0  0
  -30.4890   15.1020  -19.4380 N   0  0  0  0  0  0  0  0  0  0  0  0
  -30.6740   15.6880  -18.6690 H   0  0  0  0  0  0  0  0  0  0  0  0
  -31.1180   15.0700  -20.1940 H   0  0  0  0  0  0  0  0  0  0  0  0
  -28.5960   14.3850  -18.5210 O   0  0  0  0  0  0  0  0  0  0  0  0
  -27.0050   14.5050  -21.4340 N   0  0  0  0  0  0  0  0  0  0  0  0
  -27.1260   15.3840  -21.8630 H   0  0  0  0  0  0  0  0  0  0  0  0
  -25.8470   14.2140  -20.8090 C   0  0  0  0  0  0  0  0  0  0  0  0
  -25.6970   13.1300  -20.2870 O   0  0  0  0  0  0  0  0  0  0  0  0
  1  5  1  0  0  0  0
  2  1  2  0  0  0  0
  2  3  1  0  0  0  0
  3 23  1  0  0  0  0
  3  4  2  0  0  0  0
  4 18  1  0  0  0  0
  5  4  1  0  0  0  0
  6  5  1  6  0  0  0
  6 11  1  0  0  0  0
  7 12  1  1  0  0  0
  7  8  1  0  0  0  0
  7  6  1  0  0  0  0
  8 14  1  6  0  0  0
  8  9  1  0  0  0  0
  9 16  1  6  0  0  0
  9 10  1  0  0  0  0
 11 10  1  0  0  0  0
 12 13  1  0  0  0  0
 14 15  1  0  0  0  0
 17 16  1  0  0  0  0
 18 19  1  0  0  0  0
 18 22  2  0  0  0  0
 19 20  1  0  0  0  0
 21 19  1  0  0  0  0
 23 25  1  0  0  0  0
 24 23  1  0  0  0  0
 25 26  2  0  0  0  0
M  END
>  <MODEL>
1

>  <REMARK>
 VINA RESULT:      -7.0      0.000      0.000
  Name = ZINC01646936
                            x       y       z     vdW  Elec       q    Type
                         _______ _______ _______ _____ _____    ______ ____

>  <TORSDO>
F 6

>  <vina_score>
-7.0

$$$$
ZINC20189813
 OpenBabel01081722053D

 25 26  0  0  0  0  0  0  0  0999 V2000
  -29.9680   13.0270  -20.4070 C   0  0  0  0  0  0  0  0  0  0  0  0
  -28.7320   12.6870  -19.8910 C   0  0  0  0  0  0  0  0  0  0  0  0
  -28.0160   13.6040  -19.1460 C   0  0  0  0  0  0  0  0  0  0  0  0
  -28.5370   14.8640  -18.9090 C   0  0  0  0  0  0  0  0  0  0  0  0
  -29.7690   15.2100  -19.4260 C   0  0  0  0  0  0  0  0  0  0  0  0
  -30.4900   14.2910  -20.1750 C   0  0  0  0  0  0  0  0  0  0  0  0
  -30.8800   11.8570  -21.3570 S   0  0  0  0  0  0  0  0  0  0  0  0
  -29.9330   10.9370  -21.8850 O   0  0  0  0  0  0  0  0  0  0  0  0
  -31.7590   12.6050  -22.1860 O   0  0  0  0  0  0  0  0  0  0  0  0
  -31.8310   11.0050  -20.3040 N   0  0  0  0  0  0  0  0  0  0  0  0
  -33.1180   12.7750  -16.7550 C   0  0  0  0  0  0  0  0  0  0  0  0
  -33.8500   12.9480  -17.9210 C   0  0  0  0  0  0  0  0  0  0  0  0
  -33.4250   12.3610  -19.0970 C   0  0  0  0  0  0  0  0  0  0  0  0
  -32.2640   11.6000  -19.1120 C   0  0  0  0  0  0  0  0  0  0  0  0
  -31.5350   11.4220  -17.9440 C   0  0  0  0  0  0  0  0  0  0  0  0
  -31.9580   12.0150  -16.7700 C   0  0  0  0  0  0  0  0  0  0  0  0
  -34.6050   12.7040  -14.9010 C   0  0  0  0  0  0  0  0  0  0  0  0
  -33.5380   13.3520  -15.5980 O   0  0  0  0  0  0  0  0  0  0  0  0
  -31.7060   14.6280  -20.6810 O   0  0  0  0  0  0  0  0  0  0  0  0
  -32.2420   15.8940  -20.2910 C   0  0  0  0  0  0  0  0  0  0  0  0
  -26.6680   13.2310  -18.5850 C   0  0  0  0  0  0  0  0  0  0  0  0
  -25.7320   12.9750  -19.6890 N   0  0  0  0  0  0  0  0  0  0  0  0
  -26.1590   12.3320  -20.3540 H   0  0  0  0  0  0  0  0  0  0  0  0
  -25.5120   13.8540  -20.1580 H   0  0  0  0  0  0  0  0  0  0  0  0
  -24.8750   12.5640  -19.3190 H   0  0  0  0  0  0  0  0  0  0  0  0
  1  6  2  0  0  0  0
  1  2  1  0  0  0  0
  2  3  2  0  0  0  0
  3  4  1  0  0  0  0
  3 21  1  0  0  0  0
  5  4  2  0  0  0  0
  6  5  1  0  0  0  0
  7  1  1  0  0  0  0
  7 10  1  0  0  0  0
  8  7  2  0  0  0  0
  9  7  2  0  0  0  0
 10 14  1  0  0  0  0
 11 18  1  0  0  0  0
 12 11  2  0  0  0  0
 13 12  1  0  0  0  0
 14 13  2  0  0  0  0
 14 15  1  0  0  0  0
 15 16  2  0  0  0  0
 16 11  1  0  0  0  0
 18 17  1  0  0  0  0
 19 20  1  0  0  0  0
 19  6  1  0  0  0  0
 22 25  1  0  0  0  0
 22 21  1  0  0  0  0
 23 22  1  0  0  0  0
 24 22  1  0  0  0  0
M  END
>  <MODEL>
1

>  <REMARK>
 VINA RESULT:      -7.0      0.000      0.000
  Name = ZINC20189813
                            x       y       z     vdW  Elec       q    Type
                         _______ _______ _______ _____ _____    ______ ____

>  <TORSDO>
F 7

>  <vina_score>
-7.0

$$$$
ZINC04642041
 OpenBabel01081722083D

 25 26  0  0  1  0  0  0  0  0999 V2000
  -32.2250   12.3570  -19.1700 C   0  0  1  0  0  0  0  0  0  0  0  0
  -33.0050   13.1720  -20.1840 C   0  0  0  0  0  0  0  0  0  0  0  0
  -32.5310   14.3970  -20.4980 N   0  0  0  0  0  0  0  0  0  0  0  0
  -33.0200   14.9450  -21.1530 H   0  0  0  0  0  0  0  0  0  0  0  0
  -31.4160   14.8880  -19.9440 C   0  0  0  0  0  0  0  0  0  0  0  0
  -30.6630   14.2440  -19.0440 N   0  0  0  0  0  0  0  0  0  0  0  0
  -31.0610   15.9990  -20.2840 O   0  0  0  0  0  0  0  0  0  0  0  0
  -34.0170   12.7410  -20.6930 O   0  0  0  0  0  0  0  0  0  0  0  0
  -30.9740   13.0050  -18.6080 C   0  0  0  0  0  0  0  0  0  0  0  0
  -30.2800   12.4320  -17.7960 O   0  0  0  0  0  0  0  0  0  0  0  0
  -33.6410   10.8150  -17.8980 C   0  0  0  0  0  0  0  0  0  0  0  0
  -33.1450   12.0320  -18.0220 C   0  0  0  0  0  0  0  0  0  0  0  0
  -33.4440   13.0800  -17.1020 N   0  0  0  0  0  0  0  0  0  0  0  0
  -33.7230   13.9770  -17.3950 H   0  0  0  0  0  0  0  0  0  0  0  0
  -33.3000   12.7120  -15.6500 C   0  0  0  0  0  0  0  0  0  0  0  0
  -34.6890   12.8290  -15.0190 C   0  0  0  0  0  0  0  0  0  0  0  0
  -34.5900   13.5220  -13.7730 O   0  0  0  0  0  0  0  0  0  0  0  0
  -33.6800   13.8350  -13.6500 H   0  0  0  0  0  0  0  0  0  0  0  0
  -29.4640   14.9030  -18.5200 C   0  0  0  0  0  0  0  0  0  0  0  0
  -28.2400   14.3010  -19.1610 C   0  0  0  0  0  0  0  0  0  0  0  0
  -28.0780   14.3620  -20.5330 C   0  0  0  0  0  0  0  0  0  0  0  0
  -26.9550   13.8100  -21.1210 C   0  0  0  0  0  0  0  0  0  0  0  0
  -25.9950   13.1980  -20.3380 C   0  0  0  0  0  0  0  0  0  0  0  0
  -26.1580   13.1350  -18.9670 C   0  0  0  0  0  0  0  0  0  0  0  0
  -27.2810   13.6880  -18.3780 C   0  0  0  0  0  0  0  0  0  0  0  0
  1  9  1  0  0  0  0
  1 12  1  1  0  0  0
  2  1  1  0  0  0  0
  3  2  1  0  0  0  0
  3  5  1  0  0  0  0
  4  3  1  0  0  0  0
  5  6  1  0  0  0  0
  6  9  1  0  0  0  0
  6 19  1  0  0  0  0
  7  5  2  0  0  0  0
  8  2  2  0  0  0  0
  9 10  2  0  0  0  0
 12 11  1  0  0  0  0
 12 13  2  0  0  0  0
 13 15  1  0  0  0  0
 14 13  1  0  0  0  0
 15 16  1  0  0  0  0
 16 17  1  0  0  0  0
 17 18  1  0  0  0  0
 20 19  1  0  0  0  0
 20 25  2  0  0  0  0
 21 20  1  0  0  0  0
 22 21  2  0  0  0  0
 22 23  1  0  0  0  0
 23 24  2  0  0  0  0
 24 25  1  0  0  0  0
M  END
>  <MODEL>
1

>  <REMARK>
 VINA RESULT:      -7.0      0.000      0.000
  Name = ZINC04642041
                            x       y       z     vdW  Elec       q    Type
                         _______ _______ _______ _____ _____    ______ ____

>  <TORSDO>
F 7

>  <vina_score>
-7.0

$$$$
ZINC12362881
 OpenBabel01081722173D

 22 23  0  0  1  0  0  0  0  0999 V2000
  -28.2570   12.2820  -19.4000 C   0  0  0  0  0  0  0  0  0  0  0  0
  -27.6180   13.4000  -20.2430 C   0  0  0  0  0  0  0  0  0  0  0  0
  -28.5880   14.2180  -20.6960 C   0  0  0  0  0  0  0  0  0  0  0  0
  -28.3990   15.3710  -21.4480 N   0  0  0  0  0  0  0  0  0  0  0  0
  -27.4890   15.6520  -21.6960 H   0  0  0  0  0  0  0  0  0  0  0  0
  -29.8780   13.6790  -20.2550 C   0  0  2  0  0  0  0  0  0  0  0  0
  -31.0920   14.4040  -19.7370 C   0  0  0  0  0  0  0  0  0  0  0  0
  -31.7330   13.2930  -18.8860 C   0  0  0  0  0  0  0  0  0  0  0  0
  -30.7640   12.4720  -18.4350 C   0  0  0  0  0  0  0  0  0  0  0  0
  -30.9540   11.3210  -17.6800 N   0  0  0  0  0  0  0  0  0  0  0  0
  -30.1790   10.7850  -17.3960 H   0  0  0  0  0  0  0  0  0  0  0  0
  -29.4750   13.0070  -18.8790 C   0  0  1  0  0  0  0  0  0  0  0  0
  -33.1800   13.1490  -18.6060 N   0  0  0  0  0  0  0  0  0  0  0  0
  -33.5910   13.2430  -17.4630 O   0  0  0  0  0  0  0  0  0  0  0  0
  -33.9590   12.9360  -19.5180 O   0  0  0  0  0  0  0  0  0  0  0  0
  -26.1700   13.5490  -20.5160 N   0  0  0  0  0  0  0  0  0  0  0  0
  -25.7190   14.6360  -20.8260 O   0  0  0  0  0  0  0  0  0  0  0  0
  -25.4320   12.5830  -20.4340 O   0  0  0  0  0  0  0  0  0  0  0  0
  -30.3110   12.6260  -21.1880 C   0  0  0  0  0  0  0  0  0  0  0  0
  -30.6450   11.8130  -21.9080 N   0  0  0  0  0  0  0  0  0  0  0  0
  -29.0420   14.0650  -17.9520 C   0  0  0  0  0  0  0  0  0  0  0  0
  -28.7080   14.8810  -17.2350 N   0  0  0  0  0  0  0  0  0  0  0  0
  1 12  1  0  0  0  0
  2  1  1  0  0  0  0
  3  6  1  0  0  0  0
  3  2  2  0  0  0  0
  4  3  1  0  0  0  0
  5  4  1  0  0  0  0
  6 19  1  6  0  0  0
  6  7  1  0  0  0  0
  6 12  1  0  0  0  0
  7  8  1  0  0  0  0
  8 13  1  0  0  0  0
  8  9  2  0  0  0  0
  9 10  1  0  0  0  0
 10 11  1  0  0  0  0
 12  9  1  0  0  0  0
 12 21  1  1  0  0  0
 13 14  2  0  0  0  0
 15 13  2  0  0  0  0
 16 18  2  0  0  0  0
 16  2  1  0  0  0  0
 17 16  2  0  0  0  0
 20 19  3  0  0  0  0
 21 22  3  0  0  0  0
M  END
>  <MODEL>
1

>  <REMARK>
 VINA RESULT:      -6.9      0.000      0.000
  Name = ZINC12362881
                            x       y       z     vdW  Elec       q    Type
                         _______ _______ _______ _____ _____    ______ ____

>  <TORSDO>
F 4

>  <vina_score>
-6.9

$$$$
ZINC04593373
 OpenBabel01081722083D

 26 27  0  0  0  0  0  0  0  0999 V2000
  -30.1360   14.1830  -19.9070 C   0  0  0  0  0  0  0  0  0  0  0  0
  -30.7830   13.6640  -18.6200 C   0  0  0  0  0  0  0  0  0  0  0  0
  -32.3070   13.7060  -18.7680 C   0  0  0  0  0  0  0  0  0  0  0  0
  -32.6860   12.9630  -19.9770 N   0  0  0  0  0  0  0  0  0  0  0  0
  -33.5960   11.9700  -19.9160 C   0  0  0  0  0  0  0  0  0  0  0  0
  -33.9010   11.3640  -20.9210 O   0  0  0  0  0  0  0  0  0  0  0  0
  -32.0540   13.3220  -21.2530 C   0  0  0  0  0  0  0  0  0  0  0  0
  -30.5330   13.2830  -21.0790 C   0  0  0  0  0  0  0  0  0  0  0  0
  -26.0210   13.0180  -19.9250 C   0  0  0  0  0  0  0  0  0  0  0  0
  -26.5250   14.0240  -20.9630 C   0  0  0  0  0  0  0  0  0  0  0  0
  -28.0440   13.8990  -21.0930 C   0  0  0  0  0  0  0  0  0  0  0  0
  -28.6630   14.1850  -19.7810 N   0  0  0  0  0  0  0  0  0  0  0  0
  -28.3590   15.1060  -19.4660 H   0  0  0  0  0  0  0  0  0  0  0  0
  -28.2390   13.1750  -18.7890 C   0  0  0  0  0  0  0  0  0  0  0  0
  -26.7260   13.2780  -18.5900 C   0  0  0  0  0  0  0  0  0  0  0  0
  -30.6060   15.5900  -20.1710 C   0  0  0  0  0  0  0  0  0  0  0  0
  -29.7090   16.5900  -20.2800 N   0  0  0  0  0  0  0  0  0  0  0  0
  -30.0160   17.5100  -20.4530 H   0  0  0  0  0  0  0  0  0  0  0  0
  -28.7470   16.4020  -20.1860 H   0  0  0  0  0  0  0  0  0  0  0  0
  -31.7900   15.8230  -20.2880 O   0  0  0  0  0  0  0  0  0  0  0  0
  -34.2360   11.6140  -18.5980 C   0  0  0  0  0  0  0  0  0  0  0  0
  -33.1640   11.1060  -17.6320 C   0  0  0  0  0  0  0  0  0  0  0  0
  -33.7140   11.1240  -16.2040 C   0  0  0  0  0  0  0  0  0  0  0  0
  -33.9240   12.5500  -15.7650 C   0  0  0  0  0  0  0  0  0  0  0  0
  -35.0940   12.9200  -15.2200 O   0  0  0  0  0  0  0  0  0  0  0  0
  -33.0380   13.3610  -15.9010 O   0  0  0  0  0  0  0  0  0  0  0  0
  1 12  1  0  0  0  0
  1  2  1  0  0  0  0
  3  2  1  0  0  0  0
  4  5  1  0  0  0  0
  4  3  1  0  0  0  0
  5 21  1  0  0  0  0
  6  5  2  0  0  0  0
  7  8  1  0  0  0  0
  7  4  1  0  0  0  0
  8  1  1  0  0  0  0
  9 15  1  0  0  0  0
 10  9  1  0  0  0  0
 11 10  1  0  0  0  0
 11 12  1  0  0  0  0
 12 13  1  0  0  0  0
 12 14  1  0  0  0  0
 14 15  1  0  0  0  0
 16  1  1  0  0  0  0
 17 19  1  0  0  0  0
 17 16  1  0  0  0  0
 18 17  1  0  0  0  0
 20 16  2  0  0  0  0
 21 22  1  0  0  0  0
 22 23  1  0  0  0  0
 23 24  1  0  0  0  0
 24 25  1  0  0  0  0
 26 24  2  0  0  0  0
M  END
>  <MODEL>
1

>  <REMARK>
 VINA RESULT:      -6.9      0.000      0.000
  Name = ZINC04593373
                            x       y       z     vdW  Elec       q    Type
                         _______ _______ _______ _____ _____    ______ ____

>  <TORSDO>
F 6

>  <vina_score>
-6.9

$$$$
ZINC04504181
 OpenBabel01081722083D

 24 25  0  0  1  0  0  0  0  0999 V2000
  -26.9960   15.0170  -18.8560 N   0  0  0  0  0  0  0  0  0  0  0  0
  -26.1560   15.5270  -18.5860 H   0  0  0  0  0  0  0  0  0  0  0  0
  -27.3550   15.3780  -19.7410 H   0  0  0  0  0  0  0  0  0  0  0  0
  -26.6600   13.5890  -19.0130 C   0  0  0  0  0  0  0  0  0  0  0  0
  -26.4910   13.2740  -20.5010 C   0  0  2  0  0  0  0  0  0  0  0  0
  -30.8090   10.9250  -20.8580 C   0  0  0  0  0  0  0  0  0  0  0  0
  -29.6210   11.7120  -21.1960 N   0  0  0  0  0  0  0  0  0  0  0  0
  -28.6570   11.9970  -20.3890 N   0  0  0  0  0  0  0  0  0  0  0  0
  -27.7790   12.7120  -21.0450 C   0  0  0  0  0  0  0  0  0  0  0  0
  -28.2440   12.8530  -22.2870 N   0  0  0  0  0  0  0  0  0  0  0  0
  -29.3720   12.2300  -22.3490 N   0  0  0  0  0  0  0  0  0  0  0  0
  -25.4430   12.3170  -20.6700 O   0  0  0  0  0  0  0  0  0  0  0  0
  -24.7010   12.5450  -20.0880 H   0  0  0  0  0  0  0  0  0  0  0  0
  -28.0200   15.1900  -17.8090 C   0  0  0  0  0  0  0  0  0  0  0  0
  -29.3660   14.8020  -18.3650 C   0  0  0  0  0  0  0  0  0  0  0  0
  -29.8650   15.4520  -19.4790 C   0  0  0  0  0  0  0  0  0  0  0  0
  -31.0960   15.0960  -19.9970 C   0  0  0  0  0  0  0  0  0  0  0  0
  -31.8390   14.0940  -19.3930 C   0  0  0  0  0  0  0  0  0  0  0  0
  -31.3390   13.4440  -18.2690 C   0  0  0  0  0  0  0  0  0  0  0  0
  -30.1010   13.8010  -17.7580 C   0  0  0  0  0  0  0  0  0  0  0  0
  -33.0520   13.7460  -19.8980 O   0  0  0  0  0  0  0  0  0  0  0  0
  -33.0700   13.1670  -21.2050 C   0  0  0  0  0  0  0  0  0  0  0  0
  -32.0630   12.4580  -17.6740 O   0  0  0  0  0  0  0  0  0  0  0  0
  -32.8010   12.8120  -16.5020 C   0  0  0  0  0  0  0  0  0  0  0  0
  1  2  1  0  0  0  0
  1 14  1  0  0  0  0
  3  1  1  0  0  0  0
  4  1  1  0  0  0  0
  5  9  1  1  0  0  0
  5  4  1  0  0  0  0
  7  6  1  0  0  0  0
  7  8  1  0  0  0  0
  9  8  2  0  0  0  0
 10  9  1  0  0  0  0
 11 10  2  0  0  0  0
 11  7  1  0  0  0  0
 12  5  1  0  0  0  0
 12 13  1  0  0  0  0
 15 14  1  0  0  0  0
 15 20  2  0  0  0  0
 16 15  1  0  0  0  0
 17 16  2  0  0  0  0
 17 18  1  0  0  0  0
 18 19  2  0  0  0  0
 19 20  1  0  0  0  0
 19 23  1  0  0  0  0
 21 18  1  0  0  0  0
 22 21  1  0  0  0  0
 23 24  1  0  0  0  0
M  END
>  <MODEL>
1

>  <REMARK>
 VINA RESULT:      -6.9      0.000      0.000
  Name = ZINC04504181
                            x       y       z     vdW  Elec       q    Type
                         _______ _______ _______ _____ _____    ______ ____

>  <TORSDO>
F 8

>  <vina_score>
-6.9

$$$$
ZINC29731274
 OpenBabel01081722093D

 27 27  0  0  0  0  0  0  0  0999 V2000
  -33.0090   13.4540  -21.0290 N   0  0  0  0  0  0  0  0  0  0  0  0
  -32.7940   13.3790  -21.9870 H   0  0  0  0  0  0  0  0  0  0  0  0
  -32.3040   14.2920  -20.2450 C   0  0  0  0  0  0  0  0  0  0  0  0
  -31.3050   15.0270  -20.7700 N   0  0  0  0  0  0  0  0  0  0  0  0
  -31.0920   14.9550  -21.7290 H   0  0  0  0  0  0  0  0  0  0  0  0
  -32.5690   14.3850  -19.0620 O   0  0  0  0  0  0  0  0  0  0  0  0
  -34.0960   12.6540  -20.4580 C   0  0  0  0  0  0  0  0  0  0  0  0
  -33.6690   11.1860  -20.3910 C   0  0  0  0  0  0  0  0  0  0  0  0
  -33.3870   10.8030  -18.9370 C   0  0  0  0  0  0  0  0  0  0  0  0
  -33.5930   11.9710  -18.0750 N   0  0  0  0  0  0  0  0  0  0  0  0
  -33.2210   12.7760  -18.5770 H   0  0  0  0  0  0  0  0  0  0  0  0
  -33.9190   10.8260  -15.5940 C   0  0  0  0  0  0  0  0  0  0  0  0
  -32.9340   12.0050  -16.5570 S   0  0  0  0  0  0  0  0  0  0  0  0
  -33.1610   13.3280  -16.0920 O   0  0  0  0  0  0  0  0  0  0  0  0
  -31.6100   11.5150  -16.7260 O   0  0  0  0  0  0  0  0  0  0  0  0
  -30.5340   15.9340  -19.9160 C   0  0  0  0  0  0  0  0  0  0  0  0
  -29.3200   15.2150  -19.3860 C   0  0  0  0  0  0  0  0  0  0  0  0
  -28.9560   15.3590  -18.0590 C   0  0  0  0  0  0  0  0  0  0  0  0
  -27.8460   14.7000  -17.5640 C   0  0  0  0  0  0  0  0  0  0  0  0
  -27.0880   13.9010  -18.3940 C   0  0  0  0  0  0  0  0  0  0  0  0
  -27.4450   13.7550  -19.7350 C   0  0  0  0  0  0  0  0  0  0  0  0
  -28.5700   14.4200  -20.2280 C   0  0  0  0  0  0  0  0  0  0  0  0
  -26.6370   12.9010  -20.6310 C   0  0  0  0  0  0  0  0  0  0  0  0
  -27.1950   12.3630  -21.7340 N   0  0  0  0  0  0  0  0  0  0  0  0
  -26.6560   11.7950  -22.3310 H   0  0  0  0  0  0  0  0  0  0  0  0
  -28.1400   12.5390  -21.9420 H   0  0  0  0  0  0  0  0  0  0  0  0
  -25.4690   12.6850  -20.3740 O   0  0  0  0  0  0  0  0  0  0  0  0
  1  7  1  0  0  0  0
  1  3  1  0  0  0  0
  2  1  1  0  0  0  0
  3  6  2  0  0  0  0
  4  3  1  0  0  0  0
  4 16  1  0  0  0  0
  5  4  1  0  0  0  0
  7  8  1  0  0  0  0
  8  9  1  0  0  0  0
  9 10  1  0  0  0  0
 10 13  1  0  0  0  0
 11 10  1  0  0  0  0
 13 14  2  0  0  0  0
 13 12  1  0  0  0  0
 15 13  2  0  0  0  0
 16 17  1  0  0  0  0
 17 18  2  0  0  0  0
 18 19  1  0  0  0  0
 20 19  2  0  0  0  0
 21 20  1  0  0  0  0
 22 21  2  0  0  0  0
 22 17  1  0  0  0  0
 23 27  2  0  0  0  0
 23 21  1  0  0  0  0
 24 23  1  0  0  0  0
 25 24  1  0  0  0  0
 26 24  1  0  0  0  0
M  END
>  <MODEL>
1

>  <REMARK>
 VINA RESULT:      -6.9      0.000      0.000
  Name = ZINC29731274
                            x       y       z     vdW  Elec       q    Type
                         _______ _______ _______ _____ _____    ______ ____

>  <TORSDO>
F 8

>  <vina_score>
-6.9

$$$$
ZINC06315906
 OpenBabel01081722173D

 28 30  0  0  0  0  0  0  0  0999 V2000
  -31.4630   12.0460  -19.1240 C   0  0  0  0  0  0  0  0  0  0  0  0
  -31.8890   12.0130  -17.7980 C   0  0  0  0  0  0  0  0  0  0  0  0
  -33.1340   11.4800  -17.6870 N   0  0  0  0  0  0  0  0  0  0  0  0
  -33.5960   11.1160  -19.0330 C   0  0  0  0  0  0  0  0  0  0  0  0
  -32.4630   11.5110  -19.9560 C   0  0  0  0  0  0  0  0  0  0  0  0
  -32.4230   11.3880  -21.1660 O   0  0  0  0  0  0  0  0  0  0  0  0
  -26.4760   14.4570  -21.4370 C   0  0  0  0  0  0  0  0  0  0  0  0
  -25.8680   13.7280  -20.4250 C   0  0  0  0  0  0  0  0  0  0  0  0
  -26.6240   12.9610  -19.5670 C   0  0  0  0  0  0  0  0  0  0  0  0
  -28.0130   12.9160  -19.7150 C   0  0  0  0  0  0  0  0  0  0  0  0
  -28.6230   13.6570  -20.7420 C   0  0  0  0  0  0  0  0  0  0  0  0
  -29.9810   13.4130  -20.6420 N   0  0  0  0  0  0  0  0  0  0  0  0
  -30.6860   13.7820  -21.2220 H   0  0  0  0  0  0  0  0  0  0  0  0
  -30.1630   12.5610  -19.5840 C   0  0  0  0  0  0  0  0  0  0  0  0
  -29.0000   12.2700  -19.0450 N   0  0  0  0  0  0  0  0  0  0  0  0
  -27.8450   14.4240  -21.5970 C   0  0  0  0  0  0  0  0  0  0  0  0
  -33.8500   11.3040  -16.4950 N   0  0  0  0  0  0  0  0  0  0  0  0
  -34.0760   10.3970  -16.1870 H   0  0  0  0  0  0  0  0  0  0  0  0
  -34.2300   12.3770  -15.7730 C   0  0  0  0  0  0  0  0  0  0  0  0
  -33.9510   13.4950  -16.1540 O   0  0  0  0  0  0  0  0  0  0  0  0
  -34.9940   12.1890  -14.5020 C   0  0  0  0  0  0  0  0  0  0  0  0
  -34.9410   13.1300  -13.5390 N   0  0  0  0  0  0  0  0  0  0  0  0
  -35.4440   13.0060  -12.7020 H   0  0  0  0  0  0  0  0  0  0  0  0
  -34.3990   13.9410  -13.6720 H   0  0  0  0  0  0  0  0  0  0  0  0
  -35.6620   11.1900  -14.3380 O   0  0  0  0  0  0  0  0  0  0  0  0
  -31.1490   12.4590  -16.7440 N   0  0  0  0  0  0  0  0  0  0  0  0
  -31.4610   12.3050  -15.8230 H   0  0  0  0  0  0  0  0  0  0  0  0
  -30.3030   12.9380  -16.9040 H   0  0  0  0  0  0  0  0  0  0  0  0
  1  2  2  0  0  0  0
  2  3  1  0  0  0  0
  2 26  1  0  0  0  0
  3 17  1  0  0  0  0
  4  3  1  0  0  0  0
  5  1  1  0  0  0  0
  5  4  1  0  0  0  0
  6  5  2  0  0  0  0
  7  8  1  0  0  0  0
  8  9  2  0  0  0  0
 10  9  1  0  0  0  0
 10 15  1  0  0  0  0
 11 12  1  0  0  0  0
 11 10  2  0  0  0  0
 12 14  1  0  0  0  0
 13 12  1  0  0  0  0
 14  1  1  0  0  0  0
 14 15  2  0  0  0  0
 16  7  2  0  0  0  0
 16 11  1  0  0  0  0
 17 18  1  0  0  0  0
 17 19  1  0  0  0  0
 19 21  1  0  0  0  0
 20 19  2  0  0  0  0
 21 25  2  0  0  0  0
 21 22  1  0  0  0  0
 22 23  1  0  0  0  0
 24 22  1  0  0  0  0
 26 27  1  0  0  0  0
 28 26  1  0  0  0  0
M  END
>  <MODEL>
1

>  <REMARK>
 VINA RESULT:      -6.8      0.000      0.000
  Name = ZINC06315906
                            x       y       z     vdW  Elec       q    Type
                         _______ _______ _______ _____ _____    ______ ____

>  <TORSDO>
F 4

>  <vina_score>
-6.8

$$$$
ZINC31768924
 OpenBabel01081722043D

 25 26  0  0  0  0  0  0  0  0999 V2000
  -31.9020   12.4580  -21.6900 C   0  0  0  0  0  0  0  0  0  0  0  0
  -29.8900   13.6730  -20.9180 N   0  0  0  0  0  0  0  0  0  0  0  0
  -30.4800   14.4130  -20.6460 H   0  0  0  0  0  0  0  0  0  0  0  0
  -30.4140   12.5640  -21.4780 C   0  0  0  0  0  0  0  0  0  0  0  0
  -29.6870   11.6530  -21.8120 O   0  0  0  0  0  0  0  0  0  0  0  0
  -27.8400   13.4340  -19.5980 N   0  0  0  0  0  0  0  0  0  0  0  0
  -28.5130   13.7710  -20.7220 C   0  0  0  0  0  0  0  0  0  0  0  0
  -27.6030   14.2270  -21.6260 C   0  0  0  0  0  0  0  0  0  0  0  0
  -26.3390   14.1550  -21.0330 C   0  0  0  0  0  0  0  0  0  0  0  0
  -26.4790   13.6820  -19.8210 N   0  0  0  0  0  0  0  0  0  0  0  0
  -28.4280   12.9010  -18.3680 C   0  0  0  0  0  0  0  0  0  0  0  0
  -28.2850   15.3620  -17.9660 C   0  0  0  0  0  0  0  0  0  0  0  0
  -28.4620   13.9970  -17.3000 C   0  0  0  0  0  0  0  0  0  0  0  0
  -32.5880   13.6990  -21.1170 C   0  0  0  0  0  0  0  0  0  0  0  0
  -33.4640   13.3060  -20.0100 N   0  0  0  0  0  0  0  0  0  0  0  0
  -34.4020   13.0660  -20.1860 H   0  0  0  0  0  0  0  0  0  0  0  0
  -32.9840   13.2730  -18.7510 C   0  0  0  0  0  0  0  0  0  0  0  0
  -31.8230   13.5700  -18.5340 O   0  0  0  0  0  0  0  0  0  0  0  0
  -33.8290   12.8940  -17.6810 C   0  0  0  0  0  0  0  0  0  0  0  0
  -33.2930   12.4390  -16.5220 C   0  0  0  0  0  0  0  0  0  0  0  0
  -34.1390   12.0590  -15.4520 C   0  0  0  0  0  0  0  0  0  0  0  0
  -34.6920   12.9040  -14.5130 C   0  0  0  0  0  0  0  0  0  0  0  0
  -35.4580   12.1010  -13.6530 C   0  0  0  0  0  0  0  0  0  0  0  0
  -35.3370   10.8260  -14.0850 C   0  0  0  0  0  0  0  0  0  0  0  0
  -34.5450   10.8030  -15.1670 O   0  0  0  0  0  0  0  0  0  0  0  0
  1  4  1  0  0  0  0
  1 14  1  0  0  0  0
  2  7  1  0  0  0  0
  2  3  1  0  0  0  0
  4  2  1  0  0  0  0
  5  4  2  0  0  0  0
  6 11  1  0  0  0  0
  7  6  1  0  0  0  0
  8  9  1  0  0  0  0
  8  7  2  0  0  0  0
  9 10  2  0  0  0  0
 10  6  1  0  0  0  0
 11 13  1  0  0  0  0
 12 13  1  0  0  0  0
 14 15  1  0  0  0  0
 15 17  1  0  0  0  0
 16 15  1  0  0  0  0
 17 18  2  0  0  0  0
 17 19  1  0  0  0  0
 19 20  2  0  0  0  0
 20 21  1  0  0  0  0
 21 25  1  0  0  0  0
 21 22  2  0  0  0  0
 22 23  1  0  0  0  0
 24 23  2  0  0  0  0
 25 24  1  0  0  0  0
M  END
>  <MODEL>
1

>  <REMARK>
 VINA RESULT:      -6.8      0.000      0.000
  Name = ZINC31768924
                            x       y       z     vdW  Elec       q    Type
                         _______ _______ _______ _____ _____    ______ ____

>  <TORSDO>
F 8

>  <vina_score>
-6.8

$$$$
ZINC19672148
 OpenBabel01081722203D

 22 23  0  0  0  0  0  0  0  0999 V2000
  -30.6210   13.9640  -19.7400 C   0  0  0  0  0  0  0  0  0  0  0  0
  -30.2650   13.3290  -18.5650 C   0  0  0  0  0  0  0  0  0  0  0  0
  -28.9380   13.0480  -18.3110 C   0  0  0  0  0  0  0  0  0  0  0  0
  -27.9580   13.4080  -19.2240 C   0  0  0  0  0  0  0  0  0  0  0  0
  -28.3120   14.0440  -20.3950 C   0  0  0  0  0  0  0  0  0  0  0  0
  -27.2860   14.4500  -21.4200 C   0  0  0  0  0  0  0  0  0  0  0  0
  -25.9460   14.4640  -20.8260 N   0  0  0  0  0  0  0  0  0  0  0  0
  -25.2570   14.6120  -21.5640 H   0  0  0  0  0  0  0  0  0  0  0  0
  -25.8880   15.2160  -20.1400 H   0  0  0  0  0  0  0  0  0  0  0  0
  -25.6680   13.1790  -20.1640 C   0  0  0  0  0  0  0  0  0  0  0  0
  -26.5220   13.0920  -18.8980 C   0  0  0  0  0  0  0  0  0  0  0  0
  -29.6470   14.3220  -20.6500 C   0  0  0  0  0  0  0  0  0  0  0  0
  -32.3140   14.3230  -20.0730 S   0  0  0  0  0  0  0  0  0  0  0  0
  -32.4430   15.7370  -20.0390 O   0  0  0  0  0  0  0  0  0  0  0  0
  -32.6780   13.5510  -21.2090 O   0  0  0  0  0  0  0  0  0  0  0  0
  -33.1970   13.7370  -18.8000 N   0  0  0  0  0  0  0  0  0  0  0  0
  -32.6310   13.8730  -17.9620 H   0  0  0  0  0  0  0  0  0  0  0  0
  -33.6350   12.3390  -18.7940 C   0  0  0  0  0  0  0  0  0  0  0  0
  -33.3400   11.7180  -17.4270 C   0  0  0  0  0  0  0  0  0  0  0  0
  -33.0450   12.8290  -16.4170 C   0  0  0  0  0  0  0  0  0  0  0  0
  -34.7080   12.6740  -14.6970 C   0  0  0  0  0  0  0  0  0  0  0  0
  -34.2730   13.3320  -15.8890 O   0  0  0  0  0  0  0  0  0  0  0  0
  1  2  2  0  0  0  0
  2  3  1  0  0  0  0
  4 11  1  0  0  0  0
  4  3  2  0  0  0  0
  5  4  1  0  0  0  0
  6  7  1  0  0  0  0
  6  5  1  0  0  0  0
  7 10  1  0  0  0  0
  7  9  1  0  0  0  0
  8  7  1  0  0  0  0
 10 11  1  0  0  0  0
 12  5  2  0  0  0  0
 12  1  1  0  0  0  0
 13 14  2  0  0  0  0
 13  1  1  0  0  0  0
 13 16  1  0  0  0  0
 15 13  2  0  0  0  0
 16 18  1  0  0  0  0
 16 17  1  0  0  0  0
 18 19  1  0  0  0  0
 19 20  1  0  0  0  0
 20 22  1  0  0  0  0
 22 21  1  0  0  0  0
M  END
>  <MODEL>
1

>  <REMARK>
 VINA RESULT:      -6.8      0.000      0.000
  Name = ZINC19672148
                            x       y       z     vdW  Elec       q    Type
                         _______ _______ _______ _____ _____    ______ ____

>  <TORSDO>
F 6

>  <vina_score>
-6.8

$$$$
ZINC07104443
 OpenBabel01081722123D

 24 25  0  0  0  0  0  0  0  0999 V2000
  -33.9150   11.7710  -19.2230 C   0  0  0  0  0  0  0  0  0  0  0  0
  -32.6260   11.8320  -18.5290 N   0  0  0  0  0  0  0  0  0  0  0  0
  -32.3940   12.2690  -17.2550 C   0  0  0  0  0  0  0  0  0  0  0  0
  -31.1140   12.1560  -17.0330 N   0  0  0  0  0  0  0  0  0  0  0  0
  -30.5270   11.6770  -18.0720 N   0  0  0  0  0  0  0  0  0  0  0  0
  -31.4060   11.4640  -19.0220 C   0  0  0  0  0  0  0  0  0  0  0  0
  -33.4260   12.7840  -16.2850 C   0  0  0  0  0  0  0  0  0  0  0  0
  -33.9960   11.6160  -15.4790 C   0  0  0  0  0  0  0  0  0  0  0  0
  -34.9540   12.1420  -14.4420 C   0  0  0  0  0  0  0  0  0  0  0  0
  -34.6780   13.2900  -13.7910 N   0  0  0  0  0  0  0  0  0  0  0  0
  -35.3040   13.6350  -13.1140 H   0  0  0  0  0  0  0  0  0  0  0  0
  -33.8510   13.7840  -13.9930 H   0  0  0  0  0  0  0  0  0  0  0  0
  -35.9740   11.5350  -14.1930 O   0  0  0  0  0  0  0  0  0  0  0  0
  -31.0770   10.8190  -20.6290 S   0  0  0  0  0  0  0  0  0  0  0  0
  -30.5820   12.3360  -21.4810 C   0  0  0  0  0  0  0  0  0  0  0  0
  -29.0700   12.3180  -21.7170 C   0  0  0  0  0  0  0  0  0  0  0  0
  -28.5220   13.5990  -21.3990 O   0  0  0  0  0  0  0  0  0  0  0  0
  -28.3650   13.8940  -20.0810 C   0  0  0  0  0  0  0  0  0  0  0  0
  -27.4350   13.2020  -19.3210 C   0  0  0  0  0  0  0  0  0  0  0  0
  -27.2820   13.4990  -17.9800 C   0  0  0  0  0  0  0  0  0  0  0  0
  -28.0540   14.4850  -17.3960 C   0  0  0  0  0  0  0  0  0  0  0  0
  -28.9830   15.1780  -18.1500 C   0  0  0  0  0  0  0  0  0  0  0  0
  -29.1410   14.8850  -19.4930 C   0  0  0  0  0  0  0  0  0  0  0  0
  -30.0490   15.5600  -20.2300 F   0  0  0  0  0  0  0  0  0  0  0  0
  1  2  1  0  0  0  0
  2  3  1  0  0  0  0
  3  4  2  0  0  0  0
  3  7  1  0  0  0  0
  5  4  1  0  0  0  0
  6  2  1  0  0  0  0
  6  5  2  0  0  0  0
  7  8  1  0  0  0  0
  8  9  1  0  0  0  0
  9 13  2  0  0  0  0
  9 10  1  0  0  0  0
 10 11  1  0  0  0  0
 12 10  1  0  0  0  0
 14  6  1  0  0  0  0
 15 14  1  0  0  0  0
 16 15  1  0  0  0  0
 16 17  1  0  0  0  0
 17 18  1  0  0  0  0
 18 23  2  0  0  0  0
 18 19  1  0  0  0  0
 19 20  2  0  0  0  0
 20 21  1  0  0  0  0
 22 21  2  0  0  0  0
 23 22  1  0  0  0  0
 24 23  1  0  0  0  0
M  END
>  <MODEL>
1

>  <REMARK>
 VINA RESULT:      -6.8      0.000      0.000
  Name = ZINC07104443
                            x       y       z     vdW  Elec       q    Type
                         _______ _______ _______ _____ _____    ______ ____

>  <TORSDO>
F 8

>  <vina_score>
-6.8

$$$$
ZINC20676572
 OpenBabel01081722233D

 28 30  0  0  0  0  0  0  0  0999 V2000
  -32.0270   16.6140  -20.3640 C   0  0  0  0  0  0  0  0  0  0  0  0
  -32.3230   15.1380  -20.3120 C   0  0  0  0  0  0  0  0  0  0  0  0
  -32.4820   14.4430  -21.4560 N   0  0  0  0  0  0  0  0  0  0  0  0
  -32.4040   14.8990  -22.3250 H   0  0  0  0  0  0  0  0  0  0  0  0
  -32.4200   14.5750  -19.2420 O   0  0  0  0  0  0  0  0  0  0  0  0
  -32.7700   13.0070  -21.4060 C   0  0  0  0  0  0  0  0  0  0  0  0
  -31.4940   12.2190  -21.7070 C   0  0  0  0  0  0  0  0  0  0  0  0
  -31.2930   11.1450  -20.6370 C   0  0  0  0  0  0  0  0  0  0  0  0
  -31.7820   11.6430  -19.3440 N   0  0  0  0  0  0  0  0  0  0  0  0
  -32.1450   12.5840  -19.4920 H   0  0  0  0  0  0  0  0  0  0  0  0
  -30.6900   11.7240  -18.3630 C   0  0  0  0  0  0  0  0  0  0  0  0
  -31.2300   12.3020  -17.0540 C   0  0  0  0  0  0  0  0  0  0  0  0
  -32.3160   11.4920  -16.5910 O   0  0  0  0  0  0  0  0  0  0  0  0
  -33.3960   11.3920  -17.5220 C   0  0  0  0  0  0  0  0  0  0  0  0
  -32.8780   10.8040  -18.8370 C   0  0  0  0  0  0  0  0  0  0  0  0
  -30.5530   16.8500  -20.0250 C   0  0  0  0  0  0  0  0  0  0  0  0
  -29.7700   15.6730  -20.4030 N   0  0  0  0  0  0  0  0  0  0  0  0
  -29.8220   15.3200  -21.3210 H   0  0  0  0  0  0  0  0  0  0  0  0
  -26.2280   13.2540  -20.8800 C   0  0  0  0  0  0  0  0  0  0  0  0
  -26.0430   13.0450  -19.5460 N   0  0  0  0  0  0  0  0  0  0  0  0
  -25.3190   12.5200  -19.1340 H   0  0  0  0  0  0  0  0  0  0  0  0
  -27.0490   13.7000  -18.8820 C   0  0  0  0  0  0  0  0  0  0  0  0
  -27.8410   14.3000  -19.8770 C   0  0  0  0  0  0  0  0  0  0  0  0
  -28.9560   15.0530  -19.4710 C   0  0  0  0  0  0  0  0  0  0  0  0
  -29.2140   15.1530  -18.1710 N   0  0  0  0  0  0  0  0  0  0  0  0
  -28.4430   14.5660  -17.2730 C   0  0  0  0  0  0  0  0  0  0  0  0
  -27.3850   13.8560  -17.6060 N   0  0  0  0  0  0  0  0  0  0  0  0
  -27.2820   13.9940  -21.0720 N   0  0  0  0  0  0  0  0  0  0  0  0
  1  2  1  0  0  0  0
  1 16  1  0  0  0  0
  2  5  2  0  0  0  0
  3  6  1  0  0  0  0
  3  2  1  0  0  0  0
  4  3  1  0  0  0  0
  7  6  1  0  0  0  0
  7  8  1  0  0  0  0
  8  9  1  0  0  0  0
  9 15  1  0  0  0  0
  9 11  1  0  0  0  0
 10  9  1  0  0  0  0
 11 12  1  0  0  0  0
 12 13  1  0  0  0  0
 14 13  1  0  0  0  0
 15 14  1  0  0  0  0
 17 16  1  0  0  0  0
 17 24  1  0  0  0  0
 18 17  1  0  0  0  0
 19 20  1  0  0  0  0
 20 21  1  0  0  0  0
 20 22  1  0  0  0  0
 22 27  2  0  0  0  0
 23 24  2  0  0  0  0
 23 22  1  0  0  0  0
 24 25  1  0  0  0  0
 25 26  2  0  0  0  0
 27 26  1  0  0  0  0
 28 19  2  0  0  0  0
 28 23  1  0  0  0  0
M  END
>  <MODEL>
1

>  <REMARK>
 VINA RESULT:      -6.7      0.000      0.000
  Name = ZINC20676572
                            x       y       z     vdW  Elec       q    Type
                         _______ _______ _______ _____ _____    ______ ____

>  <TORSDO>
F 8

>  <vina_score>
-6.7

$$$$
ZINC03978077
 OpenBabel01081722043D

 23 24  0  0  1  0  0  0  0  0999 V2000
  -28.8250   12.7230  -20.2730 C   0  0  2  0  0  0  0  0  0  0  0  0
  -27.5820   12.8970  -21.1830 C   0  0  2  0  0  0  0  0  0  0  0  0
  -26.5700   13.5700  -20.2240 C   0  0  1  0  0  0  0  0  0  0  0  0
  -27.0960   13.2250  -18.8170 C   0  0  2  0  0  0  0  0  0  0  0  0
  -28.2570   12.3940  -18.9830 O   0  0  0  0  0  0  0  0  0  0  0  0
  -27.8780   13.7480  -22.2920 O   0  0  0  0  0  0  0  0  0  0  0  0
  -27.0630   14.1740  -22.6000 H   0  0  0  0  0  0  0  0  0  0  0  0
  -25.2620   13.0290  -20.4170 O   0  0  0  0  0  0  0  0  0  0  0  0
  -25.0800   12.9550  -21.3670 H   0  0  0  0  0  0  0  0  0  0  0  0
  -29.7070   11.5790  -20.7790 C   0  0  0  0  0  0  0  0  0  0  0  0
  -31.5600   11.7890  -19.2030 C   0  0  0  0  0  0  0  0  0  0  0  0
  -32.8130   12.0550  -18.9340 N   0  0  0  0  0  0  0  0  0  0  0  0
  -33.6600   12.4020  -19.9130 C   0  0  0  0  0  0  0  0  0  0  0  0
  -33.2360   12.4840  -21.1680 N   0  0  0  0  0  0  0  0  0  0  0  0
  -31.9610   12.2210  -21.4610 C   0  0  0  0  0  0  0  0  0  0  0  0
  -31.5670   12.2940  -22.6120 O   0  0  0  0  0  0  0  0  0  0  0  0
  -31.1100   11.8710  -20.4740 N   0  0  0  0  0  0  0  0  0  0  0  0
  -34.9720   12.6740  -19.6170 N   0  0  0  0  0  0  0  0  0  0  0  0
  -35.3230   13.5880  -19.7280 H   0  0  0  0  0  0  0  0  0  0  0  0
  -35.5620   11.9560  -19.2940 H   0  0  0  0  0  0  0  0  0  0  0  0
  -27.4760   14.5070  -18.0740 C   0  0  0  0  0  0  0  0  0  0  0  0
  -27.1390   15.6410  -18.8750 O   0  0  0  0  0  0  0  0  0  0  0  0
  -27.9500   16.0340  -19.2360 H   0  0  0  0  0  0  0  0  0  0  0  0
  1 10  1  6  0  0  0
  1  5  1  0  0  0  0
  2  6  1  6  0  0  0
  2  1  1  0  0  0  0
  2  3  1  0  0  0  0
  3  8  1  1  0  0  0
  3  4  1  0  0  0  0
  4 21  1  6  0  0  0
  5  4  1  0  0  0  0
  7  6  1  0  0  0  0
  9  8  1  0  0  0  0
 10 17  1  0  0  0  0
 11 12  2  0  0  0  0
 13 18  1  0  0  0  0
 13 12  1  0  0  0  0
 14 13  2  0  0  0  0
 15 14  1  0  0  0  0
 15 17  1  0  0  0  0
 16 15  2  0  0  0  0
 17 11  1  0  0  0  0
 18 20  1  0  0  0  0
 19 18  1  0  0  0  0
 22 21  1  0  0  0  0
 23 22  1  0  0  0  0
M  END
>  <MODEL>
1

>  <REMARK>
 VINA RESULT:      -6.7      0.000      0.000
  Name = ZINC03978077
                            x       y       z     vdW  Elec       q    Type
                         _______ _______ _______ _____ _____    ______ ____

>  <TORSDO>
F 7

>  <vina_score>
-6.7

$$$$
ZINC06030283
 OpenBabel01081722193D

 30 30  0  0  1  0  0  0  0  0999 V2000
  -29.5440   13.1100  -19.3790 C   0  0  2  0  0  0  0  0  0  0  0  0
  -29.6470   14.4230  -18.5980 C   0  0  1  0  0  0  0  0  0  0  0  0
  -28.5080   14.4920  -17.5770 C   0  0  1  0  0  0  0  0  0  0  0  0
  -27.1700   14.3560  -18.3120 C   0  0  1  0  0  0  0  0  0  0  0  0
  -27.1630   13.0460  -19.1040 C   0  0  1  0  0  0  0  0  0  0  0  0
  -28.2650   13.0330  -20.0120 O   0  0  0  0  0  0  0  0  0  0  0  0
  -29.5350   15.5610  -19.5290 N   0  0  0  0  0  0  0  0  0  0  0  0
  -29.0810   16.3380  -19.0500 H   0  0  0  0  0  0  0  0  0  0  0  0
  -28.9830   15.2800  -20.3400 H   0  0  0  0  0  0  0  0  0  0  0  0
  -30.8730   15.9900  -19.9770 C   0  0  0  0  0  0  0  0  0  0  0  0
  -28.5530   15.7460  -16.8950 O   0  0  0  0  0  0  0  0  0  0  0  0
  -29.3910   16.1920  -17.0910 H   0  0  0  0  0  0  0  0  0  0  0  0
  -27.0050   15.4570  -19.2080 O   0  0  0  0  0  0  0  0  0  0  0  0
  -26.8790   15.1240  -20.1100 H   0  0  0  0  0  0  0  0  0  0  0  0
  -30.5720   13.0640  -20.3710 O   0  0  0  0  0  0  0  0  0  0  0  0
  -31.4280   11.9240  -20.2680 C   0  0  2  0  0  0  0  0  0  0  0  0
  -31.4530   11.1920  -21.5840 C   0  0  0  0  0  0  0  0  0  0  0  0
  -31.6090   11.8040  -22.6120 O   0  0  0  0  0  0  0  0  0  0  0  0
  -32.8440   12.3820  -19.9110 C   0  0  1  0  0  0  0  0  0  0  0  0
  -32.5220   11.8690  -17.4860 C   0  0  0  0  0  0  0  0  0  0  0  0
  -32.8480   12.9700  -18.4980 C   0  0  2  0  0  0  0  0  0  0  0  0
  -34.1380   13.5140  -18.2120 O   0  0  0  0  0  0  0  0  0  0  0  0
  -34.6490   13.5810  -19.0340 H   0  0  0  0  0  0  0  0  0  0  0  0
  -33.2720   13.3760  -20.8430 O   0  0  0  0  0  0  0  0  0  0  0  0
  -32.8230   14.2140  -20.6510 H   0  0  0  0  0  0  0  0  0  0  0  0
  -33.7820   11.2040  -19.9660 C   0  0  0  0  0  0  0  0  0  0  0  0
  -34.9270   11.3580  -20.3170 O   0  0  0  0  0  0  0  0  0  0  0  0
  -25.8530   12.9320  -19.8890 C   0  0  0  0  0  0  0  0  0  0  0  0
  -26.0940   12.2450  -21.1190 O   0  0  0  0  0  0  0  0  0  0  0  0
  -25.6960   11.3620  -21.0790 H   0  0  0  0  0  0  0  0  0  0  0  0
  1 15  1  6  0  0  0
  1  2  1  0  0  0  0
  2  7  1  6  0  0  0
  2  3  1  0  0  0  0
  3 11  1  6  0  0  0
  4 13  1  6  0  0  0
  4  3  1  0  0  0  0
  5 28  1  6  0  0  0
  5  4  1  0  0  0  0
  6  1  1  0  0  0  0
  6  5  1  0  0  0  0
  7  8  1  0  0  0  0
  9  7  1  0  0  0  0
 10  7  1  0  0  0  0
 12 11  1  0  0  0  0
 14 13  1  0  0  0  0
 15 16  1  0  0  0  0
 16 17  1  6  0  0  0
 16 19  1  0  0  0  0
 18 17  2  0  0  0  0
 19 24  1  6  0  0  0
 19 21  1  0  0  0  0
 21 22  1  1  0  0  0
 21 20  1  0  0  0  0
 23 22  1  0  0  0  0
 24 25  1  0  0  0  0
 26 19  1  0  0  0  0
 27 26  2  0  0  0  0
 29 30  1  0  0  0  0
 29 28  1  0  0  0  0
M  END
>  <MODEL>
1

>  <REMARK>
 VINA RESULT:      -6.6      0.000      0.000
  Name = ZINC06030283
                            x       y       z     vdW  Elec       q    Type
                         _______ _______ _______ _____ _____    ______ ____

>  <TORSDO>
F 13

>  <vina_score>
-6.6

$$$$
ZINC04226596
 OpenBabel01081722203D

 23 24  0  0  1  0  0  0  0  0999 V2000
  -30.9380   12.4550  -19.4520 C   0  0  1  0  0  0  0  0  0  0  0  0
  -30.9030   11.7010  -20.6160 C   0  0  0  0  0  0  0  0  0  0  0  0
  -29.7300   11.6300  -21.3520 C   0  0  0  0  0  0  0  0  0  0  0  0
  -28.5740   12.2580  -21.0260 N   0  0  0  0  0  0  0  0  0  0  0  0
  -27.7630   12.1810  -21.5780 H   0  0  0  0  0  0  0  0  0  0  0  0
  -28.6040   13.0100  -19.8760 C   0  0  0  0  0  0  0  0  0  0  0  0
  -27.4180   13.6870  -19.4890 C   0  0  0  0  0  0  0  0  0  0  0  0
  -27.4200   14.4530  -18.3310 C   0  0  0  0  0  0  0  0  0  0  0  0
  -28.5640   14.5620  -17.5550 C   0  0  0  0  0  0  0  0  0  0  0  0
  -29.7160   13.9190  -17.9070 C   0  0  0  0  0  0  0  0  0  0  0  0
  -29.7040   10.8040  -22.6110 C   0  0  0  0  0  0  0  0  0  0  0  0
  -29.7580   13.1350  -19.0670 C   0  0  0  0  0  0  0  0  0  0  0  0
  -26.2000   13.5780  -20.3090 C   0  0  0  0  0  0  0  0  0  0  0  0
  -25.7920   14.6260  -21.0510 O   0  0  0  0  0  0  0  0  0  0  0  0
  -25.5630   12.5440  -20.3150 O   0  0  0  0  0  0  0  0  0  0  0  0
  -32.0950   12.5450  -18.6940 N   0  0  0  0  0  0  0  0  0  0  0  0
  -32.3610   13.4080  -18.3030 H   0  0  0  0  0  0  0  0  0  0  0  0
  -32.9230   11.3560  -18.4760 C   0  0  1  0  0  0  0  0  0  0  0  0
  -33.3900   12.7000  -16.4230 C   0  0  0  0  0  0  0  0  0  0  0  0
  -33.3380   11.2860  -17.0050 C   0  0  0  0  0  0  0  0  0  0  0  0
  -34.1720   11.4370  -19.3550 C   0  0  0  0  0  0  0  0  0  0  0  0
  -34.3230   12.7690  -19.8480 O   0  0  0  0  0  0  0  0  0  0  0  0
  -33.7270   12.9050  -20.6010 H   0  0  0  0  0  0  0  0  0  0  0  0
  1 12  1  0  0  0  0
  1 16  1  6  0  0  0
  2  1  1  0  0  0  0
  3  4  1  0  0  0  0
  3  2  2  0  0  0  0
  4  6  1  0  0  0  0
  5  4  1  0  0  0  0
  6  7  1  0  0  0  0
  6 12  2  0  0  0  0
  7  8  2  0  0  0  0
  8  9  1  0  0  0  0
 10  9  2  0  0  0  0
 11  3  1  0  0  0  0
 12 10  1  0  0  0  0
 13  7  1  0  0  0  0
 14 13  2  0  0  0  0
 15 13  1  0  0  0  0
 16 18  1  0  0  0  0
 16 17  1  0  0  0  0
 18 21  1  6  0  0  0
 18 20  1  0  0  0  0
 20 19  1  0  0  0  0
 22 21  1  0  0  0  0
 23 22  1  0  0  0  0
M  END
>  <MODEL>
1

>  <REMARK>
 VINA RESULT:      -6.6      0.000      0.000
  Name = ZINC04226596
                            x       y       z     vdW  Elec       q    Type
                         _______ _______ _______ _____ _____    ______ ____

>  <TORSDO>
F 6

>  <vina_score>
-6.6

$$$$
ZINC03376800
 OpenBabel01081722233D

 25 26  0  0  0  0  0  0  0  0999 V2000
  -32.5520   12.5750  -20.3620 C   0  0  0  0  0  0  0  0  0  0  0  0
  -32.5550   11.9070  -21.3760 O   0  0  0  0  0  0  0  0  0  0  0  0
  -29.6310   11.9420  -19.5060 C   0  0  0  0  0  0  0  0  0  0  0  0
  -30.2420   13.2930  -19.7790 C   0  0  0  0  0  0  0  0  0  0  0  0
  -29.5920   14.5430  -19.6900 C   0  0  0  0  0  0  0  0  0  0  0  0
  -30.5220   15.5120  -20.0230 C   0  0  0  0  0  0  0  0  0  0  0  0
  -30.2700   16.9960  -20.0630 C   0  0  0  0  0  0  0  0  0  0  0  0
  -31.6870   14.9100  -20.3050 N   0  0  0  0  0  0  0  0  0  0  0  0
  -32.5150   15.3680  -20.5770 H   0  0  0  0  0  0  0  0  0  0  0  0
  -31.5420   13.5450  -20.1570 C   0  0  0  0  0  0  0  0  0  0  0  0
  -28.1870   14.7730  -19.3130 C   0  0  0  0  0  0  0  0  0  0  0  0
  -27.9220   15.3500  -18.2770 O   0  0  0  0  0  0  0  0  0  0  0  0
  -27.1950   14.3460  -20.1180 O   0  0  0  0  0  0  0  0  0  0  0  0
  -27.4330   14.4150  -21.5490 C   0  0  0  0  0  0  0  0  0  0  0  0
  -33.6220   12.3700  -19.3210 C   0  0  0  0  0  0  0  0  0  0  0  0
  -32.9970   11.2740  -18.0170 S   0  0  0  0  0  0  0  0  0  0  0  0
  -33.6840   11.9380  -16.5370 C   0  0  0  0  0  0  0  0  0  0  0  0
  -34.4090   11.2470  -15.6070 N   0  0  0  0  0  0  0  0  0  0  0  0
  -34.6390   10.2910  -15.6470 H   0  0  0  0  0  0  0  0  0  0  0  0
  -34.7570   12.1160  -14.6120 C   0  0  0  0  0  0  0  0  0  0  0  0
  -34.2680   13.2940  -14.9130 N   0  0  0  0  0  0  0  0  0  0  0  0
  -33.5830   13.1810  -16.1290 N   0  0  0  0  0  0  0  0  0  0  0  0
  -35.4980   11.8050  -13.4800 N   0  0  0  0  0  0  0  0  0  0  0  0
  -36.3940   12.1950  -13.3550 H   0  0  0  0  0  0  0  0  0  0  0  0
  -35.1290   11.1950  -12.8010 H   0  0  0  0  0  0  0  0  0  0  0  0
  1 10  1  0  0  0  0
  1 15  1  0  0  0  0
  2  1  2  0  0  0  0
  4  5  1  0  0  0  0
  4  3  1  0  0  0  0
  5 11  1  0  0  0  0
  6  5  2  0  0  0  0
  7  6  1  0  0  0  0
  8 10  1  0  0  0  0
  8  6  1  0  0  0  0
  9  8  1  0  0  0  0
 10  4  2  0  0  0  0
 11 12  2  0  0  0  0
 13 11  1  0  0  0  0
 14 13  1  0  0  0  0
 15 16  1  0  0  0  0
 16 17  1  0  0  0  0
 17 22  2  0  0  0  0
 17 18  1  0  0  0  0
 18 20  1  0  0  0  0
 19 18  1  0  0  0  0
 20 23  1  0  0  0  0
 21 20  2  0  0  0  0
 22 21  1  0  0  0  0
 23 24  1  0  0  0  0
 23 25  1  0  0  0  0
M  END
>  <MODEL>
1

>  <REMARK>
 VINA RESULT:      -6.6      0.000      0.000
  Name = ZINC03376800
                            x       y       z     vdW  Elec       q    Type
                         _______ _______ _______ _____ _____    ______ ____

>  <TORSDO>
F 7

>  <vina_score>
-6.6

$$$$
ZINC03627636
 OpenBabel01081722243D

 29 30  0  0  0  0  0  0  0  0999 V2000
  -30.3850   12.6970  -20.6800 C   0  0  0  0  0  0  0  0  0  0  0  0
  -31.3310   12.0530  -21.4260 C   0  0  0  0  0  0  0  0  0  0  0  0
  -30.7260   11.4860  -22.4840 N   0  0  0  0  0  0  0  0  0  0  0  0
  -29.4650   11.7390  -22.4470 N   0  0  0  0  0  0  0  0  0  0  0  0
  -29.2030   12.5160  -21.3090 N   0  0  0  0  0  0  0  0  0  0  0  0
  -27.9560   13.0040  -20.9020 C   0  0  0  0  0  0  0  0  0  0  0  0
  -27.2710   14.1750  -21.4560 C   0  0  0  0  0  0  0  0  0  0  0  0
  -26.1390   14.3260  -20.8250 N   0  0  0  0  0  0  0  0  0  0  0  0
  -26.0370   13.2870  -19.8660 O   0  0  0  0  0  0  0  0  0  0  0  0
  -27.2050   12.4920  -19.9690 N   0  0  0  0  0  0  0  0  0  0  0  0
  -27.7480   14.9910  -22.4760 N   0  0  0  0  0  0  0  0  0  0  0  0
  -28.1800   15.8490  -22.2580 H   0  0  0  0  0  0  0  0  0  0  0  0
  -27.6550   14.7110  -23.4150 H   0  0  0  0  0  0  0  0  0  0  0  0
  -32.7720   11.9860  -21.1170 C   0  0  0  0  0  0  0  0  0  0  0  0
  -33.2920   10.8690  -20.5690 N   0  0  0  0  0  0  0  0  0  0  0  0
  -32.7100   10.0990  -20.3750 H   0  0  0  0  0  0  0  0  0  0  0  0
  -33.4910   12.9370  -21.3570 O   0  0  0  0  0  0  0  0  0  0  0  0
  -34.6270   10.8060  -20.2840 N   0  0  0  0  0  0  0  0  0  0  0  0
  -34.7700   10.9840  -19.2890 H   0  0  0  0  0  0  0  0  0  0  0  0
  -35.1250   11.5080  -20.8300 H   0  0  0  0  0  0  0  0  0  0  0  0
  -30.6140   13.4630  -19.4040 C   0  0  0  0  0  0  0  0  0  0  0  0
  -30.1380   12.6690  -18.2630 N   0  0  0  0  0  0  0  0  0  0  0  0
  -29.5580   11.9140  -18.6280 H   0  0  0  0  0  0  0  0  0  0  0  0
  -29.3070   13.4830  -17.3650 C   0  0  0  0  0  0  0  0  0  0  0  0
  -27.7780   15.4090  -17.8050 C   0  0  0  0  0  0  0  0  0  0  0  0
  -29.2200   14.9120  -17.9080 C   0  0  0  0  0  0  0  0  0  0  0  0
  -31.2620   12.0650  -17.5360 C   0  0  0  0  0  0  0  0  0  0  0  0
  -32.4650   13.0100  -17.5800 C   0  0  0  0  0  0  0  0  0  0  0  0
  -33.3790   12.7290  -16.3850 C   0  0  0  0  0  0  0  0  0  0  0  0
  1 21  1  0  0  0  0
  2 14  1  0  0  0  0
  2  1  2  0  0  0  0
  3  4  2  0  0  0  0
  3  2  1  0  0  0  0
  4  5  1  0  0  0  0
  5  6  1  0  0  0  0
  5  1  1  0  0  0  0
  6 10  2  0  0  0  0
  7  6  1  0  0  0  0
  7  8  2  0  0  0  0
  8  9  1  0  0  0  0
 10  9  1  0  0  0  0
 11 12  1  0  0  0  0
 11  7  1  0  0  0  0
 13 11  1  0  0  0  0
 14 15  1  0  0  0  0
 15 16  1  0  0  0  0
 15 18  1  0  0  0  0
 17 14  2  0  0  0  0
 18 19  1  0  0  0  0
 20 18  1  0  0  0  0
 21 22  1  0  0  0  0
 22 27  1  0  0  0  0
 22 24  1  0  0  0  0
 23 22  1  0  0  0  0
 26 25  1  0  0  0  0
 26 24  1  0  0  0  0
 28 27  1  0  0  0  0
 28 29  1  0  0  0  0
M  END
>  <MODEL>
1

>  <REMARK>
 VINA RESULT:      -6.6      0.000      0.000
  Name = ZINC03627636
                            x       y       z     vdW  Elec       q    Type
                         _______ _______ _______ _____ _____    ______ ____

>  <TORSDO>
F 10

>  <vina_score>
-6.6

$$$$
ZINC31687708
 OpenBabel01081722013D

 24 24  0  0  0  0  0  0  0  0999 V2000
  -29.3590   14.1860  -20.6950 N   0  0  0  0  0  0  0  0  0  0  0  0
  -29.4010   15.1670  -20.6280 H   0  0  0  0  0  0  0  0  0  0  0  0
  -29.7050   14.0110  -17.9280 C   0  0  0  0  0  0  0  0  0  0  0  0
  -30.5850   13.3180  -18.8710 N   0  0  0  0  0  0  0  0  0  0  0  0
  -30.3700   13.4380  -20.2310 C   0  0  0  0  0  0  0  0  0  0  0  0
  -31.2160   12.7720  -21.1090 C   0  0  0  0  0  0  0  0  0  0  0  0
  -32.2600   12.0020  -20.5870 C   0  0  0  0  0  0  0  0  0  0  0  0
  -32.4260   11.9180  -19.2520 N   0  0  0  0  0  0  0  0  0  0  0  0
  -33.5220   11.1100  -18.7110 C   0  0  0  0  0  0  0  0  0  0  0  0
  -33.0170   11.4080  -21.3360 O   0  0  0  0  0  0  0  0  0  0  0  0
  -31.6050   12.5700  -18.4110 C   0  0  0  0  0  0  0  0  0  0  0  0
  -31.7840   12.4770  -17.2120 O   0  0  0  0  0  0  0  0  0  0  0  0
  -28.3010   13.6030  -21.2480 C   0  0  0  0  0  0  0  0  0  0  0  0
  -28.1520   13.6010  -22.6130 N   0  0  0  0  0  0  0  0  0  0  0  0
  -27.3680   13.1680  -23.0220 H   0  0  0  0  0  0  0  0  0  0  0  0
  -28.8290   14.0330  -23.1830 H   0  0  0  0  0  0  0  0  0  0  0  0
  -27.3790   13.0150  -20.4730 N   0  0  0  0  0  0  0  0  0  0  0  0
  -26.2140   13.6090  -20.2640 C   0  0  0  0  0  0  0  0  0  0  0  0
  -25.2350   12.9630  -19.5680 N   0  0  0  0  0  0  0  0  0  0  0  0
  -24.8800   12.1060  -19.8980 H   0  0  0  0  0  0  0  0  0  0  0  0
  -24.8840   13.3520  -18.7340 H   0  0  0  0  0  0  0  0  0  0  0  0
  -25.9940   14.8670  -20.7430 N   0  0  0  0  0  0  0  0  0  0  0  0
  -25.9190   15.0180  -21.7120 H   0  0  0  0  0  0  0  0  0  0  0  0
  -25.9080   15.6240  -20.1180 H   0  0  0  0  0  0  0  0  0  0  0  0
  1  2  1  0  0  0  0
  1  5  1  0  0  0  0
  4 11  1  0  0  0  0
  4  3  1  0  0  0  0
  5  4  1  0  0  0  0
  6  7  1  0  0  0  0
  6  5  2  0  0  0  0
  7  8  1  0  0  0  0
  8  9  1  0  0  0  0
  8 11  1  0  0  0  0
 10  7  2  0  0  0  0
 11 12  2  0  0  0  0
 13  1  1  0  0  0  0
 13 17  2  0  0  0  0
 14 13  1  0  0  0  0
 15 14  1  0  0  0  0
 16 14  1  0  0  0  0
 17 18  2  0  0  0  0
 18 19  1  0  0  0  0
 19 21  1  0  0  0  0
 20 19  1  0  0  0  0
 22 18  1  0  0  0  0
 22 24  1  0  0  0  0
 23 22  1  0  0  0  0
M  END
>  <MODEL>
1

>  <REMARK>
 VINA RESULT:      -6.5      0.000      0.000
  Name = ZINC31687708
                            x       y       z     vdW  Elec       q    Type
                         _______ _______ _______ _____ _____    ______ ____

>  <TORSDO>
F 5

>  <vina_score>
-6.5

$$$$
ZINC02275272
 OpenBabel01081722223D

 29 29  0  0  0  0  0  0  0  0999 V2000
  -32.0730   11.8240  -20.9900 C   0  0  0  0  0  0  0  0  0  0  0  0
  -32.2360   12.6730  -19.8890 C   0  0  0  0  0  0  0  0  0  0  0  0
  -33.3780   12.5200  -19.1040 C   0  0  0  0  0  0  0  0  0  0  0  0
  -34.2620   11.5820  -19.4300 N   0  0  0  0  0  0  0  0  0  0  0  0
  -34.0730   10.8030  -20.4760 C   0  0  0  0  0  0  0  0  0  0  0  0
  -33.0090   10.9120  -21.2440 N   0  0  0  0  0  0  0  0  0  0  0  0
  -31.2780   13.6470  -19.5830 N   0  0  0  0  0  0  0  0  0  0  0  0
  -30.4980   13.4140  -19.0290 H   0  0  0  0  0  0  0  0  0  0  0  0
  -31.4240   14.9050  -20.0440 C   0  0  0  0  0  0  0  0  0  0  0  0
  -32.4120   15.2070  -20.6800 O   0  0  0  0  0  0  0  0  0  0  0  0
  -30.3700   15.9260  -19.7710 C   0  0  0  0  0  0  0  0  0  0  0  0
  -29.2210   15.5640  -19.1660 N   0  0  0  0  0  0  0  0  0  0  0  0
  -29.0770   14.6250  -18.9040 H   0  0  0  0  0  0  0  0  0  0  0  0
  -30.5470   17.0830  -20.0940 O   0  0  0  0  0  0  0  0  0  0  0  0
  -28.2560   16.4970  -18.9160 N   0  0  0  0  0  0  0  0  0  0  0  0
  -27.8530   16.8150  -19.7970 H   0  0  0  0  0  0  0  0  0  0  0  0
  -28.6700   17.2920  -18.4260 H   0  0  0  0  0  0  0  0  0  0  0  0
  -33.5850   13.3160  -18.0260 O   0  0  0  0  0  0  0  0  0  0  0  0
  -33.3550   12.7390  -16.7400 C   0  0  0  0  0  0  0  0  0  0  0  0
  -30.6520   11.9630  -22.0240 S   0  0  0  0  0  0  0  0  0  0  0  0
  -28.3270   12.8140  -20.9910 C   0  0  0  0  0  0  0  0  0  0  0  0
  -29.3890   12.0450  -20.7980 C   0  0  0  0  0  0  0  0  0  0  0  0
  -27.7140   12.8550  -18.5890 C   0  0  0  0  0  0  0  0  0  0  0  0
  -27.1770   12.7680  -20.0190 C   0  0  0  0  0  0  0  0  0  0  0  0
  -28.2740   13.6690  -22.0970 N   0  0  0  0  0  0  0  0  0  0  0  0
  -28.5220   13.3360  -22.9900 H   0  0  0  0  0  0  0  0  0  0  0  0
  -27.8800   14.9680  -21.9390 N   0  0  0  0  0  0  0  0  0  0  0  0
  -28.6980   15.5760  -21.9510 H   0  0  0  0  0  0  0  0  0  0  0  0
  -27.3940   15.0690  -21.0480 H   0  0  0  0  0  0  0  0  0  0  0  0
  1  2  1  0  0  0  0
  2  7  1  0  0  0  0
  2  3  2  0  0  0  0
  3 18  1  0  0  0  0
  4  3  1  0  0  0  0
  5  4  2  0  0  0  0
  6  1  2  0  0  0  0
  6  5  1  0  0  0  0
  7  8  1  0  0  0  0
  9 11  1  0  0  0  0
  9  7  1  0  0  0  0
 10  9  2  0  0  0  0
 11 12  1  0  0  0  0
 12 15  1  0  0  0  0
 12 13  1  0  0  0  0
 14 11  2  0  0  0  0
 15 17  1  0  0  0  0
 16 15  1  0  0  0  0
 18 19  1  0  0  0  0
 20  1  1  0  0  0  0
 20 22  1  0  0  0  0
 21 22  2  0  0  0  0
 21 24  1  0  0  0  0
 24 23  1  0  0  0  0
 25 27  1  0  0  0  0
 25 21  1  0  0  0  0
 26 25  1  0  0  0  0
 27 29  1  0  0  0  0
 28 27  1  0  0  0  0
M  END
>  <MODEL>
1

>  <REMARK>
 VINA RESULT:      -6.5      0.000      0.000
  Name = ZINC02275272
                            x       y       z     vdW  Elec       q    Type
                         _______ _______ _______ _____ _____    ______ ____

>  <TORSDO>
F 9

>  <vina_score>
-6.5

$$$$
ZINC31460373
 OpenBabel01081722253D

 30 30  0  0  1  0  0  0  0  0999 V2000
  -29.2870   12.7960  -19.1520 C   0  0  2  0  0  0  0  0  0  0  0  0
  -29.5970   14.2900  -19.2880 C   0  0  2  0  0  0  0  0  0  0  0  0
  -29.0640   14.7950  -20.6320 C   0  0  2  0  0  0  0  0  0  0  0  0
  -27.5620   14.5040  -20.7130 C   0  0  2  0  0  0  0  0  0  0  0  0
  -27.3290   13.0020  -20.5230 C   0  0  2  0  0  0  0  0  0  0  0  0
  -27.8780   12.5920  -19.2680 O   0  0  0  0  0  0  0  0  0  0  0  0
  -28.9530   15.0270  -18.1930 N   0  0  0  0  0  0  0  0  0  0  0  0
  -27.9920   15.2380  -18.4650 H   0  0  0  0  0  0  0  0  0  0  0  0
  -29.4720   15.8870  -18.0190 H   0  0  0  0  0  0  0  0  0  0  0  0
  -28.9240   14.2250  -16.9630 C   0  0  0  0  0  0  0  0  0  0  0  0
  -29.2850   16.2020  -20.7360 O   0  0  0  0  0  0  0  0  0  0  0  0
  -28.5280   16.6180  -21.1790 H   0  0  0  0  0  0  0  0  0  0  0  0
  -26.8780   15.2270  -19.6880 O   0  0  0  0  0  0  0  0  0  0  0  0
  -26.2900   15.8840  -20.0930 H   0  0  0  0  0  0  0  0  0  0  0  0
  -29.9600   12.0740  -20.1860 O   0  0  0  0  0  0  0  0  0  0  0  0
  -31.1320   11.3860  -19.7450 C   0  0  1  0  0  0  0  0  0  0  0  0
  -31.3820   11.7000  -18.2920 C   0  0  0  0  0  0  0  0  0  0  0  0
  -31.4920   10.8040  -17.4920 O   0  0  0  0  0  0  0  0  0  0  0  0
  -32.3320   11.8400  -20.5790 C   0  0  1  0  0  0  0  0  0  0  0  0
  -32.7290   14.2460  -21.1200 C   0  0  0  0  0  0  0  0  0  0  0  0
  -32.8540   13.1730  -20.0380 C   0  0  1  0  0  0  0  0  0  0  0  0
  -34.2270   13.0300  -19.6660 O   0  0  0  0  0  0  0  0  0  0  0  0
  -34.3350   13.2660  -18.7310 H   0  0  0  0  0  0  0  0  0  0  0  0
  -31.9320   12.0030  -21.9410 O   0  0  0  0  0  0  0  0  0  0  0  0
  -32.4380   11.3930  -22.5020 H   0  0  0  0  0  0  0  0  0  0  0  0
  -33.4220   10.8030  -20.4960 C   0  0  0  0  0  0  0  0  0  0  0  0
  -34.3550   10.8440  -21.2630 O   0  0  0  0  0  0  0  0  0  0  0  0
  -25.8280   12.7120  -20.5430 C   0  0  0  0  0  0  0  0  0  0  0  0
  -25.2670   13.0200  -19.2650 O   0  0  0  0  0  0  0  0  0  0  0  0
  -25.9760   13.0790  -18.6050 H   0  0  0  0  0  0  0  0  0  0  0  0
  1 15  1  6  0  0  0
  2  1  1  0  0  0  0
  2  7  1  1  0  0  0
  3 11  1  1  0  0  0
  3  2  1  0  0  0  0
  4  3  1  0  0  0  0
  4  5  1  0  0  0  0
  4 13  1  1  0  0  0
  5 28  1  1  0  0  0
  5  6  1  0  0  0  0
  6  1  1  0  0  0  0
  7  9  1  0  0  0  0
  7 10  1  0  0  0  0
  8  7  1  0  0  0  0
 12 11  1  0  0  0  0
 14 13  1  0  0  0  0
 16 15  1  6  0  0  0
 16 17  1  0  0  0  0
 17 18  2  0  0  0  0
 19 24  1  6  0  0  0
 19 26  1  0  0  0  0
 19 21  1  0  0  0  0
 19 16  1  0  0  0  0
 21 20  1  6  0  0  0
 21 22  1  0  0  0  0
 22 23  1  0  0  0  0
 25 24  1  0  0  0  0
 27 26  2  0  0  0  0
 28 29  1  0  0  0  0
 29 30  1  0  0  0  0
M  END
>  <MODEL>
1

>  <REMARK>
 VINA RESULT:      -6.5      0.000      0.000
  Name = ZINC31460373
                            x       y       z     vdW  Elec       q    Type
                         _______ _______ _______ _____ _____    ______ ____

>  <TORSDO>
F 13

>  <vina_score>
-6.5

$$$$
ZINC05976180
 OpenBabel01081722253D

 27 28  0  0  1  0  0  0  0  0999 V2000
  -29.4280   11.7270  -21.5820 C   0  0  0  0  0  0  0  0  0  0  0  0
  -30.8560   12.2080  -21.5680 C   0  0  0  0  0  0  0  0  0  0  0  0
  -31.5320   12.3790  -20.3370 C   0  0  0  0  0  0  0  0  0  0  0  0
  -32.8430   12.6900  -20.1680 C   0  0  0  0  0  0  0  0  0  0  0  0
  -33.7350   12.8910  -21.1630 O   0  0  0  0  0  0  0  0  0  0  0  0
  -33.1390   12.7730  -18.7210 C   0  0  0  0  0  0  0  0  0  0  0  0
  -32.0260   12.5180  -18.0090 N   0  0  0  0  0  0  0  0  0  0  0  0
  -34.2250   13.0340  -18.2450 O   0  0  0  0  0  0  0  0  0  0  0  0
  -30.9350   12.2520  -18.9550 C   0  0  2  0  0  0  0  0  0  0  0  0
  -31.4250   12.4490  -22.6120 O   0  0  0  0  0  0  0  0  0  0  0  0
  -29.8330   13.2640  -18.7720 C   0  0  0  0  0  0  0  0  0  0  0  0
  -28.6340   12.8840  -18.1980 C   0  0  0  0  0  0  0  0  0  0  0  0
  -27.6220   13.8090  -18.0300 C   0  0  0  0  0  0  0  0  0  0  0  0
  -27.8050   15.1180  -18.4360 C   0  0  0  0  0  0  0  0  0  0  0  0
  -29.0050   15.4990  -19.0170 C   0  0  0  0  0  0  0  0  0  0  0  0
  -30.0220   14.5700  -19.1800 C   0  0  0  0  0  0  0  0  0  0  0  0
  -29.1860   16.7840  -19.4230 O   0  0  0  0  0  0  0  0  0  0  0  0
  -28.7690   17.4840  -18.9600 H   0  0  0  0  0  0  0  0  0  0  0  0
  -31.9210   12.5060  -16.5480 C   0  0  0  0  0  0  0  0  0  0  0  0
  -32.5840   11.2410  -15.9990 C   0  0  0  0  0  0  0  0  0  0  0  0
  -34.0450   11.4400  -15.9610 N   0  0  0  0  0  0  0  0  0  0  0  0
  -34.2450   12.4380  -16.0120 H   0  0  0  0  0  0  0  0  0  0  0  0
  -34.4700   10.9560  -16.7530 H   0  0  0  0  0  0  0  0  0  0  0  0
  -34.6020   10.9020  -14.7050 C   0  0  0  0  0  0  0  0  0  0  0  0
  -35.2450   12.0420  -13.9130 C   0  0  0  0  0  0  0  0  0  0  0  0
  -35.2220   13.2370  -14.6960 O   0  0  0  0  0  0  0  0  0  0  0  0
  -34.7730   13.9400  -14.2000 H   0  0  0  0  0  0  0  0  0  0  0  0
  1  2  1  0  0  0  0
  2  3  1  0  0  0  0
  3  4  2  0  0  0  0
  3  9  1  0  0  0  0
  4  6  1  0  0  0  0
  5  4  1  0  0  0  0
  6  8  2  0  0  0  0
  6  7  1  0  0  0  0
  7 19  1  0  0  0  0
  9 11  1  6  0  0  0
  9  7  1  0  0  0  0
 10  2  2  0  0  0  0
 11 12  2  0  0  0  0
 12 13  1  0  0  0  0
 14 13  2  0  0  0  0
 15 14  1  0  0  0  0
 16 15  2  0  0  0  0
 16 11  1  0  0  0  0
 17 15  1  0  0  0  0
 17 18  1  0  0  0  0
 19 20  1  0  0  0  0
 20 21  1  0  0  0  0
 21 24  1  0  0  0  0
 22 21  1  0  0  0  0
 23 21  1  0  0  0  0
 24 25  1  0  0  0  0
 26 27  1  0  0  0  0
 26 25  1  0  0  0  0
M  END
>  <MODEL>
1

>  <REMARK>
 VINA RESULT:      -6.5      0.000      0.000
  Name = ZINC05976180
                            x       y       z     vdW  Elec       q    Type
                         _______ _______ _______ _____ _____    ______ ____

>  <TORSDO>
F 8

>  <vina_score>
-6.5

$$$$
ZINC12483756
 OpenBabel01081722263D

 29 31  0  0  1  0  0  0  0  0999 V2000
  -28.0570   12.6720  -20.0640 C   0  0  2  0  0  0  0  0  0  0  0  0
  -27.8860   12.7300  -18.5420 C   0  0  2  0  0  0  0  0  0  0  0  0
  -29.0830   13.4620  -17.9260 C   0  0  1  0  0  0  0  0  0  0  0  0
  -29.2590   14.8080  -18.6480 C   0  0  1  0  0  0  0  0  0  0  0  0
  -27.8610   15.4550  -18.7820 C   0  0  0  0  0  0  0  0  0  0  0  0
  -27.3500   14.9780  -20.0400 O   0  0  0  0  0  0  0  0  0  0  0  0
  -29.6040   14.5130  -20.0240 O   0  0  0  0  0  0  0  0  0  0  0  0
  -28.3420   14.0890  -20.5850 C   0  0  2  0  0  0  0  0  0  0  0  0
  -29.1890   11.7850  -20.3920 N   0  0  0  0  0  0  0  0  0  0  0  0
  -30.0390   12.1640  -19.9740 H   0  0  0  0  0  0  0  0  0  0  0  0
  -29.0040   10.8530  -20.0250 H   0  0  0  0  0  0  0  0  0  0  0  0
  -29.3680   11.7050  -21.8540 C   0  0  0  0  0  0  0  0  0  0  0  0
  -30.8350   11.3960  -22.1640 C   0  0  0  0  0  0  0  0  0  0  0  0
  -32.5470   12.7840  -21.2220 C   0  0  0  0  0  0  0  0  0  0  0  0
  -31.5700   12.6180  -22.2520 O   0  0  0  0  0  0  0  0  0  0  0  0
  -30.2980   12.6430  -18.1000 N   0  0  0  0  0  0  0  0  0  0  0  0
  -30.3250   12.2890  -19.0570 H   0  0  0  0  0  0  0  0  0  0  0  0
  -30.2770   11.8640  -17.4410 H   0  0  0  0  0  0  0  0  0  0  0  0
  -31.5040   13.4550  -17.8550 C   0  0  0  0  0  0  0  0  0  0  0  0
  -32.4610   12.6730  -16.9940 C   0  0  0  0  0  0  0  0  0  0  0  0
  -32.6630   11.3440  -17.0500 C   0  0  0  0  0  0  0  0  0  0  0  0
  -33.6360   11.0360  -16.0710 C   0  0  0  0  0  0  0  0  0  0  0  0
  -33.9750   12.1960  -15.4800 C   0  0  0  0  0  0  0  0  0  0  0  0
  -33.2600   13.1840  -16.0420 O   0  0  0  0  0  0  0  0  0  0  0  0
  -34.9860   12.3600  -14.3740 C   0  0  0  0  0  0  0  0  0  0  0  0
  -34.6630   13.5170  -13.6000 O   0  0  0  0  0  0  0  0  0  0  0  0
  -34.4840   13.2530  -12.6840 H   0  0  0  0  0  0  0  0  0  0  0  0
  -26.6830   13.4320  -18.2230 O   0  0  0  0  0  0  0  0  0  0  0  0
  -26.5120   14.1050  -18.9010 H   0  0  0  0  0  0  0  0  0  0  0  0
  1  9  1  1  0  0  0
  1  2  1  0  0  0  0
  2 28  1  6  0  0  0
  2  3  1  0  0  0  0
  3 16  1  6  0  0  0
  4  7  1  6  0  0  0
  4  3  1  0  0  0  0
  5  4  1  0  0  0  0
  6  5  1  0  0  0  0
  8  1  1  0  0  0  0
  8  6  1  1  0  0  0
  8  7  1  0  0  0  0
  9 11  1  0  0  0  0
  9 10  1  0  0  0  0
 12  9  1  0  0  0  0
 13 12  1  0  0  0  0
 15 13  1  0  0  0  0
 15 14  1  0  0  0  0
 16 19  1  0  0  0  0
 16 18  1  0  0  0  0
 17 16  1  0  0  0  0
 19 20  1  0  0  0  0
 20 24  1  0  0  0  0
 21 20  2  0  0  0  0
 21 22  1  0  0  0  0
 22 23  2  0  0  0  0
 23 25  1  0  0  0  0
 24 23  1  0  0  0  0
 25 26  1  0  0  0  0
 26 27  1  0  0  0  0
 29 28  1  0  0  0  0
M  END
>  <MODEL>
1

>  <REMARK>
 VINA RESULT:      -6.5      0.000      0.000
  Name = ZINC12483756
                            x       y       z     vdW  Elec       q    Type
                         _______ _______ _______ _____ _____    ______ ____

>  <TORSDO>
F 10

>  <vina_score>
-6.5

$$$$
ZINC00389806
 OpenBabel01081722263D

 19 19  0  0  0  0  0  0  0  0999 V2000
  -31.8890   13.8030  -19.1590 C   0  0  0  0  0  0  0  0  0  0  0  0
  -31.2330   14.6770  -19.9950 C   0  0  0  0  0  0  0  0  0  0  0  0
  -29.9780   15.1650  -19.6490 C   0  0  0  0  0  0  0  0  0  0  0  0
  -29.3780   14.7680  -18.4590 C   0  0  0  0  0  0  0  0  0  0  0  0
  -30.0250   13.8890  -17.6200 C   0  0  0  0  0  0  0  0  0  0  0  0
  -31.2870   13.3960  -17.9640 C   0  0  0  0  0  0  0  0  0  0  0  0
  -31.9830   12.4540  -17.0680 C   0  0  0  0  0  0  0  0  0  0  0  0
  -33.0470   12.8680  -16.3520 O   0  0  0  0  0  0  0  0  0  0  0  0
  -31.5970   11.3060  -16.9760 O   0  0  0  0  0  0  0  0  0  0  0  0
  -29.3370   16.0310  -20.4740 O   0  0  0  0  0  0  0  0  0  0  0  0
  -29.3190   16.9450  -20.2690 H   0  0  0  0  0  0  0  0  0  0  0  0
  -28.0180   15.2990  -18.0880 C   0  0  0  0  0  0  0  0  0  0  0  0
  -27.0500   14.9270  -19.1370 N   0  0  0  0  0  0  0  0  0  0  0  0
  -27.4580   15.1260  -20.0510 H   0  0  0  0  0  0  0  0  0  0  0  0
  -26.1930   15.4650  -19.0110 H   0  0  0  0  0  0  0  0  0  0  0  0
  -26.7360   13.4870  -19.0560 C   0  0  0  0  0  0  0  0  0  0  0  0
  -26.3800   12.9830  -20.4310 C   0  0  0  0  0  0  0  0  0  0  0  0
  -25.2130   12.3500  -20.6320 O   0  0  0  0  0  0  0  0  0  0  0  0
  -27.1450   13.1460  -21.3520 O   0  0  0  0  0  0  0  0  0  0  0  0
  1  6  2  0  0  0  0
  2  3  2  0  0  0  0
  2  1  1  0  0  0  0
  3  4  1  0  0  0  0
  4 12  1  0  0  0  0
  4  5  2  0  0  0  0
  6  5  1  0  0  0  0
  6  7  1  0  0  0  0
  7  9  2  0  0  0  0
  7  8  1  0  0  0  0
 10 11  1  0  0  0  0
 10  3  1  0  0  0  0
 13 16  1  0  0  0  0
 13 15  1  0  0  0  0
 13 12  1  0  0  0  0
 14 13  1  0  0  0  0
 17 16  1  0  0  0  0
 18 17  1  0  0  0  0
 19 17  2  0  0  0  0
M  END
>  <MODEL>
1

>  <REMARK>
 VINA RESULT:      -6.5      0.000      0.000
  Name = ZINC00389806
                            x       y       z     vdW  Elec       q    Type
                         _______ _______ _______ _____ _____    ______ ____

>  <TORSDO>
F 6

>  <vina_score>
-6.5

$$$$
ZINC17105047
 OpenBabel01081722293D

 20 21  0  0  0  0  0  0  0  0999 V2000
  -29.2780   13.4430  -17.7050 C   0  0  0  0  0  0  0  0  0  0  0  0
  -30.1610   12.5170  -17.4490 N   0  0  0  0  0  0  0  0  0  0  0  0
  -31.5010   12.7070  -17.8090 N   0  0  0  0  0  0  0  0  0  0  0  0
  -32.0620   12.4490  -19.0700 N   0  0  0  0  0  0  0  0  0  0  0  0
  -33.4020   12.7860  -18.9440 C   0  0  0  0  0  0  0  0  0  0  0  0
  -33.5590   13.2120  -17.6590 N   0  0  0  0  0  0  0  0  0  0  0  0
  -34.3240   12.7070  -19.8660 N   0  0  0  0  0  0  0  0  0  0  0  0
  -35.2490   12.9710  -19.6600 H   0  0  0  0  0  0  0  0  0  0  0  0
  -34.0940   12.3830  -20.7660 H   0  0  0  0  0  0  0  0  0  0  0  0
  -32.4350   13.1490  -17.0420 N   0  0  0  0  0  0  0  0  0  0  0  0
  -29.7020   14.7260  -18.1340 C   0  0  0  0  0  0  0  0  0  0  0  0
  -29.4900   15.1050  -19.3640 N   0  0  0  0  0  0  0  0  0  0  0  0
  -28.7100   14.3130  -20.2160 N   0  0  0  0  0  0  0  0  0  0  0  0
  -29.1870   13.3140  -21.0820 N   0  0  0  0  0  0  0  0  0  0  0  0
  -28.0560   12.8170  -21.7130 C   0  0  0  0  0  0  0  0  0  0  0  0
  -27.0050   13.5150  -21.1990 N   0  0  0  0  0  0  0  0  0  0  0  0
  -28.0080   11.8690  -22.6110 N   0  0  0  0  0  0  0  0  0  0  0  0
  -27.1430   11.5920  -22.9890 H   0  0  0  0  0  0  0  0  0  0  0  0
  -28.8380   11.4310  -22.9090 H   0  0  0  0  0  0  0  0  0  0  0  0
  -27.4310   14.3680  -20.3390 N   0  0  0  0  0  0  0  0  0  0  0  0
  1  2  2  0  0  0  0
  3  2  1  0  0  0  0
  3 10  1  0  0  0  0
  4  5  2  0  0  0  0
  4  3  1  0  0  0  0
  5  6  1  0  0  0  0
  6 10  2  0  0  0  0
  7  8  1  0  0  0  0
  7  5  1  0  0  0  0
  9  7  1  0  0  0  0
 11  1  1  0  0  0  0
 12 11  2  0  0  0  0
 13 12  1  0  0  0  0
 14 13  1  0  0  0  0
 15 16  1  0  0  0  0
 15 14  2  0  0  0  0
 16 20  2  0  0  0  0
 17 15  1  0  0  0  0
 18 17  1  0  0  0  0
 19 17  1  0  0  0  0
 20 13  1  0  0  0  0
M  END
>  <MODEL>
1

>  <REMARK>
 VINA RESULT:      -6.5      0.000      0.000
  Name = ZINC17105047
                            x       y       z     vdW  Elec       q    Type
                         _______ _______ _______ _____ _____    ______ ____

>  <TORSDO>
F 3

>  <vina_score>
-6.5

$$$$
ZINC04824070
 OpenBabel01081722093D

 25 25  0  0  1  0  0  0  0  0999 V2000
  -29.4320   12.0930  -21.6490 C   0  0  0  0  0  0  0  0  0  0  0  0
  -29.0960   13.4810  -21.3230 N   0  0  0  0  0  0  0  0  0  0  0  0
  -29.2680   14.1960  -21.9790 H   0  0  0  0  0  0  0  0  0  0  0  0
  -29.0060   14.8890  -19.3570 C   0  0  0  0  0  0  0  0  0  0  0  0
  -28.4320   15.1870  -18.1170 C   0  0  0  0  0  0  0  0  0  0  0  0
  -27.4110   14.4030  -17.6270 C   0  0  0  0  0  0  0  0  0  0  0  0
  -26.9490   13.3190  -18.3560 C   0  0  0  0  0  0  0  0  0  0  0  0
  -27.5070   13.0070  -19.5770 C   0  0  0  0  0  0  0  0  0  0  0  0
  -28.5340   13.7900  -20.0920 C   0  0  0  0  0  0  0  0  0  0  0  0
  -30.0980   15.7220  -19.8870 C   0  0  0  0  0  0  0  0  0  0  0  0
  -29.9470   16.9220  -20.0000 O   0  0  0  0  0  0  0  0  0  0  0  0
  -32.4170   16.0290  -20.3730 C   0  0  0  0  0  0  0  0  0  0  0  0
  -31.2660   15.1530  -20.2500 O   0  0  0  0  0  0  0  0  0  0  0  0
  -30.9510   11.9100  -21.5990 C   0  0  2  0  0  0  0  0  0  0  0  0
  -31.5870   13.0510  -22.1800 O   0  0  0  0  0  0  0  0  0  0  0  0
  -30.9210   13.7300  -22.3720 H   0  0  0  0  0  0  0  0  0  0  0  0
  -31.3990   11.7620  -20.1440 C   0  0  2  0  0  0  0  0  0  0  0  0
  -30.5690   10.8040  -19.4850 O   0  0  0  0  0  0  0  0  0  0  0  0
  -31.0680   10.3820  -18.7680 H   0  0  0  0  0  0  0  0  0  0  0  0
  -32.8540   11.2880  -20.1040 C   0  0  2  0  0  0  0  0  0  0  0  0
  -33.3010   11.0140  -21.4340 O   0  0  0  0  0  0  0  0  0  0  0  0
  -34.0730   11.5650  -21.6350 H   0  0  0  0  0  0  0  0  0  0  0  0
  -33.7290   12.3790  -19.4860 C   0  0  0  0  0  0  0  0  0  0  0  0
  -34.9170   12.5340  -20.2640 O   0  0  0  0  0  0  0  0  0  0  0  0
  -34.6990   12.4710  -21.2070 H   0  0  0  0  0  0  0  0  0  0  0  0
  1 14  1  0  0  0  0
  1  2  1  0  0  0  0
  2  9  1  0  0  0  0
  3  2  1  0  0  0  0
  4  5  2  0  0  0  0
  5  6  1  0  0  0  0
  7  6  2  0  0  0  0
  8  7  1  0  0  0  0
  9  8  2  0  0  0  0
  9  4  1  0  0  0  0
 10  4  1  0  0  0  0
 11 10  2  0  0  0  0
 12 13  1  0  0  0  0
 13 10  1  0  0  0  0
 14 15  1  1  0  0  0
 14 17  1  0  0  0  0
 16 15  1  0  0  0  0
 17 20  1  0  0  0  0
 17 18  1  6  0  0  0
 18 19  1  0  0  0  0
 20 21  1  6  0  0  0
 20 23  1  0  0  0  0
 22 21  1  0  0  0  0
 24 23  1  0  0  0  0
 25 24  1  0  0  0  0
M  END
>  <MODEL>
1

>  <REMARK>
 VINA RESULT:      -6.5      0.000      0.000
  Name = ZINC04824070
                            x       y       z     vdW  Elec       q    Type
                         _______ _______ _______ _____ _____    ______ ____

>  <TORSDO>
F 12

>  <vina_score>
-6.5

$$$$
ZINC06244515
 OpenBabel01081722113D

 26 27  0  0  1  0  0  0  0  0999 V2000
  -28.6010   14.6940  -19.8330 C   0  0  0  0  0  0  0  0  0  0  0  0
  -29.1630   13.5390  -20.3730 C   0  0  0  0  0  0  0  0  0  0  0  0
  -28.3300   12.6720  -21.1040 C   0  0  1  0  0  0  0  0  0  0  0  0
  -27.0460   12.9820  -21.2450 N   0  0  0  0  0  0  0  0  0  0  0  0
  -26.5550   14.0890  -20.7080 C   0  0  0  0  0  0  0  0  0  0  0  0
  -27.3110   14.9280  -20.0140 N   0  0  0  0  0  0  0  0  0  0  0  0
  -26.9070   15.7380  -19.6270 H   0  0  0  0  0  0  0  0  0  0  0  0
  -30.6020   13.2350  -20.1870 C   0  0  0  0  0  0  0  0  0  0  0  0
  -31.4970   13.4100  -21.2420 C   0  0  0  0  0  0  0  0  0  0  0  0
  -32.8350   13.1250  -21.0630 C   0  0  0  0  0  0  0  0  0  0  0  0
  -33.2900   12.6680  -19.8380 C   0  0  0  0  0  0  0  0  0  0  0  0
  -34.9750   12.3120  -19.6200 Cl  0  0  0  0  0  0  0  0  0  0  0  0
  -32.4060   12.4930  -18.7870 C   0  0  0  0  0  0  0  0  0  0  0  0
  -31.0660   12.7750  -18.9560 C   0  0  0  0  0  0  0  0  0  0  0  0
  -32.9950   11.9170  -17.2300 S   0  0  0  0  0  0  0  0  0  0  0  0
  -31.7930   11.3780  -16.4660 O   0  0  0  0  0  0  0  0  0  0  0  0
  -33.8350   10.8030  -17.5000 O   0  0  0  0  0  0  0  0  0  0  0  0
  -33.4490   13.0590  -16.5190 O   0  0  0  0  0  0  0  0  0  0  0  0
  -28.8400   11.5150  -21.6670 N   0  0  0  0  0  0  0  0  0  0  0  0
  -29.0530   11.4870  -22.6280 H   0  0  0  0  0  0  0  0  0  0  0  0
  -28.9890   10.7190  -21.1070 H   0  0  0  0  0  0  0  0  0  0  0  0
  -25.2130   14.3790  -20.8780 N   0  0  0  0  0  0  0  0  0  0  0  0
  -24.9390   15.1210  -21.4640 H   0  0  0  0  0  0  0  0  0  0  0  0
  -24.5310   13.8440  -20.4110 H   0  0  0  0  0  0  0  0  0  0  0  0
  -30.0230   16.7200  -19.9900 C   0  0  0  0  0  0  0  0  0  0  0  0
  -29.4490   15.6600  -19.0470 C   0  0  0  0  0  0  0  0  0  0  0  0
  1 26  1  0  0  0  0
  2  8  1  0  0  0  0
  2  1  2  0  0  0  0
  3 19  1  1  0  0  0
  3  2  1  0  0  0  0
  4  3  1  0  0  0  0
  4  5  2  0  0  0  0
  5  6  1  0  0  0  0
  6  1  1  0  0  0  0
  6  7  1  0  0  0  0
  8 14  2  0  0  0  0
  9 10  2  0  0  0  0
  9  8  1  0  0  0  0
 10 11  1  0  0  0  0
 11 12  1  0  0  0  0
 11 13  2  0  0  0  0
 13 15  1  0  0  0  0
 14 13  1  0  0  0  0
 15 18  2  0  0  0  0
 15 16  1  0  0  0  0
 17 15  2  0  0  0  0
 19 21  1  0  0  0  0
 20 19  1  0  0  0  0
 22  5  1  0  0  0  0
 22 24  1  0  0  0  0
 23 22  1  0  0  0  0
 25 26  1  0  0  0  0
M  END
>  <MODEL>
1

>  <REMARK>
 VINA RESULT:      -6.5      0.000      0.000
  Name = ZINC06244515
                            x       y       z     vdW  Elec       q    Type
                         _______ _______ _______ _____ _____    ______ ____

>  <TORSDO>
F 5

>  <vina_score>
-6.5

$$$$
ZINC04096406
 OpenBabel01081722043D

 28 30  0  0  1  0  0  0  0  0999 V2000
  -31.4360   14.5150  -19.9370 C   0  0  0  0  0  0  0  0  0  0  0  0
  -31.3200   13.0700  -19.4520 C   0  0  2  0  0  0  0  0  0  0  0  0
  -29.9980   12.5930  -19.6590 O   0  0  0  0  0  0  0  0  0  0  0  0
  -28.9710   13.3540  -19.0420 C   0  0  1  0  0  0  0  0  0  0  0  0
  -27.6460   13.0040  -19.7720 C   0  0  1  0  0  0  0  0  0  0  0  0
  -27.5080   14.1010  -20.8470 C   0  0  2  0  0  0  0  0  0  0  0  0
  -28.6530   14.9420  -20.7360 O   0  0  0  0  0  0  0  0  0  0  0  0
  -29.1210   14.8520  -19.3810 C   0  0  1  0  0  0  0  0  0  0  0  0
  -32.3350   12.1820  -20.1960 C   0  0  2  0  0  0  0  0  0  0  0  0
  -33.5510   12.1290  -19.2430 C   0  0  1  0  0  0  0  0  0  0  0  0
  -33.1250   13.0010  -18.0410 C   0  0  2  0  0  0  0  0  0  0  0  0
  -31.6800   12.9830  -18.0620 O   0  0  0  0  0  0  0  0  0  0  0  0
  -30.4570   15.2990  -19.2500 O   0  0  0  0  0  0  0  0  0  0  0  0
  -26.5440   13.0550  -18.8620 O   0  0  0  0  0  0  0  0  0  0  0  0
  -26.2940   12.1530  -18.6080 H   0  0  0  0  0  0  0  0  0  0  0  0
  -31.8000   10.8730  -20.3990 O   0  0  0  0  0  0  0  0  0  0  0  0
  -30.9940   10.7660  -19.8700 H   0  0  0  0  0  0  0  0  0  0  0  0
  -34.7090   12.6780  -19.8740 O   0  0  0  0  0  0  0  0  0  0  0  0
  -35.2580   13.1260  -19.2110 H   0  0  0  0  0  0  0  0  0  0  0  0
  -27.4630   13.4630  -22.2370 C   0  0  0  0  0  0  0  0  0  0  0  0
  -28.6890   12.7720  -22.4840 O   0  0  0  0  0  0  0  0  0  0  0  0
  -28.5120   11.8240  -22.5830 H   0  0  0  0  0  0  0  0  0  0  0  0
  -28.2120   15.6780  -18.4690 C   0  0  0  0  0  0  0  0  0  0  0  0
  -28.2140   15.1140  -17.1560 O   0  0  0  0  0  0  0  0  0  0  0  0
  -27.3880   14.6260  -17.0130 H   0  0  0  0  0  0  0  0  0  0  0  0
  -33.6450   12.3980  -16.7350 C   0  0  0  0  0  0  0  0  0  0  0  0
  -33.7780   13.4280  -15.7530 O   0  0  0  0  0  0  0  0  0  0  0  0
  -34.1680   14.2160  -16.1630 H   0  0  0  0  0  0  0  0  0  0  0  0
  1 13  1  0  0  0  0
  2  1  1  6  0  0  0
  2 12  1  0  0  0  0
  3  2  1  0  0  0  0
  4  3  1  6  0  0  0
  5  4  1  0  0  0  0
  5 14  1  1  0  0  0
  6 20  1  6  0  0  0
  6  7  1  0  0  0  0
  6  5  1  0  0  0  0
  7  8  1  0  0  0  0
  8 13  1  0  0  0  0
  8  4  1  0  0  0  0
  8 23  1  1  0  0  0
  9 16  1  1  0  0  0
  9  2  1  0  0  0  0
  9 10  1  0  0  0  0
 10 18  1  6  0  0  0
 10 11  1  0  0  0  0
 11 26  1  1  0  0  0
 12 11  1  0  0  0  0
 14 15  1  0  0  0  0
 16 17  1  0  0  0  0
 18 19  1  0  0  0  0
 21 20  1  0  0  0  0
 22 21  1  0  0  0  0
 23 24  1  0  0  0  0
 24 25  1  0  0  0  0
 26 27  1  0  0  0  0
 28 27  1  0  0  0  0
M  END
>  <MODEL>
1

>  <REMARK>
 VINA RESULT:      -6.4      0.000      0.000
  Name = ZINC04096406
                            x       y       z     vdW  Elec       q    Type
                         _______ _______ _______ _____ _____    ______ ____

>  <TORSDO>
F 9

>  <vina_score>
-6.4

$$$$
ZINC19944023
 OpenBabel01081722233D

 25 26  0  0  0  0  0  0  0  0999 V2000
  -31.1870   13.0240  -17.2540 C   0  0  0  0  0  0  0  0  0  0  0  0
  -32.3270   12.2710  -17.4850 C   0  0  0  0  0  0  0  0  0  0  0  0
  -32.6500   11.8530  -18.7820 C   0  0  0  0  0  0  0  0  0  0  0  0
  -33.7650   11.1200  -18.9900 F   0  0  0  0  0  0  0  0  0  0  0  0
  -31.8490   12.1790  -19.8350 C   0  0  0  0  0  0  0  0  0  0  0  0
  -30.6870   12.9410  -19.6240 C   0  0  0  0  0  0  0  0  0  0  0  0
  -29.8930   13.2730  -20.6540 N   0  0  0  0  0  0  0  0  0  0  0  0
  -28.7920   13.9900  -20.4520 C   0  0  0  0  0  0  0  0  0  0  0  0
  -28.4430   14.4240  -19.1610 C   0  0  0  0  0  0  0  0  0  0  0  0
  -29.2230   14.1100  -18.1100 N   0  0  0  0  0  0  0  0  0  0  0  0
  -28.8780   14.5430  -16.8070 O   0  0  0  0  0  0  0  0  0  0  0  0
  -30.3590   13.3650  -18.3160 C   0  0  0  0  0  0  0  0  0  0  0  0
  -27.3090   15.1650  -18.9720 N   0  0  0  0  0  0  0  0  0  0  0  0
  -26.4300   14.7230  -18.9440 H   0  0  0  0  0  0  0  0  0  0  0  0
  -27.3710   16.1430  -18.8650 H   0  0  0  0  0  0  0  0  0  0  0  0
  -33.1580   11.9300  -16.4210 N   0  0  0  0  0  0  0  0  0  0  0  0
  -33.1550   11.0100  -16.0710 H   0  0  0  0  0  0  0  0  0  0  0  0
  -34.0350   12.9400  -15.8240 C   0  0  0  0  0  0  0  0  0  0  0  0
  -34.6550   12.3820  -14.5420 C   0  0  0  0  0  0  0  0  0  0  0  0
  -34.7360   13.4180  -13.5610 O   0  0  0  0  0  0  0  0  0  0  0  0
  -33.8600   13.8190  -13.4420 H   0  0  0  0  0  0  0  0  0  0  0  0
  -30.1800   12.9110  -21.7800 O   0  0  0  0  0  0  0  0  0  0  0  0
  -30.7100   12.1470  -21.9060 H   0  0  0  0  0  0  0  0  0  0  0  0
  -27.9550   14.3300  -21.5640 C   0  0  0  0  0  0  0  0  0  0  0  0
  -27.2920   14.6000  -22.4460 N   0  0  0  0  0  0  0  0  0  0  0  0
  2  1  1  0  0  0  0
  2 16  1  0  0  0  0
  3  2  2  0  0  0  0
  4  3  1  0  0  0  0
  5  6  2  0  0  0  0
  5  3  1  0  0  0  0
  6 12  1  0  0  0  0
  7  8  1  0  0  0  0
  7  6  1  0  0  0  0
  8  9  2  0  0  0  0
  9 13  1  0  0  0  0
  9 10  1  0  0  0  0
 10 11  1  0  0  0  0
 12 10  1  0  0  0  0
 12  1  2  0  0  0  0
 13 14  1  0  0  0  0
 13 15  1  0  0  0  0
 16 17  1  0  0  0  0
 16 18  1  0  0  0  0
 18 19  1  0  0  0  0
 19 20  1  0  0  0  0
 20 21  1  0  0  0  0
 22  7  1  0  0  0  0
 23 22  1  0  0  0  0
 24  8  1  0  0  0  0
 25 24  3  0  0  0  0
M  END
>  <MODEL>
1

>  <REMARK>
 VINA RESULT:      -6.4      0.000      0.000
  Name = ZINC19944023
                            x       y       z     vdW  Elec       q    Type
                         _______ _______ _______ _____ _____    ______ ____

>  <TORSDO>
F 7

>  <vina_score>
-6.4

$$$$
ZINC21063225
 OpenBabel01081722243D

 22 23  0  0  0  0  0  0  0  0999 V2000
  -27.4300   14.5210  -18.0120 C   0  0  0  0  0  0  0  0  0  0  0  0
  -28.6400   14.3250  -17.3730 C   0  0  0  0  0  0  0  0  0  0  0  0
  -29.6380   13.5960  -17.9930 C   0  0  0  0  0  0  0  0  0  0  0  0
  -29.4210   13.0560  -19.2480 C   0  0  0  0  0  0  0  0  0  0  0  0
  -28.2120   13.2540  -19.8860 C   0  0  0  0  0  0  0  0  0  0  0  0
  -27.2150   13.9870  -19.2680 C   0  0  0  0  0  0  0  0  0  0  0  0
  -30.5080   12.2580  -19.9220 C   0  0  0  0  0  0  0  0  0  0  0  0
  -31.6630   13.3860  -20.7490 S   0  0  0  0  0  0  0  0  0  0  0  0
  -31.3690   14.7310  -20.3960 O   0  0  0  0  0  0  0  0  0  0  0  0
  -31.8210   13.0110  -22.1100 O   0  0  0  0  0  0  0  0  0  0  0  0
  -33.1320   13.0770  -20.0520 N   0  0  0  0  0  0  0  0  0  0  0  0
  -33.1960   12.5930  -18.7570 C   0  0  0  0  0  0  0  0  0  0  0  0
  -33.0640   13.4370  -17.7440 N   0  0  0  0  0  0  0  0  0  0  0  0
  -33.1200   13.0080  -16.4940 C   0  0  0  0  0  0  0  0  0  0  0  0
  -33.3190   11.6580  -16.2510 C   0  0  0  0  0  0  0  0  0  0  0  0
  -33.4530   10.8030  -17.3340 C   0  0  0  0  0  0  0  0  0  0  0  0
  -33.3870   11.2970  -18.5590 N   0  0  0  0  0  0  0  0  0  0  0  0
  -27.9780   12.6700  -21.2560 C   0  0  0  0  0  0  0  0  0  0  0  0
  -28.2270   13.7000  -22.2740 N   0  0  0  0  0  0  0  0  0  0  0  0
  -28.6720   14.5070  -21.8400 H   0  0  0  0  0  0  0  0  0  0  0  0
  -27.3400   13.9840  -22.6930 H   0  0  0  0  0  0  0  0  0  0  0  0
  -28.8390   13.3210  -22.9980 H   0  0  0  0  0  0  0  0  0  0  0  0
  1  2  2  0  0  0  0
  3  2  1  0  0  0  0
  4  3  2  0  0  0  0
  5  6  2  0  0  0  0
  5  4  1  0  0  0  0
  6  1  1  0  0  0  0
  7  4  1  0  0  0  0
  8  9  2  0  0  0  0
  8 11  1  0  0  0  0
  8  7  1  0  0  0  0
 10  8  2  0  0  0  0
 11 12  1  0  0  0  0
 12 17  2  0  0  0  0
 12 13  1  0  0  0  0
 13 14  2  0  0  0  0
 14 15  1  0  0  0  0
 16 15  2  0  0  0  0
 17 16  1  0  0  0  0
 18  5  1  0  0  0  0
 19 20  1  0  0  0  0
 19 18  1  0  0  0  0
 21 19  1  0  0  0  0
 22 19  1  0  0  0  0
M  END
>  <MODEL>
1

>  <REMARK>
 VINA RESULT:      -6.4      0.000      0.000
  Name = ZINC21063225
                            x       y       z     vdW  Elec       q    Type
                         _______ _______ _______ _____ _____    ______ ____

>  <TORSDO>
F 6

>  <vina_score>
-6.4

$$$$
ZINC25269233
 OpenBabel01081722253D

 24 25  0  0  0  0  0  0  0  0999 V2000
  -32.1810   13.6380  -21.1000 C   0  0  0  0  0  0  0  0  0  0  0  0
  -30.7050   13.3990  -20.9140 C   0  0  0  0  0  0  0  0  0  0  0  0
  -30.0310   12.7290  -21.8830 N   0  0  0  0  0  0  0  0  0  0  0  0
  -30.5100   12.4120  -22.6830 H   0  0  0  0  0  0  0  0  0  0  0  0
  -28.7050   12.4920  -21.7540 C   0  0  0  0  0  0  0  0  0  0  0  0
  -28.0450   12.9850  -20.5440 C   0  0  0  0  0  0  0  0  0  0  0  0
  -26.7280   12.9450  -20.0500 C   0  0  0  0  0  0  0  0  0  0  0  0
  -26.7050   13.5540  -18.8960 N   0  0  0  0  0  0  0  0  0  0  0  0
  -27.9890   14.0160  -18.5840 N   0  0  0  0  0  0  0  0  0  0  0  0
  -28.3680   14.7480  -17.3730 C   0  0  0  0  0  0  0  0  0  0  0  0
  -28.8250   13.6690  -19.5980 C   0  0  0  0  0  0  0  0  0  0  0  0
  -28.0820   11.8930  -22.6120 O   0  0  0  0  0  0  0  0  0  0  0  0
  -30.1350   13.8440  -19.8330 N   0  0  0  0  0  0  0  0  0  0  0  0
  -32.7780   14.1770  -19.7980 C   0  0  0  0  0  0  0  0  0  0  0  0
  -32.5870   12.7070  -17.8180 N   0  0  0  0  0  0  0  0  0  0  0  0
  -31.7950   13.2260  -17.5490 H   0  0  0  0  0  0  0  0  0  0  0  0
  -33.2490   13.0250  -18.9480 C   0  0  0  0  0  0  0  0  0  0  0  0
  -34.2240   12.3850  -19.2800 O   0  0  0  0  0  0  0  0  0  0  0  0
  -33.0450   11.5860  -16.9920 C   0  0  0  0  0  0  0  0  0  0  0  0
  -35.4150   11.7920  -13.9920 C   0  0  0  0  0  0  0  0  0  0  0  0
  -34.6330   11.2800  -15.1200 N   0  0  0  0  0  0  0  0  0  0  0  0
  -34.6800   10.3260  -15.3590 H   0  0  0  0  0  0  0  0  0  0  0  0
  -33.8490   12.1140  -15.8320 C   0  0  0  0  0  0  0  0  0  0  0  0
  -33.7910   13.2890  -15.5380 O   0  0  0  0  0  0  0  0  0  0  0  0
  1  2  1  0  0  0  0
  1 14  1  0  0  0  0
  2 13  2  0  0  0  0
  3  5  1  0  0  0  0
  3  2  1  0  0  0  0
  4  3  1  0  0  0  0
  5  6  1  0  0  0  0
  6  7  1  0  0  0  0
  6 11  2  0  0  0  0
  7  8  2  0  0  0  0
  8  9  1  0  0  0  0
  9 10  1  0  0  0  0
 11  9  1  0  0  0  0
 12  5  2  0  0  0  0
 13 11  1  0  0  0  0
 14 17  1  0  0  0  0
 15 16  1  0  0  0  0
 15 19  1  0  0  0  0
 17 15  1  0  0  0  0
 18 17  2  0  0  0  0
 19 23  1  0  0  0  0
 21 20  1  0  0  0  0
 22 21  1  0  0  0  0
 23 24  2  0  0  0  0
 23 21  1  0  0  0  0
M  END
>  <MODEL>
1

>  <REMARK>
 VINA RESULT:      -6.4      0.000      0.000
  Name = ZINC25269233
                            x       y       z     vdW  Elec       q    Type
                         _______ _______ _______ _____ _____    ______ ____

>  <TORSDO>
F 5

>  <vina_score>
-6.4

$$$$
ZINC13551153
 OpenBabel01081722253D

 27 29  0  0  0  0  0  0  0  0999 V2000
  -30.5440   12.2300  -21.8050 C   0  0  0  0  0  0  0  0  0  0  0  0
  -30.3070   11.1960  -22.5970 N   0  0  0  0  0  0  0  0  0  0  0  0
  -30.9310   10.4330  -22.6130 H   0  0  0  0  0  0  0  0  0  0  0  0
  -29.5080   11.1890  -23.1720 H   0  0  0  0  0  0  0  0  0  0  0  0
  -31.6770   12.1760  -21.0290 N   0  0  0  0  0  0  0  0  0  0  0  0
  -32.2530   10.8850  -20.6220 C   0  0  0  0  0  0  0  0  0  0  0  0
  -32.4690   10.9010  -19.1050 C   0  0  0  0  0  0  0  0  0  0  0  0
  -33.2670   12.0790  -18.7380 N   0  0  0  0  0  0  0  0  0  0  0  0
  -32.5570   13.3230  -19.0620 C   0  0  0  0  0  0  0  0  0  0  0  0
  -32.3450   13.4070  -20.5780 C   0  0  0  0  0  0  0  0  0  0  0  0
  -33.6200   12.0440  -17.4010 C   0  0  0  0  0  0  0  0  0  0  0  0
  -33.7880   13.1840  -16.7460 N   0  0  0  0  0  0  0  0  0  0  0  0
  -34.1310   13.1850  -15.4690 C   0  0  0  0  0  0  0  0  0  0  0  0
  -34.3040   11.9760  -14.8130 C   0  0  0  0  0  0  0  0  0  0  0  0
  -34.1150   10.8030  -15.5270 C   0  0  0  0  0  0  0  0  0  0  0  0
  -33.7770   10.8720  -16.8050 N   0  0  0  0  0  0  0  0  0  0  0  0
  -29.7100   13.3250  -21.7330 N   0  0  0  0  0  0  0  0  0  0  0  0
  -29.8650   14.1010  -22.3190 H   0  0  0  0  0  0  0  0  0  0  0  0
  -28.0700   14.4680  -17.3750 C   0  0  0  0  0  0  0  0  0  0  0  0
  -27.8500   13.8770  -18.7430 C   0  0  0  0  0  0  0  0  0  0  0  0
  -26.6170   13.3560  -19.0900 C   0  0  0  0  0  0  0  0  0  0  0  0
  -26.4560   12.8200  -20.3670 C   0  0  0  0  0  0  0  0  0  0  0  0
  -27.4880   12.8260  -21.2030 N   0  0  0  0  0  0  0  0  0  0  0  0
  -28.6530   13.3340  -20.8330 C   0  0  0  0  0  0  0  0  0  0  0  0
  -28.8340   13.8560  -19.6300 N   0  0  0  0  0  0  0  0  0  0  0  0
  -25.2650   12.2990  -20.7480 O   0  0  0  0  0  0  0  0  0  0  0  0
  -25.2220   11.4270  -21.0860 H   0  0  0  0  0  0  0  0  0  0  0  0
  1 17  1  0  0  0  0
  1  5  1  0  0  0  0
  2  1  2  0  0  0  0
  3  2  1  0  0  0  0
  4  2  1  0  0  0  0
  5  6  1  0  0  0  0
  5 10  1  0  0  0  0
  6  7  1  0  0  0  0
  7  8  1  0  0  0  0
  8 11  1  0  0  0  0
  9  8  1  0  0  0  0
 10  9  1  0  0  0  0
 11 16  2  0  0  0  0
 11 12  1  0  0  0  0
 12 13  2  0  0  0  0
 13 14  1  0  0  0  0
 15 14  2  0  0  0  0
 16 15  1  0  0  0  0
 17 24  1  0  0  0  0
 18 17  1  0  0  0  0
 20 19  1  0  0  0  0
 21 20  1  0  0  0  0
 22 21  2  0  0  0  0
 23 24  2  0  0  0  0
 23 22  1  0  0  0  0
 24 25  1  0  0  0  0
 25 20  2  0  0  0  0
 26 22  1  0  0  0  0
 27 26  1  0  0  0  0
M  END
>  <MODEL>
1

>  <REMARK>
 VINA RESULT:      -6.4      0.000      0.000
  Name = ZINC13551153
                            x       y       z     vdW  Elec       q    Type
                         _______ _______ _______ _____ _____    ______ ____

>  <TORSDO>
F 5

>  <vina_score>
-6.4

$$$$
ZINC03677371
 OpenBabel01081722253D

 23 24  0  0  1  0  0  0  0  0999 V2000
  -31.8920   11.8860  -18.6970 C   0  0  0  0  0  0  0  0  0  0  0  0
  -30.6610   11.2480  -18.7610 C   0  0  0  0  0  0  0  0  0  0  0  0
  -29.5490   11.9330  -19.2080 C   0  0  0  0  0  0  0  0  0  0  0  0
  -29.6550   13.2590  -19.5830 C   0  0  0  0  0  0  0  0  0  0  0  0
  -30.8820   13.9040  -19.5170 C   0  0  0  0  0  0  0  0  0  0  0  0
  -32.0020   13.2160  -19.0730 C   0  0  0  0  0  0  0  0  0  0  0  0
  -32.9870   11.2100  -18.2630 O   0  0  0  0  0  0  0  0  0  0  0  0
  -33.4790   12.3750  -16.2030 C   0  0  0  0  0  0  0  0  0  0  0  0
  -33.1250   11.0350  -16.8510 C   0  0  0  0  0  0  0  0  0  0  0  0
  -28.4380   14.0050  -20.0640 C   0  0  2  0  0  0  0  0  0  0  0  0
  -28.8330   15.2550  -20.7370 N   0  0  0  0  0  0  0  0  0  0  0  0
  -29.8450   15.2690  -20.8650 H   0  0  0  0  0  0  0  0  0  0  0  0
  -28.5520   16.0520  -20.1650 H   0  0  0  0  0  0  0  0  0  0  0  0
  -28.3730   15.3120  -21.6450 H   0  0  0  0  0  0  0  0  0  0  0  0
  -27.6730   13.1450  -21.0370 C   0  0  0  0  0  0  0  0  0  0  0  0
  -28.2060   12.8480  -22.2330 O   0  0  0  0  0  0  0  0  0  0  0  0
  -26.5810   12.7220  -20.7410 O   0  0  0  0  0  0  0  0  0  0  0  0
  -27.5430   14.3450  -18.8710 C   0  0  0  0  0  0  0  0  0  0  0  0
  -28.1460   14.2010  -17.4720 C   0  0  0  0  0  0  0  0  0  0  0  0
  -27.8920   15.5930  -18.0570 C   0  0  0  0  0  0  0  0  0  0  0  0
  -30.9870   15.2070  -19.8860 O   0  0  0  0  0  0  0  0  0  0  0  0
  -32.2630   15.6480  -20.3550 C   0  0  0  0  0  0  0  0  0  0  0  0
  -32.3040   17.1780  -20.3580 C   0  0  0  0  0  0  0  0  0  0  0  0
  1  7  1  0  0  0  0
  2  1  1  0  0  0  0
  3  2  2  0  0  0  0
  4  5  2  0  0  0  0
  4  3  1  0  0  0  0
  5  6  1  0  0  0  0
  6  1  2  0  0  0  0
  7  9  1  0  0  0  0
  9  8  1  0  0  0  0
 10 15  1  6  0  0  0
 10  4  1  0  0  0  0
 10 18  1  0  0  0  0
 11 13  1  0  0  0  0
 11 10  1  0  0  0  0
 12 11  1  0  0  0  0
 14 11  1  0  0  0  0
 15 17  1  0  0  0  0
 16 15  2  0  0  0  0
 18 20  1  0  0  0  0
 18 19  1  0  0  0  0
 20 19  1  0  0  0  0
 21  5  1  0  0  0  0
 22 21  1  0  0  0  0
 23 22  1  0  0  0  0
M  END
>  <MODEL>
1

>  <REMARK>
 VINA RESULT:      -6.4      0.000      0.000
  Name = ZINC03677371
                            x       y       z     vdW  Elec       q    Type
                         _______ _______ _______ _____ _____    ______ ____

>  <TORSDO>
F 8

>  <vina_score>
-6.4

$$$$
ZINC05063166
 OpenBabel01081722053D

 24 25  0  0  0  0  0  0  0  0999 V2000
  -33.4500   10.9170  -16.9240 C   0  0  0  0  0  0  0  0  0  0  0  0
  -32.9550   10.8040  -18.3670 C   0  0  0  0  0  0  0  0  0  0  0  0
  -31.5340   11.3650  -18.4650 C   0  0  0  0  0  0  0  0  0  0  0  0
  -31.5290   12.8240  -18.0210 C   0  0  0  0  0  0  0  0  0  0  0  0
  -30.1380   13.4040  -18.1360 C   0  0  0  0  0  0  0  0  0  0  0  0
  -30.2420   14.4150  -19.0230 N   0  0  0  0  0  0  0  0  0  0  0  0
  -31.4960   14.5510  -19.4710 C   0  0  0  0  0  0  0  0  0  0  0  0
  -31.8390   15.3970  -20.2740 O   0  0  0  0  0  0  0  0  0  0  0  0
  -29.1390   13.0390  -17.5540 O   0  0  0  0  0  0  0  0  0  0  0  0
  -32.0430   12.9550  -16.5920 C   0  0  0  0  0  0  0  0  0  0  0  0
  -32.3340   13.6430  -18.9350 N   0  0  0  0  0  0  0  0  0  0  0  0
  -33.4620   12.3880  -16.5020 C   0  0  0  0  0  0  0  0  0  0  0  0
  -29.1220   15.2640  -19.4390 C   0  0  0  0  0  0  0  0  0  0  0  0
  -28.7150   14.9050  -20.8700 C   0  0  0  0  0  0  0  0  0  0  0  0
  -27.8790   13.6870  -20.8370 N   0  0  0  0  0  0  0  0  0  0  0  0
  -28.0320   13.2040  -19.9520 H   0  0  0  0  0  0  0  0  0  0  0  0
  -26.4510   14.0520  -20.9430 C   0  0  0  0  0  0  0  0  0  0  0  0
  -25.6340   13.0910  -20.0790 C   0  0  0  0  0  0  0  0  0  0  0  0
  -25.2560   11.9530  -20.8560 O   0  0  0  0  0  0  0  0  0  0  0  0
  -24.3000   11.9750  -21.0170 H   0  0  0  0  0  0  0  0  0  0  0  0
  -28.2540   12.7860  -21.9460 C   0  0  0  0  0  0  0  0  0  0  0  0
  -29.5330   12.0380  -21.5620 C   0  0  0  0  0  0  0  0  0  0  0  0
  -30.6450   12.6120  -22.2510 O   0  0  0  0  0  0  0  0  0  0  0  0
  -30.7020   13.5570  -22.0410 H   0  0  0  0  0  0  0  0  0  0  0  0
  1 12  1  0  0  0  0
  2  1  1  0  0  0  0
  3  2  1  0  0  0  0
  3  4  1  0  0  0  0
  4 10  1  0  0  0  0
  5  4  1  0  0  0  0
  5  9  2  0  0  0  0
  6  5  1  0  0  0  0
  7  6  1  0  0  0  0
  7 11  1  0  0  0  0
  8  7  2  0  0  0  0
 10 12  1  0  0  0  0
 11  4  1  0  0  0  0
 13  6  1  0  0  0  0
 14 15  1  0  0  0  0
 14 13  1  0  0  0  0
 15 16  1  0  0  0  0
 17 15  1  0  0  0  0
 17 18  1  0  0  0  0
 19 18  1  0  0  0  0
 20 19  1  0  0  0  0
 21 22  1  0  0  0  0
 21 15  1  0  0  0  0
 23 24  1  0  0  0  0
 23 22  1  0  0  0  0
M  END
>  <MODEL>
1

>  <REMARK>
 VINA RESULT:      -6.4      0.000      0.000
  Name = ZINC05063166
                            x       y       z     vdW  Elec       q    Type
                         _______ _______ _______ _____ _____    ______ ____

>  <TORSDO>
F 9

>  <vina_score>
-6.4

$$$$
ZINC06536724
 OpenBabel01081722073D

 22 24  0  0  1  0  0  0  0  0999 V2000
  -31.7440   13.9520  -20.1710 C   0  0  0  0  0  0  0  0  0  0  0  0
  -32.2500   13.8160  -18.9620 N   0  0  0  0  0  0  0  0  0  0  0  0
  -33.1350   12.8680  -18.6340 C   0  0  0  0  0  0  0  0  0  0  0  0
  -33.3410   11.7940  -19.3990 N   0  0  0  0  0  0  0  0  0  0  0  0
  -32.7880   11.7990  -20.6020 C   0  0  2  0  0  0  0  0  0  0  0  0
  -32.3460   10.8360  -21.3660 N   0  0  0  0  0  0  0  0  0  0  0  0
  -31.4680   11.2930  -22.2660 C   0  0  0  0  0  0  0  0  0  0  0  0
  -31.3310   12.5900  -22.2390 N   0  0  0  0  0  0  0  0  0  0  0  0
  -32.2860   13.0740  -21.2550 C   0  0  2  0  0  0  0  0  0  0  0  0
  -30.7670   14.8490  -20.4220 N   0  0  0  0  0  0  0  0  0  0  0  0
  -30.7320   15.3090  -21.2920 H   0  0  0  0  0  0  0  0  0  0  0  0
  -29.7590   15.1390  -19.3990 C   0  0  0  0  0  0  0  0  0  0  0  0
  -26.6660   13.1460  -19.6080 C   0  0  0  0  0  0  0  0  0  0  0  0
  -27.7850   13.6220  -18.8900 C   0  0  0  0  0  0  0  0  0  0  0  0
  -28.4830   14.4080  -19.7300 C   0  0  0  0  0  0  0  0  0  0  0  0
  -27.8530   14.4230  -20.9160 O   0  0  0  0  0  0  0  0  0  0  0  0
  -26.7500   13.6600  -20.8490 C   0  0  0  0  0  0  0  0  0  0  0  0
  -33.8500   13.0020  -17.4730 N   0  0  0  0  0  0  0  0  0  0  0  0
  -34.8330   13.0420  -17.5020 H   0  0  0  0  0  0  0  0  0  0  0  0
  -33.1980   13.0780  -16.2750 N   0  0  0  0  0  0  0  0  0  0  0  0
  -32.3800   13.6800  -16.3700 H   0  0  0  0  0  0  0  0  0  0  0  0
  -33.8260   13.4670  -15.5710 H   0  0  0  0  0  0  0  0  0  0  0  0
  1  2  2  0  0  0  0
  2  3  1  0  0  0  0
  3 18  1  0  0  0  0
  4  3  2  0  0  0  0
  5  6  1  1  0  0  0
  5  4  1  0  0  0  0
  7  8  1  0  0  0  0
  7  6  1  0  0  0  0
  9  8  1  6  0  0  0
  9  5  1  0  0  0  0
  9  1  1  0  0  0  0
 10  1  1  0  0  0  0
 10 12  1  0  0  0  0
 11 10  1  0  0  0  0
 13 14  1  0  0  0  0
 15 12  1  0  0  0  0
 15 14  2  0  0  0  0
 16 17  1  0  0  0  0
 16 15  1  0  0  0  0
 17 13  2  0  0  0  0
 18 20  1  0  0  0  0
 19 18  1  0  0  0  0
 20 22  1  0  0  0  0
 21 20  1  0  0  0  0
M  END
>  <MODEL>
1

>  <REMARK>
 VINA RESULT:      -6.4      0.000      0.000
  Name = ZINC06536724
                            x       y       z     vdW  Elec       q    Type
                         _______ _______ _______ _____ _____    ______ ____

>  <TORSDO>
F 5

>  <vina_score>
-6.4

$$$$
ZINC27654081
 OpenBabel01081722073D

 27 28  0  0  0  0  0  0  0  0999 V2000
  -31.1870   12.4310  -17.6190 C   0  0  0  0  0  0  0  0  0  0  0  0
  -30.0010   12.8600  -17.3010 N   0  0  0  0  0  0  0  0  0  0  0  0
  -29.7190   13.9770  -18.0180 C   0  0  0  0  0  0  0  0  0  0  0  0
  -28.6180   14.8440  -18.0960 C   0  0  0  0  0  0  0  0  0  0  0  0
  -27.5200   14.6390  -17.3310 O   0  0  0  0  0  0  0  0  0  0  0  0
  -28.6770   15.8710  -18.9350 N   0  0  0  0  0  0  0  0  0  0  0  0
  -27.9120   16.4860  -18.9990 H   0  0  0  0  0  0  0  0  0  0  0  0
  -29.7500   16.0810  -19.6880 C   0  0  0  0  0  0  0  0  0  0  0  0
  -30.8090   15.2910  -19.6430 N   0  0  0  0  0  0  0  0  0  0  0  0
  -30.8330   14.2380  -18.8340 C   0  0  0  0  0  0  0  0  0  0  0  0
  -31.7420   13.2470  -18.5610 N   0  0  0  0  0  0  0  0  0  0  0  0
  -29.7580   17.1640  -20.5500 N   0  0  0  0  0  0  0  0  0  0  0  0
  -30.1750   18.0120  -20.2730 H   0  0  0  0  0  0  0  0  0  0  0  0
  -29.3470   17.0870  -21.4420 H   0  0  0  0  0  0  0  0  0  0  0  0
  -33.0660   13.0930  -19.1700 C   0  0  0  0  0  0  0  0  0  0  0  0
  -33.0020   12.1120  -20.2060 O   0  0  0  0  0  0  0  0  0  0  0  0
  -32.3240   12.5550  -21.3840 C   0  0  0  0  0  0  0  0  0  0  0  0
  -31.2070   11.5680  -21.7300 C   0  0  0  0  0  0  0  0  0  0  0  0
  -30.0650   12.2950  -22.2570 O   0  0  0  0  0  0  0  0  0  0  0  0
  -29.0420   12.5130  -21.4150 C   0  0  0  0  0  0  0  0  0  0  0  0
  -28.9720   11.8990  -20.3770 O   0  0  0  0  0  0  0  0  0  0  0  0
  -27.9830   13.5260  -21.7650 C   0  0  0  0  0  0  0  0  0  0  0  0
  -26.7890   13.3610  -20.8220 C   0  0  0  0  0  0  0  0  0  0  0  0
  -26.0010   14.6000  -20.8090 N   0  0  0  0  0  0  0  0  0  0  0  0
  -26.0530   15.0280  -19.8850 H   0  0  0  0  0  0  0  0  0  0  0  0
  -25.0290   14.3870  -21.0310 H   0  0  0  0  0  0  0  0  0  0  0  0
  -26.3740   15.2470  -21.5040 H   0  0  0  0  0  0  0  0  0  0  0  0
  1  2  2  0  0  0  0
  3  2  1  0  0  0  0
  4  3  1  0  0  0  0
  4  5  2  0  0  0  0
  6  4  1  0  0  0  0
  7  6  1  0  0  0  0
  8  9  2  0  0  0  0
  8  6  1  0  0  0  0
  9 10  1  0  0  0  0
 10 11  1  0  0  0  0
 10  3  2  0  0  0  0
 11  1  1  0  0  0  0
 12 13  1  0  0  0  0
 12  8  1  0  0  0  0
 14 12  1  0  0  0  0
 15 11  1  0  0  0  0
 16 15  1  0  0  0  0
 17 16  1  0  0  0  0
 18 17  1  0  0  0  0
 19 18  1  0  0  0  0
 19 20  1  0  0  0  0
 20 21  2  0  0  0  0
 22 20  1  0  0  0  0
 22 23  1  0  0  0  0
 23 24  1  0  0  0  0
 24 25  1  0  0  0  0
 26 24  1  0  0  0  0
 27 24  1  0  0  0  0
M  END
>  <MODEL>
1

>  <REMARK>
 VINA RESULT:      -6.4      0.000      0.000
  Name = ZINC27654081
                            x       y       z     vdW  Elec       q    Type
                         _______ _______ _______ _____ _____    ______ ____

>  <TORSDO>
F 10

>  <vina_score>
-6.4

$$$$
ZINC31448830
 OpenBabel01081722193D

 25 26  0  0  1  0  0  0  0  0999 V2000
  -28.6820   12.6590  -21.1510 C   0  0  0  0  0  0  0  0  0  0  0  0
  -27.3900   12.4490  -20.9400 N   0  0  0  0  0  0  0  0  0  0  0  0
  -26.9610   11.6470  -21.3150 H   0  0  0  0  0  0  0  0  0  0  0  0
  -26.6670   13.3110  -20.2290 C   0  0  1  0  0  0  0  0  0  0  0  0
  -27.2870   14.4360  -19.6940 C   0  0  0  0  0  0  0  0  0  0  0  0
  -28.6470   14.6200  -19.9310 C   0  0  0  0  0  0  0  0  0  0  0  0
  -29.3050   13.7200  -20.6570 N   0  0  0  0  0  0  0  0  0  0  0  0
  -25.3160   13.0870  -20.0180 N   0  0  0  0  0  0  0  0  0  0  0  0
  -24.6620   13.3330  -20.7120 H   0  0  0  0  0  0  0  0  0  0  0  0
  -25.0100   12.6800  -19.1750 H   0  0  0  0  0  0  0  0  0  0  0  0
  -29.3050   15.7260  -19.4180 N   0  0  0  0  0  0  0  0  0  0  0  0
  -29.0510   16.6310  -19.7140 H   0  0  0  0  0  0  0  0  0  0  0  0
  -30.0270   15.6080  -18.7590 H   0  0  0  0  0  0  0  0  0  0  0  0
  -29.5960   11.4940  -22.1060 S   0  0  0  0  0  0  0  0  0  0  0  0
  -31.2770   12.1000  -21.8150 C   0  0  0  0  0  0  0  0  0  0  0  0
  -32.1070   11.0000  -21.1490 C   0  0  0  0  0  0  0  0  0  0  0  0
  -31.8100   13.0740  -16.9440 C   0  0  0  0  0  0  0  0  0  0  0  0
  -32.5330   11.8760  -17.5650 C   0  0  0  0  0  0  0  0  0  0  0  0
  -32.8080   10.8040  -16.5080 C   0  0  0  0  0  0  0  0  0  0  0  0
  -31.7270   11.2970  -18.7100 C   0  0  0  0  0  0  0  0  0  0  0  0
  -32.5000   11.4320  -19.8050 N   0  0  0  0  0  0  0  0  0  0  0  0
  -33.6740   12.0040  -19.5140 C   0  0  0  0  0  0  0  0  0  0  0  0
  -34.5400   12.2280  -20.3360 O   0  0  0  0  0  0  0  0  0  0  0  0
  -30.6170   10.8140  -18.6520 O   0  0  0  0  0  0  0  0  0  0  0  0
  -33.7880   12.3050  -18.2070 N   0  0  0  0  0  0  0  0  0  0  0  0
  1  2  1  0  0  0  0
  1  7  2  0  0  0  0
  2  4  1  0  0  0  0
  3  2  1  0  0  0  0
  4  8  1  1  0  0  0
  4  5  1  0  0  0  0
  6  5  2  0  0  0  0
  6 11  1  0  0  0  0
  7  6  1  0  0  0  0
  8 10  1  0  0  0  0
  9  8  1  0  0  0  0
 11 13  1  0  0  0  0
 12 11  1  0  0  0  0
 14 15  1  0  0  0  0
 14  1  1  0  0  0  0
 15 16  1  0  0  0  0
 16 21  1  0  0  0  0
 18 17  1  0  0  0  0
 18 19  1  0  0  0  0
 20 24  2  0  0  0  0
 20 18  1  0  0  0  0
 21 22  1  0  0  0  0
 21 20  1  0  0  0  0
 22 25  1  0  0  0  0
 23 22  2  0  0  0  0
 25 18  1  0  0  0  0
M  END
>  <MODEL>
1

>  <REMARK>
 VINA RESULT:      -6.3      0.000      0.000
  Name = ZINC31448830
                            x       y       z     vdW  Elec       q    Type
                         _______ _______ _______ _____ _____    ______ ____

>  <TORSDO>
F 6

>  <vina_score>
-6.3

$$$$
ZINC23989706
 OpenBabel01081722213D

 26 28  0  0  0  0  0  0  0  0999 V2000
  -33.4430   12.1940  -16.4160 C   0  0  0  0  0  0  0  0  0  0  0  0
  -32.2420   12.3120  -17.3200 C   0  0  0  0  0  0  0  0  0  0  0  0
  -31.0880   12.8940  -17.0080 C   0  0  0  0  0  0  0  0  0  0  0  0
  -30.2450   12.8000  -18.1030 N   0  0  0  0  0  0  0  0  0  0  0  0
  -28.9870   13.1120  -18.5950 C   0  0  0  0  0  0  0  0  0  0  0  0
  -27.8610   13.7730  -18.0740 C   0  0  0  0  0  0  0  0  0  0  0  0
  -26.7620   13.9110  -18.8430 N   0  0  0  0  0  0  0  0  0  0  0  0
  -25.9720   14.3740  -18.4800 H   0  0  0  0  0  0  0  0  0  0  0  0
  -26.7270   13.4280  -20.0970 C   0  0  0  0  0  0  0  0  0  0  0  0
  -27.7810   12.7890  -20.6380 N   0  0  0  0  0  0  0  0  0  0  0  0
  -27.7040   12.2770  -22.0080 C   0  0  0  0  0  0  0  0  0  0  0  0
  -25.7170   13.5720  -20.7600 O   0  0  0  0  0  0  0  0  0  0  0  0
  -27.8780   14.2150  -16.9390 O   0  0  0  0  0  0  0  0  0  0  0  0
  -28.9410   12.6160  -19.8970 C   0  0  0  0  0  0  0  0  0  0  0  0
  -30.1150   12.0420  -20.1480 N   0  0  0  0  0  0  0  0  0  0  0  0
  -30.9040   12.1450  -19.0870 C   0  0  0  0  0  0  0  0  0  0  0  0
  -32.1490   11.8310  -18.6120 N   0  0  0  0  0  0  0  0  0  0  0  0
  -33.1980   11.1190  -19.3450 C   0  0  0  0  0  0  0  0  0  0  0  0
  -33.5580   11.9010  -20.6090 C   0  0  0  0  0  0  0  0  0  0  0  0
  -33.6460   13.3330  -20.2910 N   0  0  0  0  0  0  0  0  0  0  0  0
  -34.6000   13.6460  -20.4650 H   0  0  0  0  0  0  0  0  0  0  0  0
  -33.3970   13.4730  -19.3120 H   0  0  0  0  0  0  0  0  0  0  0  0
  -32.7340   14.1160  -21.1360 C   0  0  0  0  0  0  0  0  0  0  0  0
  -32.3800   15.4250  -20.4270 C   0  0  0  0  0  0  0  0  0  0  0  0
  -31.0030   15.4020  -20.0460 O   0  0  0  0  0  0  0  0  0  0  0  0
  -30.3720   16.6840  -20.0670 C   0  0  0  0  0  0  0  0  0  0  0  0
  2  3  2  0  0  0  0
  2  1  1  0  0  0  0
  4  3  1  0  0  0  0
  5  4  1  0  0  0  0
  5  6  1  0  0  0  0
  6 13  2  0  0  0  0
  7  8  1  0  0  0  0
  7  6  1  0  0  0  0
  9  7  1  0  0  0  0
 10  9  1  0  0  0  0
 10 14  1  0  0  0  0
 11 10  1  0  0  0  0
 12  9  2  0  0  0  0
 14  5  2  0  0  0  0
 15 14  1  0  0  0  0
 15 16  2  0  0  0  0
 16 17  1  0  0  0  0
 16  4  1  0  0  0  0
 17  2  1  0  0  0  0
 18 17  1  0  0  0  0
 19 20  1  0  0  0  0
 19 18  1  0  0  0  0
 20 22  1  0  0  0  0
 21 20  1  0  0  0  0
 23 24  1  0  0  0  0
 23 20  1  0  0  0  0
 24 25  1  0  0  0  0
 26 25  1  0  0  0  0
M  END
>  <MODEL>
1

>  <REMARK>
 VINA RESULT:      -6.3      0.000      0.000
  Name = ZINC23989706
                            x       y       z     vdW  Elec       q    Type
                         _______ _______ _______ _____ _____    ______ ____

>  <TORSDO>
F 6

>  <vina_score>
-6.3

$$$$
ZINC06928583
 OpenBabel01081722233D

 23 24  0  0  1  0  0  0  0  0999 V2000
  -30.9520   11.4190  -19.1120 C   0  0  2  0  0  0  0  0  0  0  0  0
  -29.6170   11.9310  -19.6760 C   0  0  1  0  0  0  0  0  0  0  0  0
  -29.8180   12.1420  -21.1100 N   0  0  0  0  0  0  0  0  0  0  0  0
  -31.0690   11.8390  -21.4790 C   0  0  0  0  0  0  0  0  0  0  0  0
  -31.4920   11.9310  -22.6120 O   0  0  0  0  0  0  0  0  0  0  0  0
  -31.8710   11.3680  -20.3150 C   0  0  0  0  0  0  0  0  0  0  0  0
  -33.0270   11.0200  -20.3280 O   0  0  0  0  0  0  0  0  0  0  0  0
  -29.2410   13.2300  -19.0110 C   0  0  0  0  0  0  0  0  0  0  0  0
  -29.7220   14.4260  -19.5090 C   0  0  0  0  0  0  0  0  0  0  0  0
  -29.3810   15.6170  -18.8970 C   0  0  0  0  0  0  0  0  0  0  0  0
  -28.5510   15.6130  -17.7910 C   0  0  0  0  0  0  0  0  0  0  0  0
  -28.0650   14.4180  -17.2960 C   0  0  0  0  0  0  0  0  0  0  0  0
  -28.4100   13.2260  -17.9060 C   0  0  0  0  0  0  0  0  0  0  0  0
  -33.0600   11.6990  -17.2380 C   0  0  0  0  0  0  0  0  0  0  0  0
  -31.5990   12.5690  -17.8680 S   0  0  0  0  0  0  0  0  0  0  0  0
  -32.0300   13.7510  -18.5290 O   0  0  0  0  0  0  0  0  0  0  0  0
  -30.6480   12.6730  -16.8160 O   0  0  0  0  0  0  0  0  0  0  0  0
  -28.7840   12.6310  -22.0250 C   0  0  0  0  0  0  0  0  0  0  0  0
  -27.4110   12.4950  -21.3620 C   0  0  0  0  0  0  0  0  0  0  0  0
  -26.7390   13.8070  -21.3750 N   0  0  0  0  0  0  0  0  0  0  0  0
  -26.1790   13.8930  -22.2230 H   0  0  0  0  0  0  0  0  0  0  0  0
  -27.4400   14.5480  -21.3530 H   0  0  0  0  0  0  0  0  0  0  0  0
  -26.1330   13.8860  -20.5580 H   0  0  0  0  0  0  0  0  0  0  0  0
  1 15  1  1  0  0  0
  2  1  1  0  0  0  0
  2  8  1  1  0  0  0
  3  2  1  0  0  0  0
  4  3  1  0  0  0  0
  4  6  1  0  0  0  0
  5  4  2  0  0  0  0
  6  1  1  0  0  0  0
  7  6  2  0  0  0  0
  8 13  1  0  0  0  0
  9  8  2  0  0  0  0
  9 10  1  0  0  0  0
 10 11  2  0  0  0  0
 11 12  1  0  0  0  0
 13 12  2  0  0  0  0
 15 14  1  0  0  0  0
 15 17  2  0  0  0  0
 16 15  2  0  0  0  0
 18 19  1  0  0  0  0
 18  3  1  0  0  0  0
 20 19  1  0  0  0  0
 20 22  1  0  0  0  0
 20 23  1  0  0  0  0
 21 20  1  0  0  0  0
M  END
>  <MODEL>
1

>  <REMARK>
 VINA RESULT:      -6.3      0.000      0.000
  Name = ZINC06928583
                            x       y       z     vdW  Elec       q    Type
                         _______ _______ _______ _____ _____    ______ ____

>  <TORSDO>
F 5

>  <vina_score>
-6.3

$$$$
ZINC05996380
 OpenBabel01081722243D

 19 19  0  0  0  0  0  0  0  0999 V2000
  -29.7660   14.7630  -18.7250 C   0  0  0  0  0  0  0  0  0  0  0  0
  -30.2010   13.6690  -17.9990 C   0  0  0  0  0  0  0  0  0  0  0  0
  -31.4180   13.0830  -18.2920 C   0  0  0  0  0  0  0  0  0  0  0  0
  -32.2050   13.5910  -19.3130 C   0  0  0  0  0  0  0  0  0  0  0  0
  -31.7640   14.6890  -20.0460 C   0  0  0  0  0  0  0  0  0  0  0  0
  -30.5450   15.2750  -19.7440 C   0  0  0  0  0  0  0  0  0  0  0  0
  -32.5300   15.1880  -21.0520 O   0  0  0  0  0  0  0  0  0  0  0  0
  -32.3060   15.0110  -21.9440 H   0  0  0  0  0  0  0  0  0  0  0  0
  -28.4380   15.3990  -18.4010 C   0  0  0  0  0  0  0  0  0  0  0  0
  -27.3080   14.4410  -18.7820 C   0  0  0  0  0  0  0  0  0  0  0  0
  -27.0200   14.0660  -21.1580 C   0  0  0  0  0  0  0  0  0  0  0  0
  -26.6580   14.9250  -20.0150 N   0  0  0  0  0  0  0  0  0  0  0  0
  -25.6460   14.9000  -19.8880 H   0  0  0  0  0  0  0  0  0  0  0  0
  -26.9620   15.8810  -20.2030 H   0  0  0  0  0  0  0  0  0  0  0  0
  -33.4030   13.0160  -19.6010 O   0  0  0  0  0  0  0  0  0  0  0  0
  -33.3090   11.8320  -20.5520 S   0  0  0  0  0  0  0  0  0  0  0  0
  -32.4160   12.2550  -21.7090 O   0  0  0  0  0  0  0  0  0  0  0  0
  -32.6120   10.8070  -19.8560 O   0  0  0  0  0  0  0  0  0  0  0  0
  -34.6090   11.6390  -21.0910 O   0  0  0  0  0  0  0  0  0  0  0  0
  1  9  1  0  0  0  0
  1  2  2  0  0  0  0
  3  2  1  0  0  0  0
  4  3  2  0  0  0  0
  5  6  2  0  0  0  0
  5  4  1  0  0  0  0
  6  1  1  0  0  0  0
  7  5  1  0  0  0  0
  8  7  1  0  0  0  0
 10  9  1  0  0  0  0
 11 12  1  0  0  0  0
 12 13  1  0  0  0  0
 12 10  1  0  0  0  0
 14 12  1  0  0  0  0
 15  4  1  0  0  0  0
 16 18  1  0  0  0  0
 16 15  1  0  0  0  0
 17 16  2  0  0  0  0
 19 16  2  0  0  0  0
M  END
>  <MODEL>
1

>  <REMARK>
 VINA RESULT:      -6.3      0.000      0.000
  Name = ZINC05996380
                            x       y       z     vdW  Elec       q    Type
                         _______ _______ _______ _____ _____    ______ ____

>  <TORSDO>
F 6

>  <vina_score>
-6.3

$$$$
ZINC05117605
 OpenBabel01081722263D

 22 23  0  0  1  0  0  0  0  0999 V2000
  -28.3900   12.4540  -21.2690 C   0  0  1  0  0  0  0  0  0  0  0  0
  -27.3570   11.9880  -22.1390 O   0  0  0  0  0  0  0  0  0  0  0  0
  -27.1640   12.6670  -22.8050 H   0  0  0  0  0  0  0  0  0  0  0  0
  -28.3000   13.9760  -21.1390 C   0  0  0  0  0  0  0  0  0  0  0  0
  -27.8280   14.4710  -17.6000 C   0  0  0  0  0  0  0  0  0  0  0  0
  -27.4740   13.8680  -18.7510 C   0  0  0  0  0  0  0  0  0  0  0  0
  -28.3120   14.3450  -19.7210 N   0  0  0  0  0  0  0  0  0  0  0  0
  -29.1550   15.2170  -19.1270 C   0  0  0  0  0  0  0  0  0  0  0  0
  -28.8600   15.2870  -17.8580 N   0  0  0  0  0  0  0  0  0  0  0  0
  -30.2360   15.9690  -19.8040 N   0  0  0  0  0  0  0  0  0  0  0  0
  -31.2900   15.4190  -20.0660 O   0  0  0  0  0  0  0  0  0  0  0  0
  -30.0700   17.1410  -20.0980 O   0  0  0  0  0  0  0  0  0  0  0  0
  -29.7540   12.0710  -21.8480 C   0  0  0  0  0  0  0  0  0  0  0  0
  -30.7980   12.4110  -20.8590 N   0  0  0  0  0  0  0  0  0  0  0  0
  -30.7220   13.4000  -20.6210 H   0  0  0  0  0  0  0  0  0  0  0  0
  -32.1370   12.1590  -21.4320 C   0  0  0  0  0  0  0  0  0  0  0  0
  -33.2010   12.6290  -20.4370 C   0  0  2  0  0  0  0  0  0  0  0  0
  -33.0450   11.8510  -19.1280 C   0  0  0  0  0  0  0  0  0  0  0  0
  -31.6300   12.0610  -18.5820 C   0  0  0  0  0  0  0  0  0  0  0  0
  -30.6120   11.6080  -19.6320 C   0  0  0  0  0  0  0  0  0  0  0  0
  -34.5000   12.3930  -20.9810 O   0  0  0  0  0  0  0  0  0  0  0  0
  -34.8570   13.2220  -21.3390 H   0  0  0  0  0  0  0  0  0  0  0  0
  1  2  1  6  0  0  0
  1  4  1  0  0  0  0
  3  2  1  0  0  0  0
  4  7  1  0  0  0  0
  6  5  2  0  0  0  0
  7  8  1  0  0  0  0
  7  6  1  0  0  0  0
  8  9  2  0  0  0  0
  9  5  1  0  0  0  0
 10  8  1  0  0  0  0
 11 10  2  0  0  0  0
 12 10  2  0  0  0  0
 13  1  1  0  0  0  0
 13 14  1  0  0  0  0
 14 15  1  0  0  0  0
 14 20  1  0  0  0  0
 16 14  1  0  0  0  0
 16 17  1  0  0  0  0
 17 21  1  6  0  0  0
 17 18  1  0  0  0  0
 18 19  1  0  0  0  0
 20 19  1  0  0  0  0
 22 21  1  0  0  0  0
M  END
>  <MODEL>
1

>  <REMARK>
 VINA RESULT:      -6.3      0.000      0.000
  Name = ZINC05117605
                            x       y       z     vdW  Elec       q    Type
                         _______ _______ _______ _____ _____    ______ ____

>  <TORSDO>
F 7

>  <vina_score>
-6.3

$$$$
ZINC22791525
 OpenBabel01081722273D

 26 27  0  0  0  0  0  0  0  0999 V2000
  -31.9850   12.3050  -21.3540 S   0  0  0  0  0  0  0  0  0  0  0  0
  -31.9330   11.0850  -22.0780 O   0  0  0  0  0  0  0  0  0  0  0  0
  -32.7200   13.4320  -21.8100 O   0  0  0  0  0  0  0  0  0  0  0  0
  -32.5690   11.9370  -19.8480 N   0  0  0  0  0  0  0  0  0  0  0  0
  -31.7330   11.2300  -18.8670 C   0  0  0  0  0  0  0  0  0  0  0  0
  -31.7610   12.0220  -17.5500 C   0  0  0  0  0  0  0  0  0  0  0  0
  -33.1570   12.2310  -17.1400 N   0  0  0  0  0  0  0  0  0  0  0  0
  -33.6090   11.3170  -17.1030 H   0  0  0  0  0  0  0  0  0  0  0  0
  -33.8830   13.0480  -18.1220 C   0  0  0  0  0  0  0  0  0  0  0  0
  -33.9390   12.3030  -19.4600 C   0  0  0  0  0  0  0  0  0  0  0  0
  -33.2290   12.8290  -15.8000 C   0  0  0  0  0  0  0  0  0  0  0  0
  -34.6460   12.6720  -15.2470 C   0  0  0  0  0  0  0  0  0  0  0  0
  -34.6780   13.1190  -13.8480 N   0  0  0  0  0  0  0  0  0  0  0  0
  -33.8130   13.6120  -13.6280 H   0  0  0  0  0  0  0  0  0  0  0  0
  -35.4700   13.7460  -13.7080 H   0  0  0  0  0  0  0  0  0  0  0  0
  -34.7730   12.3090  -13.2350 H   0  0  0  0  0  0  0  0  0  0  0  0
  -27.6990   13.6820  -20.8300 C   0  0  0  0  0  0  0  0  0  0  0  0
  -27.9830   12.5640  -21.6020 C   0  0  0  0  0  0  0  0  0  0  0  0
  -29.2900   12.1440  -21.7550 C   0  0  0  0  0  0  0  0  0  0  0  0
  -30.3190   12.8410  -21.1490 C   0  0  0  0  0  0  0  0  0  0  0  0
  -30.0400   13.9620  -20.3810 C   0  0  0  0  0  0  0  0  0  0  0  0
  -28.7280   14.3830  -20.2210 C   0  0  0  0  0  0  0  0  0  0  0  0
  -25.4540   13.0970  -20.3080 C   0  0  0  0  0  0  0  0  0  0  0  0
  -26.4130   14.0920  -20.6740 O   0  0  0  0  0  0  0  0  0  0  0  0
  -31.0520   14.6470  -19.7860 O   0  0  0  0  0  0  0  0  0  0  0  0
  -31.0940   16.0590  -20.0030 C   0  0  0  0  0  0  0  0  0  0  0  0
  1 20  1  0  0  0  0
  1  4  1  0  0  0  0
  2  1  2  0  0  0  0
  3  1  2  0  0  0  0
  4 10  1  0  0  0  0
  4  5  1  0  0  0  0
  5  6  1  0  0  0  0
  6  7  1  0  0  0  0
  7  8  1  0  0  0  0
  7 11  1  0  0  0  0
  9  7  1  0  0  0  0
 10  9  1  0  0  0  0
 11 12  1  0  0  0  0
 12 13  1  0  0  0  0
 13 15  1  0  0  0  0
 13 14  1  0  0  0  0
 13 16  1  0  0  0  0
 17 24  1  0  0  0  0
 17 22  2  0  0  0  0
 18 17  1  0  0  0  0
 19 18  2  0  0  0  0
 19 20  1  0  0  0  0
 20 21  2  0  0  0  0
 21 22  1  0  0  0  0
 21 25  1  0  0  0  0
 24 23  1  0  0  0  0
 26 25  1  0  0  0  0
M  END
>  <MODEL>
1

>  <REMARK>
 VINA RESULT:      -6.3      0.000      0.000
  Name = ZINC22791525
                            x       y       z     vdW  Elec       q    Type
                         _______ _______ _______ _____ _____    ______ ____

>  <TORSDO>
F 7

>  <vina_score>
-6.3

$$$$
ZINC01871948
 OpenBabel01081722293D

 24 25  0  0  1  0  0  0  0  0999 V2000
  -26.7890   13.0390  -18.5000 C   0  0  0  0  0  0  0  0  0  0  0  0
  -27.7350   14.1330  -18.9250 C   0  0  0  0  0  0  0  0  0  0  0  0
  -29.0330   13.8500  -19.1560 N   0  0  0  0  0  0  0  0  0  0  0  0
  -29.6050   12.6050  -19.0370 C   0  0  0  0  0  0  0  0  0  0  0  0
  -30.9100   12.6720  -19.3390 C   0  0  0  0  0  0  0  0  0  0  0  0
  -31.2040   14.0690  -19.6780 C   0  0  0  0  0  0  0  0  0  0  0  0
  -32.3600   14.7460  -20.0680 C   0  0  0  0  0  0  0  0  0  0  0  0
  -32.3030   16.0990  -20.3220 C   0  0  0  0  0  0  0  0  0  0  0  0
  -31.1060   16.7860  -20.1980 C   0  0  0  0  0  0  0  0  0  0  0  0
  -29.9560   16.1310  -19.8090 C   0  0  0  0  0  0  0  0  0  0  0  0
  -29.9920   14.7670  -19.5480 C   0  0  0  0  0  0  0  0  0  0  0  0
  -27.3290   15.2660  -19.0580 O   0  0  0  0  0  0  0  0  0  0  0  0
  -31.8900   11.5280  -19.3300 C   0  0  2  0  0  0  0  0  0  0  0  0
  -32.3330   11.0980  -21.0360 S   0  0  0  0  0  0  0  0  0  0  0  0
  -31.0230   11.8600  -22.0340 C   0  0  0  0  0  0  0  0  0  0  0  0
  -29.9780   10.8030  -22.3950 C   0  0  0  0  0  0  0  0  0  0  0  0
  -28.6800   11.4660  -22.6120 N   0  0  0  0  0  0  0  0  0  0  0  0
  -28.5990   11.7440  -23.5900 H   0  0  0  0  0  0  0  0  0  0  0  0
  -28.6160   12.2930  -22.0180 H   0  0  0  0  0  0  0  0  0  0  0  0
  -27.9260   10.8210  -22.3780 H   0  0  0  0  0  0  0  0  0  0  0  0
  -33.1480   11.9390  -18.5640 C   0  0  0  0  0  0  0  0  0  0  0  0
  -32.8270   12.0960  -17.1430 N   0  0  0  0  0  0  0  0  0  0  0  0
  -33.0620   13.1490  -16.5780 O   0  0  0  0  0  0  0  0  0  0  0  0
  -32.3240   11.1720  -16.5270 O   0  0  0  0  0  0  0  0  0  0  0  0
  2  1  1  0  0  0  0
  3  4  1  0  0  0  0
  3  2  1  0  0  0  0
  5 13  1  0  0  0  0
  5  4  2  0  0  0  0
  6 11  1  0  0  0  0
  6  5  1  0  0  0  0
  7  6  2  0  0  0  0
  8  9  2  0  0  0  0
  8  7  1  0  0  0  0
  9 10  1  0  0  0  0
 10 11  2  0  0  0  0
 11  3  1  0  0  0  0
 12  2  2  0  0  0  0
 13 14  1  6  0  0  0
 13 21  1  0  0  0  0
 15 14  1  0  0  0  0
 16 15  1  0  0  0  0
 17 16  1  0  0  0  0
 17 20  1  0  0  0  0
 17 19  1  0  0  0  0
 18 17  1  0  0  0  0
 21 22  1  0  0  0  0
 22 23  2  0  0  0  0
 22 24  2  0  0  0  0
M  END
>  <MODEL>
1

>  <REMARK>
 VINA RESULT:      -6.3      0.000      0.000
  Name = ZINC01871948
                            x       y       z     vdW  Elec       q    Type
                         _______ _______ _______ _____ _____    ______ ____

>  <TORSDO>
F 7

>  <vina_score>
-6.3

$$$$
ZINC31819625
 OpenBabel01081722293D

 26 27  0  0  1  0  0  0  0  0999 V2000
  -30.9760   12.1620  -17.5820 S   0  0  0  0  0  0  0  0  0  0  0  0
  -29.6760   13.2070  -18.1500 C   0  0  0  0  0  0  0  0  0  0  0  0
  -29.9760   14.3980  -18.6470 N   0  0  0  0  0  0  0  0  0  0  0  0
  -30.9180   14.6810  -18.6970 H   0  0  0  0  0  0  0  0  0  0  0  0
  -29.0200   15.2170  -19.0820 C   0  0  1  0  0  0  0  0  0  0  0  0
  -27.6930   14.8020  -19.0180 C   0  0  0  0  0  0  0  0  0  0  0  0
  -27.4170   13.5420  -18.4940 C   0  0  0  0  0  0  0  0  0  0  0  0
  -28.4240   12.7800  -18.0740 N   0  0  0  0  0  0  0  0  0  0  0  0
  -29.3420   16.4630  -19.5940 N   0  0  0  0  0  0  0  0  0  0  0  0
  -29.7950   17.1270  -19.0260 H   0  0  0  0  0  0  0  0  0  0  0  0
  -29.1190   16.6850  -20.5270 H   0  0  0  0  0  0  0  0  0  0  0  0
  -26.1100   13.0870  -18.4100 N   0  0  0  0  0  0  0  0  0  0  0  0
  -25.3830   13.7150  -18.1970 H   0  0  0  0  0  0  0  0  0  0  0  0
  -25.9100   12.1350  -18.5640 H   0  0  0  0  0  0  0  0  0  0  0  0
  -32.4120   13.1400  -18.0930 C   0  0  0  0  0  0  0  0  0  0  0  0
  -33.0410   12.5100  -19.3090 C   0  0  0  0  0  0  0  0  0  0  0  0
  -33.7650   11.5520  -19.1860 O   0  0  0  0  0  0  0  0  0  0  0  0
  -32.7650   13.0760  -20.6780 C   0  0  2  0  0  0  0  0  0  0  0  0
  -27.9820   12.6410  -22.0810 C   0  0  0  0  0  0  0  0  0  0  0  0
  -29.3850   12.1090  -21.9440 C   0  0  0  0  0  0  0  0  0  0  0  0
  -29.7040   10.8640  -22.3820 C   0  0  0  0  0  0  0  0  0  0  0  0
  -31.4410   10.8030  -21.9640 S   0  0  0  0  0  0  0  0  0  0  0  0
  -31.5610   12.3900  -21.2720 C   0  0  0  0  0  0  0  0  0  0  0  0
  -30.3350   12.8430  -21.4020 N   0  0  0  0  0  0  0  0  0  0  0  0
  -32.5040   14.5200  -20.5690 C   0  0  0  0  0  0  0  0  0  0  0  0
  -32.3030   15.6340  -20.4840 N   0  0  0  0  0  0  0  0  0  0  0  0
  2  8  2  0  0  0  0
  2  1  1  0  0  0  0
  3  2  1  0  0  0  0
  4  3  1  0  0  0  0
  5  9  1  6  0  0  0
  5  6  1  0  0  0  0
  5  3  1  0  0  0  0
  6  7  2  0  0  0  0
  7 12  1  0  0  0  0
  7  8  1  0  0  0  0
  9 10  1  0  0  0  0
 11  9  1  0  0  0  0
 12 13  1  0  0  0  0
 14 12  1  0  0  0  0
 15  1  1  0  0  0  0
 16 17  2  0  0  0  0
 16 15  1  0  0  0  0
 18 23  1  1  0  0  0
 18 25  1  0  0  0  0
 18 16  1  0  0  0  0
 19 20  1  0  0  0  0
 20 24  1  0  0  0  0
 21 22  1  0  0  0  0
 21 20  2  0  0  0  0
 22 23  1  0  0  0  0
 24 23  2  0  0  0  0
 25 26  3  0  0  0  0
M  END
>  <MODEL>
1

>  <REMARK>
 VINA RESULT:      -6.3      0.000      0.000
  Name = ZINC31819625
                            x       y       z     vdW  Elec       q    Type
                         _______ _______ _______ _____ _____    ______ ____

>  <TORSDO>
F 8

>  <vina_score>
-6.3

$$$$
ZINC04650547
 OpenBabel01081722073D

 25 25  0  0  1  0  0  0  0  0999 V2000
  -32.0590   16.4610  -20.3600 C   0  0  0  0  0  0  0  0  0  0  0  0
  -31.0640   15.5410  -19.7010 C   0  0  0  0  0  0  0  0  0  0  0  0
  -30.0540   15.9920  -19.2160 O   0  0  0  0  0  0  0  0  0  0  0  0
  -31.3290   14.0580  -19.6490 C   0  0  2  0  0  0  0  0  0  0  0  0
  -32.1500   13.6260  -20.8460 C   0  0  0  0  0  0  0  0  0  0  0  0
  -33.2590   14.0040  -21.1370 O   0  0  0  0  0  0  0  0  0  0  0  0
  -31.3170   12.6410  -21.5920 C   0  0  0  0  0  0  0  0  0  0  0  0
  -31.6650   12.0820  -22.6120 O   0  0  0  0  0  0  0  0  0  0  0  0
  -30.1340   12.4570  -20.9930 N   0  0  0  0  0  0  0  0  0  0  0  0
  -30.6850   13.4420  -18.3960 C   0  0  0  0  0  0  0  0  0  0  0  0
  -31.7370   12.7660  -17.5560 C   0  0  0  0  0  0  0  0  0  0  0  0
  -31.9820   11.4160  -17.7220 C   0  0  0  0  0  0  0  0  0  0  0  0
  -32.9490   10.8040  -16.9400 C   0  0  0  0  0  0  0  0  0  0  0  0
  -33.6460   11.5780  -16.0260 C   0  0  0  0  0  0  0  0  0  0  0  0
  -33.3520   12.9230  -15.9190 C   0  0  0  0  0  0  0  0  0  0  0  0
  -32.4210   13.4720  -16.6760 N   0  0  0  0  0  0  0  0  0  0  0  0
  -29.0910   11.5550  -21.4870 C   0  0  0  0  0  0  0  0  0  0  0  0
  -28.0540   12.3560  -22.2770 C   0  0  0  0  0  0  0  0  0  0  0  0
  -26.8640   12.5710  -21.4330 N   0  0  0  0  0  0  0  0  0  0  0  0
  -26.9160   11.9560  -20.6210 H   0  0  0  0  0  0  0  0  0  0  0  0
  -26.0250   12.3630  -21.9750 H   0  0  0  0  0  0  0  0  0  0  0  0
  -26.8100   13.9720  -20.9720 C   0  0  0  0  0  0  0  0  0  0  0  0
  -27.4160   14.0620  -19.5690 C   0  0  0  0  0  0  0  0  0  0  0  0
  -27.0420   15.3020  -18.9670 O   0  0  0  0  0  0  0  0  0  0  0  0
  -26.2720   15.6670  -19.4320 H   0  0  0  0  0  0  0  0  0  0  0  0
  1  2  1  0  0  0  0
  2  4  1  0  0  0  0
  2  3  2  0  0  0  0
  4  5  1  1  0  0  0
  4 10  1  0  0  0  0
  6  5  2  0  0  0  0
  7  9  1  0  0  0  0
  7  5  1  0  0  0  0
  8  7  2  0  0  0  0
 10 11  1  0  0  0  0
 11 16  1  0  0  0  0
 12 11  2  0  0  0  0
 12 13  1  0  0  0  0
 13 14  2  0  0  0  0
 14 15  1  0  0  0  0
 16 15  2  0  0  0  0
 17  9  1  0  0  0  0
 18 17  1  0  0  0  0
 18 19  1  0  0  0  0
 19 22  1  0  0  0  0
 19 20  1  0  0  0  0
 21 19  1  0  0  0  0
 22 23  1  0  0  0  0
 23 24  1  0  0  0  0
 25 24  1  0  0  0  0
M  END
>  <MODEL>
1

>  <REMARK>
 VINA RESULT:      -6.3      0.000      0.000
  Name = ZINC04650547
                            x       y       z     vdW  Elec       q    Type
                         _______ _______ _______ _____ _____    ______ ____

>  <TORSDO>
F 7

>  <vina_score>
-6.3

$$$$
ZINC06223307
 OpenBabel01081722073D

 22 23  0  0  0  0  0  0  0  0999 V2000
  -29.9150   14.1080  -17.9000 N   0  0  0  0  0  0  0  0  0  0  0  0
  -30.4670   12.9350  -17.8610 C   0  0  0  0  0  0  0  0  0  0  0  0
  -31.5740   12.6160  -18.7700 C   0  0  0  0  0  0  0  0  0  0  0  0
  -31.3370   12.0220  -20.0110 C   0  0  0  0  0  0  0  0  0  0  0  0
  -30.0810   11.7300  -20.3980 O   0  0  0  0  0  0  0  0  0  0  0  0
  -32.3960   11.7420  -20.8250 N   0  0  0  0  0  0  0  0  0  0  0  0
  -32.2330   11.3230  -21.7010 H   0  0  0  0  0  0  0  0  0  0  0  0
  -33.6550   12.0260  -20.4550 C   0  0  0  0  0  0  0  0  0  0  0  0
  -33.9430   12.5980  -19.2740 N   0  0  0  0  0  0  0  0  0  0  0  0
  -34.8800   12.7950  -19.0430 H   0  0  0  0  0  0  0  0  0  0  0  0
  -34.5650   11.7580  -21.2150 O   0  0  0  0  0  0  0  0  0  0  0  0
  -32.9630   12.9050  -18.3990 C   0  0  0  0  0  0  0  0  0  0  0  0
  -33.2260   13.4180  -17.3260 O   0  0  0  0  0  0  0  0  0  0  0  0
  -28.8090   14.4270  -16.9920 C   0  0  0  0  0  0  0  0  0  0  0  0
  -27.4770   14.1820  -17.7050 C   0  0  0  0  0  0  0  0  0  0  0  0
  -27.4130   15.0350  -18.9740 C   0  0  0  0  0  0  0  0  0  0  0  0
  -27.7690   13.4020  -22.1560 C   0  0  0  0  0  0  0  0  0  0  0  0
  -27.9830   14.4440  -21.3290 C   0  0  0  0  0  0  0  0  0  0  0  0
  -27.4110   14.1600  -20.1490 N   0  0  0  0  0  0  0  0  0  0  0  0
  -26.8460   12.9860  -20.2160 C   0  0  0  0  0  0  0  0  0  0  0  0
  -27.0500   12.4760  -21.4490 N   0  0  0  0  0  0  0  0  0  0  0  0
  -26.7410   11.6020  -21.7790 H   0  0  0  0  0  0  0  0  0  0  0  0
  1  2  2  0  0  0  0
  1 14  1  0  0  0  0
  3 12  1  0  0  0  0
  3  2  1  0  0  0  0
  4  3  1  0  0  0  0
  5  4  2  0  0  0  0
  6  8  1  0  0  0  0
  6  4  1  0  0  0  0
  7  6  1  0  0  0  0
  8  9  1  0  0  0  0
  9 10  1  0  0  0  0
  9 12  1  0  0  0  0
 11  8  2  0  0  0  0
 12 13  2  0  0  0  0
 15 14  1  0  0  0  0
 16 15  1  0  0  0  0
 17 21  1  0  0  0  0
 17 18  2  0  0  0  0
 18 19  1  0  0  0  0
 19 16  1  0  0  0  0
 20 19  1  0  0  0  0
 21 20  1  0  0  0  0
 22 21  1  0  0  0  0
M  END
>  <MODEL>
1

>  <REMARK>
 VINA RESULT:      -6.3      0.000      0.000
  Name = ZINC06223307
                            x       y       z     vdW  Elec       q    Type
                         _______ _______ _______ _____ _____    ______ ____

>  <TORSDO>
F 5

>  <vina_score>
-6.3

$$$$
ZINC01731877
 OpenBabel01081722093D

 22 22  0  0  0  0  0  0  0  0999 V2000
  -32.1110   14.7530  -20.0830 N   0  0  0  0  0  0  0  0  0  0  0  0
  -32.8600   15.2390  -19.6650 H   0  0  0  0  0  0  0  0  0  0  0  0
  -32.3400   13.5700  -20.7310 C   0  0  0  0  0  0  0  0  0  0  0  0
  -31.6350   13.3360  -21.8170 N   0  0  0  0  0  0  0  0  0  0  0  0
  -31.7640   12.4990  -22.3170 H   0  0  0  0  0  0  0  0  0  0  0  0
  -30.9780   14.0000  -22.1290 H   0  0  0  0  0  0  0  0  0  0  0  0
  -33.3620   12.6010  -20.1950 C   0  0  0  0  0  0  0  0  0  0  0  0
  -32.5300   11.3220  -19.2150 S   0  0  0  0  0  0  0  0  0  0  0  0
  -32.5410   12.0720  -17.3080 S   0  0  0  0  0  0  0  0  0  0  0  0
  -33.4220   11.1570  -16.4690 O   0  0  0  0  0  0  0  0  0  0  0  0
  -33.2050   13.3280  -17.3690 O   0  0  0  0  0  0  0  0  0  0  0  0
  -31.2190   11.9330  -16.8080 O   0  0  0  0  0  0  0  0  0  0  0  0
  -30.7530   15.2980  -20.0080 C   0  0  0  0  0  0  0  0  0  0  0  0
  -30.0110   14.6590  -18.8320 C   0  0  0  0  0  0  0  0  0  0  0  0
  -27.8530   13.4590  -18.4260 C   0  0  0  0  0  0  0  0  0  0  0  0
  -26.6750   12.8930  -18.8740 C   0  0  0  0  0  0  0  0  0  0  0  0
  -26.3710   12.9080  -20.2280 C   0  0  0  0  0  0  0  0  0  0  0  0
  -27.2520   13.4920  -21.1270 C   0  0  0  0  0  0  0  0  0  0  0  0
  -28.4270   14.0580  -20.6740 C   0  0  0  0  0  0  0  0  0  0  0  0
  -28.7270   14.0420  -19.3250 C   0  0  0  0  0  0  0  0  0  0  0  0
  -25.2130   12.3510  -20.6720 O   0  0  0  0  0  0  0  0  0  0  0  0
  -24.9180   12.5190  -21.5450 H   0  0  0  0  0  0  0  0  0  0  0  0
  1 13  1  0  0  0  0
  1  2  1  0  0  0  0
  3  7  1  0  0  0  0
  3  1  1  0  0  0  0
  4  3  2  0  0  0  0
  5  4  1  0  0  0  0
  6  4  1  0  0  0  0
  7  8  1  0  0  0  0
  8  9  1  0  0  0  0
  9 12  2  0  0  0  0
  9 10  1  0  0  0  0
 11  9  2  0  0  0  0
 13 14  1  0  0  0  0
 16 15  1  0  0  0  0
 17 16  2  0  0  0  0
 18 19  2  0  0  0  0
 18 17  1  0  0  0  0
 19 20  1  0  0  0  0
 20 14  1  0  0  0  0
 20 15  2  0  0  0  0
 21 17  1  0  0  0  0
 22 21  1  0  0  0  0
M  END
>  <MODEL>
1

>  <REMARK>
 VINA RESULT:      -6.3      0.000      0.000
  Name = ZINC01731877
                            x       y       z     vdW  Elec       q    Type
                         _______ _______ _______ _____ _____    ______ ____

>  <TORSDO>
F 8

>  <vina_score>
-6.3

$$$$
ZINC04340004
 OpenBabel01081722133D

 22 23  0  0  1  0  0  0  0  0999 V2000
  -30.7830   12.9320  -17.4260 N   0  0  0  0  0  0  0  0  0  0  0  0
  -30.0580   12.2310  -17.2700 H   0  0  0  0  0  0  0  0  0  0  0  0
  -31.3270   13.0670  -16.5750 H   0  0  0  0  0  0  0  0  0  0  0  0
  -31.6760   12.4660  -18.5050 C   0  0  1  0  0  0  0  0  0  0  0  0
  -31.6940   13.5090  -19.6590 C   0  0  0  0  0  0  0  0  0  0  0  0
  -32.3100   12.4670  -21.0480 S   0  0  0  0  0  0  0  0  0  0  0  0
  -31.8690   10.8040  -20.4000 C   0  0  0  0  0  0  0  0  0  0  0  0
  -31.5320   12.7350  -22.2060 O   0  0  0  0  0  0  0  0  0  0  0  0
  -33.7250   12.5760  -21.1160 O   0  0  0  0  0  0  0  0  0  0  0  0
  -31.1460   11.1380  -19.0720 C   0  0  1  0  0  0  0  0  0  0  0  0
  -29.7410   11.2500  -19.3110 O   0  0  0  0  0  0  0  0  0  0  0  0
  -29.5930   11.6750  -20.1710 H   0  0  0  0  0  0  0  0  0  0  0  0
  -30.1440   14.2070  -17.8040 C   0  0  0  0  0  0  0  0  0  0  0  0
  -28.6600   14.1530  -17.4370 C   0  0  0  0  0  0  0  0  0  0  0  0
  -27.9170   15.2860  -18.1470 C   0  0  0  0  0  0  0  0  0  0  0  0
  -28.2420   14.6660  -20.4660 C   0  0  0  0  0  0  0  0  0  0  0  0
  -27.2660   14.7440  -19.3590 N   0  0  0  0  0  0  0  0  0  0  0  0
  -26.5040   15.3650  -19.6320 H   0  0  0  0  0  0  0  0  0  0  0  0
  -26.7150   13.4010  -19.0790 C   0  0  0  0  0  0  0  0  0  0  0  0
  -26.0180   12.8830  -20.3390 C   0  0  0  0  0  0  0  0  0  0  0  0
  -26.9540   12.8590  -21.4200 O   0  0  0  0  0  0  0  0  0  0  0  0
  -27.5290   14.1350  -21.7120 C   0  0  0  0  0  0  0  0  0  0  0  0
  1  2  1  0  0  0  0
  1  3  1  0  0  0  0
  4  1  1  1  0  0  0
  5  4  1  0  0  0  0
  6  7  1  0  0  0  0
  6  5  1  0  0  0  0
  7 10  1  0  0  0  0
  8  6  2  0  0  0  0
  9  6  2  0  0  0  0
 10 11  1  6  0  0  0
 10  4  1  0  0  0  0
 12 11  1  0  0  0  0
 13 14  1  0  0  0  0
 13  1  1  0  0  0  0
 15 14  1  0  0  0  0
 16 17  1  0  0  0  0
 17 19  1  0  0  0  0
 17 15  1  0  0  0  0
 18 17  1  0  0  0  0
 20 19  1  0  0  0  0
 21 20  1  0  0  0  0
 22 21  1  0  0  0  0
 22 16  1  0  0  0  0
M  END
>  <MODEL>
1

>  <REMARK>
 VINA RESULT:      -6.2      0.000      0.000
  Name = ZINC04340004
                            x       y       z     vdW  Elec       q    Type
                         _______ _______ _______ _____ _____    ______ ____

>  <TORSDO>
F 6

>  <vina_score>
-6.2

$$$$
ZINC05998325
 OpenBabel01081722143D

 25 26  0  0  1  0  0  0  0  0999 V2000
  -30.0440   14.8490  -19.2030 O   0  0  0  0  0  0  0  0  0  0  0  0
  -33.6870   12.8300  -19.5150 C   0  0  1  0  0  0  0  0  0  0  0  0
  -32.6390   12.2050  -18.5910 C   0  0  1  0  0  0  0  0  0  0  0  0
  -31.5890   13.2630  -18.2310 C   0  0  2  0  0  0  0  0  0  0  0  0
  -30.9730   13.8110  -19.5210 C   0  0  1  0  0  0  0  0  0  0  0  0
  -32.0850   14.3740  -20.4100 C   0  0  0  0  0  0  0  0  0  0  0  0
  -33.0420   13.3490  -20.6810 O   0  0  0  0  0  0  0  0  0  0  0  0
  -34.1040   10.8180  -20.7480 C   0  0  0  0  0  0  0  0  0  0  0  0
  -34.6380   11.8360  -19.9000 O   0  0  0  0  0  0  0  0  0  0  0  0
  -33.2740   11.7360  -17.4000 O   0  0  0  0  0  0  0  0  0  0  0  0
  -32.9840   12.2740  -16.6450 H   0  0  0  0  0  0  0  0  0  0  0  0
  -30.5670   12.6690  -17.4280 O   0  0  0  0  0  0  0  0  0  0  0  0
  -29.9820   13.3630  -17.0850 H   0  0  0  0  0  0  0  0  0  0  0  0
  -28.7140   14.6010  -19.6640 C   0  0  1  0  0  0  0  0  0  0  0  0
  -27.8830   14.0020  -18.5280 C   0  0  1  0  0  0  0  0  0  0  0  0
  -26.4770   13.6830  -19.0470 C   0  0  2  0  0  0  0  0  0  0  0  0
  -26.5890   12.7390  -20.2480 C   0  0  1  0  0  0  0  0  0  0  0  0
  -27.4710   13.3880  -21.3170 C   0  0  0  0  0  0  0  0  0  0  0  0
  -28.7530   13.6850  -20.7600 O   0  0  0  0  0  0  0  0  0  0  0  0
  -27.7950   14.9390  -17.4540 O   0  0  0  0  0  0  0  0  0  0  0  0
  -28.4680   15.6280  -17.5700 H   0  0  0  0  0  0  0  0  0  0  0  0
  -25.7170   13.0550  -18.0140 O   0  0  0  0  0  0  0  0  0  0  0  0
  -25.0180   13.6570  -17.7130 H   0  0  0  0  0  0  0  0  0  0  0  0
  -25.2890   12.4910  -20.7840 O   0  0  0  0  0  0  0  0  0  0  0  0
  -25.2930   12.6710  -21.7380 H   0  0  0  0  0  0  0  0  0  0  0  0
  2  9  1  6  0  0  0
  2  3  1  0  0  0  0
  3  4  1  0  0  0  0
  3 10  1  1  0  0  0
  4 12  1  1  0  0  0
  5  1  1  1  0  0  0
  5  4  1  0  0  0  0
  6  5  1  0  0  0  0
  7  6  1  0  0  0  0
  7  2  1  0  0  0  0
  8  9  1  0  0  0  0
 10 11  1  0  0  0  0
 12 13  1  0  0  0  0
 14  1  1  1  0  0  0
 14 15  1  0  0  0  0
 15 20  1  1  0  0  0
 16 15  1  0  0  0  0
 16 22  1  1  0  0  0
 17 24  1  6  0  0  0
 17 16  1  0  0  0  0
 18 19  1  0  0  0  0
 18 17  1  0  0  0  0
 19 14  1  0  0  0  0
 21 20  1  0  0  0  0
 22 23  1  0  0  0  0
 25 24  1  0  0  0  0
M  END
>  <MODEL>
1

>  <REMARK>
 VINA RESULT:      -6.2      0.000      0.000
  Name = ZINC05998325
                            x       y       z     vdW  Elec       q    Type
                         _______ _______ _______ _____ _____    ______ ____

>  <TORSDO>
F 8

>  <vina_score>
-6.2

$$$$
ZINC02309206
 OpenBabel01081722173D

 22 22  0  0  0  0  0  0  0  0999 V2000
  -29.1170   12.2810  -21.2710 C   0  0  0  0  0  0  0  0  0  0  0  0
  -30.2460   12.1340  -20.4870 C   0  0  0  0  0  0  0  0  0  0  0  0
  -30.1500   11.8430  -19.0460 C   0  0  0  0  0  0  0  0  0  0  0  0
  -31.2940   11.7100  -18.3440 N   0  0  0  0  0  0  0  0  0  0  0  0
  -31.2470   11.5120  -17.3810 H   0  0  0  0  0  0  0  0  0  0  0  0
  -32.4920   11.8430  -18.9270 C   0  0  0  0  0  0  0  0  0  0  0  0
  -32.6550   12.1010  -20.2330 N   0  0  0  0  0  0  0  0  0  0  0  0
  -34.0110   12.2210  -20.7750 C   0  0  0  0  0  0  0  0  0  0  0  0
  -33.4860   11.7180  -18.2370 O   0  0  0  0  0  0  0  0  0  0  0  0
  -29.0660   11.7250  -18.5030 O   0  0  0  0  0  0  0  0  0  0  0  0
  -31.6000   12.2590  -21.0570 C   0  0  0  0  0  0  0  0  0  0  0  0
  -31.7600   12.4990  -22.2390 O   0  0  0  0  0  0  0  0  0  0  0  0
  -27.8960   12.2880  -20.7000 N   0  0  0  0  0  0  0  0  0  0  0  0
  -27.5010   11.4470  -20.3730 H   0  0  0  0  0  0  0  0  0  0  0  0
  -27.1570   13.5450  -20.5630 C   0  0  0  0  0  0  0  0  0  0  0  0
  -28.0670   14.7160  -20.9420 C   0  0  0  0  0  0  0  0  0  0  0  0
  -28.3940   15.4910  -19.7380 N   0  0  0  0  0  0  0  0  0  0  0  0
  -28.0810   16.4500  -19.8870 H   0  0  0  0  0  0  0  0  0  0  0  0
  -30.4210   16.8290  -20.0450 C   0  0  0  0  0  0  0  0  0  0  0  0
  -29.8440   15.5190  -19.5060 C   0  0  0  0  0  0  0  0  0  0  0  0
  -27.6840   14.9640  -18.5640 C   0  0  0  0  0  0  0  0  0  0  0  0
  -28.6330   14.9320  -17.3650 C   0  0  0  0  0  0  0  0  0  0  0  0
  1 13  1  0  0  0  0
  1  2  2  0  0  0  0
  2  3  1  0  0  0  0
  3 10  2  0  0  0  0
  3  4  1  0  0  0  0
  4  5  1  0  0  0  0
  6  4  1  0  0  0  0
  6  9  2  0  0  0  0
  7  6  1  0  0  0  0
  8  7  1  0  0  0  0
 11  2  1  0  0  0  0
 11  7  1  0  0  0  0
 12 11  2  0  0  0  0
 13 15  1  0  0  0  0
 13 14  1  0  0  0  0
 16 15  1  0  0  0  0
 16 17  1  0  0  0  0
 17 20  1  0  0  0  0
 17 21  1  0  0  0  0
 18 17  1  0  0  0  0
 19 20  1  0  0  0  0
 21 22  1  0  0  0  0
M  END
>  <MODEL>
1

>  <REMARK>
 VINA RESULT:      -6.2      0.000      0.000
  Name = ZINC02309206
                            x       y       z     vdW  Elec       q    Type
                         _______ _______ _______ _____ _____    ______ ____

>  <TORSDO>
F 6

>  <vina_score>
-6.2

$$$$
ZINC05499507
 OpenBabel01081722173D

 25 26  0  0  1  0  0  0  0  0999 V2000
  -30.6370   12.2460  -17.9980 C   0  0  0  0  0  0  0  0  0  0  0  0
  -29.4230   12.9670  -18.3900 N   0  0  0  0  0  0  0  0  0  0  0  0
  -28.6460   13.7380  -17.5780 C   0  0  0  0  0  0  0  0  0  0  0  0
  -27.6480   14.2290  -18.2540 N   0  0  0  0  0  0  0  0  0  0  0  0
  -27.7210   13.8050  -19.5390 C   0  0  0  0  0  0  0  0  0  0  0  0
  -26.9440   14.0050  -20.6920 C   0  0  0  0  0  0  0  0  0  0  0  0
  -27.3220   13.4160  -21.8220 N   0  0  0  0  0  0  0  0  0  0  0  0
  -28.4030   12.6590  -21.8690 C   0  0  0  0  0  0  0  0  0  0  0  0
  -29.1610   12.4430  -20.8150 N   0  0  0  0  0  0  0  0  0  0  0  0
  -28.8620   12.9900  -19.6410 C   0  0  0  0  0  0  0  0  0  0  0  0
  -25.8100   14.7980  -20.6520 N   0  0  0  0  0  0  0  0  0  0  0  0
  -25.1450   14.6700  -19.9370 H   0  0  0  0  0  0  0  0  0  0  0  0
  -25.6690   15.4910  -21.3360 H   0  0  0  0  0  0  0  0  0  0  0  0
  -31.7330   13.2510  -17.6370 C   0  0  2  0  0  0  0  0  0  0  0  0
  -32.3960   12.8240  -16.4450 O   0  0  0  0  0  0  0  0  0  0  0  0
  -33.3480   12.7510  -16.6140 H   0  0  0  0  0  0  0  0  0  0  0  0
  -32.7440   13.3350  -18.7820 C   0  0  0  0  0  0  0  0  0  0  0  0
  -32.0330   13.7490  -20.0100 N   0  0  0  0  0  0  0  0  0  0  0  0
  -31.0360   13.5710  -19.8920 H   0  0  0  0  0  0  0  0  0  0  0  0
  -30.9140   15.9230  -20.0110 C   0  0  0  0  0  0  0  0  0  0  0  0
  -32.2380   15.1930  -20.2500 C   0  0  0  0  0  0  0  0  0  0  0  0
  -32.5250   12.9710  -21.1660 C   0  0  0  0  0  0  0  0  0  0  0  0
  -33.5590   11.9560  -20.6730 C   0  0  0  0  0  0  0  0  0  0  0  0
  -34.8490   12.3080  -21.1810 O   0  0  0  0  0  0  0  0  0  0  0  0
  -35.4090   12.6180  -20.4530 H   0  0  0  0  0  0  0  0  0  0  0  0
  1 14  1  0  0  0  0
  2  1  1  0  0  0  0
  2  3  1  0  0  0  0
  4  3  2  0  0  0  0
  5  4  1  0  0  0  0
  6 11  1  0  0  0  0
  6  5  2  0  0  0  0
  7  6  1  0  0  0  0
  8  7  2  0  0  0  0
  8  9  1  0  0  0  0
  9 10  2  0  0  0  0
 10  5  1  0  0  0  0
 10  2  1  0  0  0  0
 11 12  1  0  0  0  0
 13 11  1  0  0  0  0
 14 17  1  6  0  0  0
 14 15  1  0  0  0  0
 16 15  1  0  0  0  0
 18 19  1  0  0  0  0
 18 17  1  0  0  0  0
 21 20  1  0  0  0  0
 21 18  1  0  0  0  0
 22 23  1  0  0  0  0
 22 18  1  0  0  0  0
 24 23  1  0  0  0  0
 24 25  1  0  0  0  0
M  END
>  <MODEL>
1

>  <REMARK>
 VINA RESULT:      -6.2      0.000      0.000
  Name = ZINC05499507
                            x       y       z     vdW  Elec       q    Type
                         _______ _______ _______ _____ _____    ______ ____

>  <TORSDO>
F 10

>  <vina_score>
-6.2

$$$$
ZINC20407276
 OpenBabel01081722183D

 23 24  0  0  0  0  0  0  0  0999 V2000
  -30.9380   13.5920  -20.9090 C   0  0  0  0  0  0  0  0  0  0  0  0
  -29.7220   13.9470  -20.3930 N   0  0  0  0  0  0  0  0  0  0  0  0
  -28.7630   13.2070  -21.0230 C   0  0  0  0  0  0  0  0  0  0  0  0
  -29.3590   12.4270  -21.8920 N   0  0  0  0  0  0  0  0  0  0  0  0
  -30.7370   12.6670  -21.8170 N   0  0  0  0  0  0  0  0  0  0  0  0
  -31.4320   12.2180  -22.3500 H   0  0  0  0  0  0  0  0  0  0  0  0
  -32.1670   14.1130  -20.5350 N   0  0  0  0  0  0  0  0  0  0  0  0
  -32.5540   14.8690  -21.0340 H   0  0  0  0  0  0  0  0  0  0  0  0
  -32.2020   13.0640  -18.4430 C   0  0  0  0  0  0  0  0  0  0  0  0
  -32.8600   13.5650  -19.4480 N   0  0  0  0  0  0  0  0  0  0  0  0
  -34.9340   12.7080  -14.2580 C   0  0  0  0  0  0  0  0  0  0  0  0
  -34.1260   12.3250  -15.4710 C   0  0  0  0  0  0  0  0  0  0  0  0
  -33.8320   11.0660  -15.8540 C   0  0  0  0  0  0  0  0  0  0  0  0
  -33.0640   11.1600  -17.0300 C   0  0  0  0  0  0  0  0  0  0  0  0
  -32.9290   12.4900  -17.3050 C   0  0  0  0  0  0  0  0  0  0  0  0
  -33.5800   13.1820  -16.3500 O   0  0  0  0  0  0  0  0  0  0  0  0
  -27.0290   13.2870  -20.7210 S   0  0  0  0  0  0  0  0  0  0  0  0
  -26.8810   13.0200  -18.9340 C   0  0  0  0  0  0  0  0  0  0  0  0
  -27.5040   14.1780  -18.1990 C   0  0  0  0  0  0  0  0  0  0  0  0
  -27.3220   15.4360  -18.6470 N   0  0  0  0  0  0  0  0  0  0  0  0
  -27.7280   16.1940  -18.1660 H   0  0  0  0  0  0  0  0  0  0  0  0
  -26.7820   15.5990  -19.4550 H   0  0  0  0  0  0  0  0  0  0  0  0
  -28.1680   13.9790  -17.2050 O   0  0  0  0  0  0  0  0  0  0  0  0
  1  7  1  0  0  0  0
  1  2  2  0  0  0  0
  3 17  1  0  0  0  0
  3  2  1  0  0  0  0
  4  5  1  0  0  0  0
  4  3  2  0  0  0  0
  5  1  1  0  0  0  0
  6  5  1  0  0  0  0
  7 10  1  0  0  0  0
  8  7  1  0  0  0  0
  9 15  1  0  0  0  0
 10  9  2  0  0  0  0
 12 11  1  0  0  0  0
 13 12  2  0  0  0  0
 14 13  1  0  0  0  0
 15 14  2  0  0  0  0
 15 16  1  0  0  0  0
 16 12  1  0  0  0  0
 17 18  1  0  0  0  0
 18 19  1  0  0  0  0
 19 23  2  0  0  0  0
 20 19  1  0  0  0  0
 20 21  1  0  0  0  0
 22 20  1  0  0  0  0
M  END
>  <MODEL>
1

>  <REMARK>
 VINA RESULT:      -6.2      0.000      0.000
  Name = ZINC20407276
                            x       y       z     vdW  Elec       q    Type
                         _______ _______ _______ _____ _____    ______ ____

>  <TORSDO>
F 6

>  <vina_score>
-6.2

$$$$
ZINC17669880
 OpenBabel01081722183D

 25 26  0  0  0  0  0  0  0  0999 V2000
  -32.3460   11.4980  -18.2640 C   0  0  0  0  0  0  0  0  0  0  0  0
  -32.1100   11.9470  -19.6830 C   0  0  0  0  0  0  0  0  0  0  0  0
  -32.6240   13.0880  -20.1080 N   0  0  0  0  0  0  0  0  0  0  0  0
  -32.4140   13.4900  -21.3590 C   0  0  0  0  0  0  0  0  0  0  0  0
  -31.6950   12.7370  -22.1840 N   0  0  0  0  0  0  0  0  0  0  0  0
  -31.1840   11.5890  -21.7560 C   0  0  0  0  0  0  0  0  0  0  0  0
  -31.3940   11.1960  -20.5020 N   0  0  0  0  0  0  0  0  0  0  0  0
  -32.9460   14.6840  -21.7990 N   0  0  0  0  0  0  0  0  0  0  0  0
  -33.2940   15.3380  -21.1500 H   0  0  0  0  0  0  0  0  0  0  0  0
  -32.9780   14.8830  -22.7630 H   0  0  0  0  0  0  0  0  0  0  0  0
  -30.4370   10.8030  -22.6100 N   0  0  0  0  0  0  0  0  0  0  0  0
  -29.7730   10.1730  -22.2460 H   0  0  0  0  0  0  0  0  0  0  0  0
  -30.5680   10.8710  -23.5830 H   0  0  0  0  0  0  0  0  0  0  0  0
  -31.5610   12.6640  -17.1240 S   0  0  0  0  0  0  0  0  0  0  0  0
  -28.0210   12.6930  -18.8000 C   0  0  0  0  0  0  0  0  0  0  0  0
  -28.0350   13.8690  -19.5580 C   0  0  0  0  0  0  0  0  0  0  0  0
  -29.2010   14.6660  -19.5300 C   0  0  0  0  0  0  0  0  0  0  0  0
  -30.2300   14.2680  -18.7900 N   0  0  0  0  0  0  0  0  0  0  0  0
  -30.1670   13.1460  -18.0900 C   0  0  0  0  0  0  0  0  0  0  0  0
  -29.0880   12.3710  -18.0920 N   0  0  0  0  0  0  0  0  0  0  0  0
  -29.2700   15.8350  -20.2580 N   0  0  0  0  0  0  0  0  0  0  0  0
  -30.0550   16.0170  -20.8240 H   0  0  0  0  0  0  0  0  0  0  0  0
  -28.5340   16.4880  -20.2130 H   0  0  0  0  0  0  0  0  0  0  0  0
  -26.9000   14.2530  -20.3400 C   0  0  0  0  0  0  0  0  0  0  0  0
  -25.9980   14.5590  -20.9610 N   0  0  0  0  0  0  0  0  0  0  0  0
  1 14  1  0  0  0  0
  2  1  1  0  0  0  0
  3  2  1  0  0  0  0
  4  3  2  0  0  0  0
  5  6  2  0  0  0  0
  5  4  1  0  0  0  0
  6  7  1  0  0  0  0
  7  2  2  0  0  0  0
  8  4  1  0  0  0  0
  8  9  1  0  0  0  0
 10  8  1  0  0  0  0
 11 12  1  0  0  0  0
 11  6  1  0  0  0  0
 13 11  1  0  0  0  0
 15 20  2  0  0  0  0
 16 17  2  0  0  0  0
 16 15  1  0  0  0  0
 17 18  1  0  0  0  0
 18 19  2  0  0  0  0
 19 14  1  0  0  0  0
 20 19  1  0  0  0  0
 21 23  1  0  0  0  0
 21 17  1  0  0  0  0
 22 21  1  0  0  0  0
 24 16  1  0  0  0  0
 25 24  3  0  0  0  0
M  END
>  <MODEL>
1

>  <REMARK>
 VINA RESULT:      -6.2      0.000      0.000
  Name = ZINC17669880
                            x       y       z     vdW  Elec       q    Type
                         _______ _______ _______ _____ _____    ______ ____

>  <TORSDO>
F 7

>  <vina_score>
-6.2

$$$$
ZINC04226538
 OpenBabel01081722223D

 22 23  0  0  1  0  0  0  0  0999 V2000
  -30.1480   17.1730  -20.1960 C   0  0  0  0  0  0  0  0  0  0  0  0
  -30.3110   15.7290  -19.7970 C   0  0  0  0  0  0  0  0  0  0  0  0
  -31.4570   15.1280  -20.1910 N   0  0  0  0  0  0  0  0  0  0  0  0
  -32.1450   15.6050  -20.7090 H   0  0  0  0  0  0  0  0  0  0  0  0
  -31.6010   13.8070  -19.8230 C   0  0  0  0  0  0  0  0  0  0  0  0
  -32.7750   13.1400  -20.2090 C   0  0  0  0  0  0  0  0  0  0  0  0
  -32.9540   11.8140  -19.8560 C   0  0  2  0  0  0  0  0  0  0  0  0
  -31.9730   11.1320  -19.1170 C   0  0  0  0  0  0  0  0  0  0  0  0
  -30.8310   11.7610  -18.7350 C   0  0  0  0  0  0  0  0  0  0  0  0
  -30.6220   13.1060  -19.0790 C   0  0  0  0  0  0  0  0  0  0  0  0
  -29.4400   13.7840  -18.6930 C   0  0  0  0  0  0  0  0  0  0  0  0
  -29.3050   15.1130  -19.0620 C   0  0  0  0  0  0  0  0  0  0  0  0
  -34.1880   11.1080  -20.2600 C   0  0  0  0  0  0  0  0  0  0  0  0
  -35.1230   10.8030  -19.3390 O   0  0  0  0  0  0  0  0  0  0  0  0
  -34.3610   10.8030  -21.4240 O   0  0  0  0  0  0  0  0  0  0  0  0
  -28.4520   13.1410  -17.9630 N   0  0  0  0  0  0  0  0  0  0  0  0
  -28.6790   12.6910  -17.1180 H   0  0  0  0  0  0  0  0  0  0  0  0
  -27.0710   13.1310  -18.4510 C   0  0  0  0  0  0  0  0  0  0  0  0
  -27.0710   13.0420  -19.9790 C   0  0  0  0  0  0  0  0  0  0  0  0
  -25.7130   13.4990  -20.5170 C   0  0  0  0  0  0  0  0  0  0  0  0
  -25.7490   14.9050  -20.7690 O   0  0  0  0  0  0  0  0  0  0  0  0
  -25.5410   15.0710  -21.7020 H   0  0  0  0  0  0  0  0  0  0  0  0
  1  2  1  0  0  0  0
  2 12  2  0  0  0  0
  3  5  1  0  0  0  0
  3  2  1  0  0  0  0
  4  3  1  0  0  0  0
  5 10  1  0  0  0  0
  6  7  1  0  0  0  0
  6  5  2  0  0  0  0
  7 13  1  6  0  0  0
  7  8  1  0  0  0  0
  8  9  2  0  0  0  0
 10  9  1  0  0  0  0
 10 11  2  0  0  0  0
 11 16  1  0  0  0  0
 12 11  1  0  0  0  0
 13 14  1  0  0  0  0
 15 13  2  0  0  0  0
 16 17  1  0  0  0  0
 18 16  1  0  0  0  0
 19 18  1  0  0  0  0
 20 19  1  0  0  0  0
 21 20  1  0  0  0  0
 22 21  1  0  0  0  0
M  END
>  <MODEL>
1

>  <REMARK>
 VINA RESULT:      -6.2      0.000      0.000
  Name = ZINC04226538
                            x       y       z     vdW  Elec       q    Type
                         _______ _______ _______ _____ _____    ______ ____

>  <TORSDO>
F 6

>  <vina_score>
-6.2

$$$$
ZINC10315609
 OpenBabel01081722033D

 26 27  0  0  0  0  0  0  0  0999 V2000
  -27.8910   12.4420  -21.9770 N   0  0  0  0  0  0  0  0  0  0  0  0
  -27.1950   12.6670  -22.6890 H   0  0  0  0  0  0  0  0  0  0  0  0
  -27.4410   11.9900  -21.1810 H   0  0  0  0  0  0  0  0  0  0  0  0
  -28.5350   13.6910  -21.5260 C   0  0  0  0  0  0  0  0  0  0  0  0
  -27.0240   13.3680  -18.0810 C   0  0  0  0  0  0  0  0  0  0  0  0
  -27.8480   14.1870  -17.3290 C   0  0  0  0  0  0  0  0  0  0  0  0
  -28.8980   14.8510  -17.9290 C   0  0  0  0  0  0  0  0  0  0  0  0
  -29.1290   14.6940  -19.2970 C   0  0  0  0  0  0  0  0  0  0  0  0
  -28.2930   13.8660  -20.0500 C   0  0  0  0  0  0  0  0  0  0  0  0
  -27.2500   13.2040  -19.4360 C   0  0  0  0  0  0  0  0  0  0  0  0
  -30.2520   15.4010  -19.9460 C   0  0  0  0  0  0  0  0  0  0  0  0
  -31.4190   14.7610  -20.1570 O   0  0  0  0  0  0  0  0  0  0  0  0
  -30.1240   16.5590  -20.2900 O   0  0  0  0  0  0  0  0  0  0  0  0
  -28.8930   11.5290  -22.5550 C   0  0  0  0  0  0  0  0  0  0  0  0
  -30.2480   11.7860  -21.8910 C   0  0  0  0  0  0  0  0  0  0  0  0
  -30.4590   10.8110  -20.8180 N   0  0  0  0  0  0  0  0  0  0  0  0
  -30.0650    9.9110  -20.8860 H   0  0  0  0  0  0  0  0  0  0  0  0
  -31.2190   11.1560  -19.6990 C   0  0  0  0  0  0  0  0  0  0  0  0
  -30.5910   11.5510  -18.5250 C   0  0  0  0  0  0  0  0  0  0  0  0
  -31.3460   11.8920  -17.4200 C   0  0  0  0  0  0  0  0  0  0  0  0
  -32.7280   11.8410  -17.4820 C   0  0  0  0  0  0  0  0  0  0  0  0
  -33.3560   11.4480  -18.6490 C   0  0  0  0  0  0  0  0  0  0  0  0
  -32.6070   11.1060  -19.7580 C   0  0  0  0  0  0  0  0  0  0  0  0
  -33.5340   12.2070  -16.2960 N   0  0  0  0  0  0  0  0  0  0  0  0
  -34.1890   11.3580  -15.7200 O   0  0  0  0  0  0  0  0  0  0  0  0
  -33.5410   13.3570  -15.8950 O   0  0  0  0  0  0  0  0  0  0  0  0
  1  4  1  0  0  0  0
  1  3  1  0  0  0  0
  2  1  1  0  0  0  0
  4  9  1  0  0  0  0
  5  6  2  0  0  0  0
  7  6  1  0  0  0  0
  8  7  2  0  0  0  0
  9 10  2  0  0  0  0
  9  8  1  0  0  0  0
 10  5  1  0  0  0  0
 11  8  1  0  0  0  0
 12 11  1  0  0  0  0
 13 11  2  0  0  0  0
 14  1  1  0  0  0  0
 14 15  1  0  0  0  0
 15 16  1  0  0  0  0
 16 18  1  0  0  0  0
 17 16  1  0  0  0  0
 18 19  1  0  0  0  0
 19 20  2  0  0  0  0
 21 20  1  0  0  0  0
 21 24  1  0  0  0  0
 22 21  2  0  0  0  0
 23 18  2  0  0  0  0
 23 22  1  0  0  0  0
 24 26  2  0  0  0  0
 24 25  2  0  0  0  0
M  END
>  <MODEL>
1

>  <REMARK>
 VINA RESULT:      -6.2      0.000      0.000
  Name = ZINC10315609
                            x       y       z     vdW  Elec       q    Type
                         _______ _______ _______ _____ _____    ______ ____

>  <TORSDO>
F 8

>  <vina_score>
-6.2

$$$$
ZINC09287414
 OpenBabel01081722243D

 27 28  0  0  1  0  0  0  0  0999 V2000
  -33.4300   12.9390  -20.4760 C   0  0  1  0  0  0  0  0  0  0  0  0
  -34.0070   11.6790  -19.8430 C   0  0  0  0  0  0  0  0  0  0  0  0
  -33.8550   11.6170  -18.5450 N   0  0  0  0  0  0  0  0  0  0  0  0
  -33.2580   12.5480  -17.8210 C   0  0  0  0  0  0  0  0  0  0  0  0
  -34.5600   10.8090  -20.4860 O   0  0  0  0  0  0  0  0  0  0  0  0
  -32.7860   13.7650  -18.9670 S   0  0  0  0  0  0  0  0  0  0  0  0
  -33.0610   12.5550  -16.4650 N   0  0  0  0  0  0  0  0  0  0  0  0
  -32.2020   12.8610  -16.0950 H   0  0  0  0  0  0  0  0  0  0  0  0
  -34.0680   12.1320  -15.6200 C   0  0  0  0  0  0  0  0  0  0  0  0
  -34.3220   10.8340  -15.5880 N   0  0  0  0  0  0  0  0  0  0  0  0
  -35.0300   10.4860  -15.0010 H   0  0  0  0  0  0  0  0  0  0  0  0
  -33.8010   10.2170  -16.1520 H   0  0  0  0  0  0  0  0  0  0  0  0
  -34.7550   13.0480  -14.8610 N   0  0  0  0  0  0  0  0  0  0  0  0
  -34.6650   13.0410  -13.8800 H   0  0  0  0  0  0  0  0  0  0  0  0
  -35.3370   13.7120  -15.2960 H   0  0  0  0  0  0  0  0  0  0  0  0
  -32.3050   12.6050  -21.4590 C   0  0  0  0  0  0  0  0  0  0  0  0
  -30.1950   13.5990  -20.6350 N   0  0  0  0  0  0  0  0  0  0  0  0
  -30.4230   14.4180  -21.1310 H   0  0  0  0  0  0  0  0  0  0  0  0
  -30.9970   12.5180  -20.7150 C   0  0  0  0  0  0  0  0  0  0  0  0
  -30.6670   11.4780  -20.1860 O   0  0  0  0  0  0  0  0  0  0  0  0
  -27.7650   12.7770  -21.8650 C   0  0  0  0  0  0  0  0  0  0  0  0
  -27.8310   13.1600  -20.4090 C   0  0  0  0  0  0  0  0  0  0  0  0
  -26.6900   13.1230  -19.6310 C   0  0  0  0  0  0  0  0  0  0  0  0
  -26.7520   13.4690  -18.2940 C   0  0  0  0  0  0  0  0  0  0  0  0
  -27.9540   13.8570  -17.7320 C   0  0  0  0  0  0  0  0  0  0  0  0
  -29.0970   13.9010  -18.5060 C   0  0  0  0  0  0  0  0  0  0  0  0
  -29.0380   13.5550  -19.8480 C   0  0  0  0  0  0  0  0  0  0  0  0
  1 16  1  6  0  0  0
  1  2  1  0  0  0  0
  1  6  1  0  0  0  0
  2  3  1  0  0  0  0
  3  4  2  0  0  0  0
  4  7  1  0  0  0  0
  5  2  2  0  0  0  0
  6  4  1  0  0  0  0
  7  8  1  0  0  0  0
  7  9  1  0  0  0  0
  9 10  2  0  0  0  0
  9 13  1  0  0  0  0
 10 11  1  0  0  0  0
 12 10  1  0  0  0  0
 13 14  1  0  0  0  0
 15 13  1  0  0  0  0
 16 19  1  0  0  0  0
 17 27  1  0  0  0  0
 18 17  1  0  0  0  0
 19 17  1  0  0  0  0
 19 20  2  0  0  0  0
 21 22  1  0  0  0  0
 22 27  2  0  0  0  0
 22 23  1  0  0  0  0
 23 24  2  0  0  0  0
 24 25  1  0  0  0  0
 26 25  2  0  0  0  0
 27 26  1  0  0  0  0
M  END
>  <MODEL>
1

>  <REMARK>
 VINA RESULT:      -6.2      0.000      0.000
  Name = ZINC09287414
                            x       y       z     vdW  Elec       q    Type
                         _______ _______ _______ _____ _____    ______ ____

>  <TORSDO>
F 6

>  <vina_score>
-6.2

$$$$
ZINC21981401
 OpenBabel01081722283D

 29 30  0  0  1  0  0  0  0  0999 V2000
  -33.8130   12.4730  -16.9460 C   0  0  0  0  0  0  0  0  0  0  0  0
  -33.4990   12.0850  -18.3240 N   0  0  0  0  0  0  0  0  0  0  0  0
  -33.3120   10.8070  -18.8450 C   0  0  0  0  0  0  0  0  0  0  0  0
  -32.5180   10.8040  -19.8880 N   0  0  0  0  0  0  0  0  0  0  0  0
  -32.0870   12.1710  -20.1020 C   0  0  1  0  0  0  0  0  0  0  0  0
  -31.9340   12.7210  -21.4800 C   0  0  0  0  0  0  0  0  0  0  0  0
  -31.7000   12.0270  -22.4450 O   0  0  0  0  0  0  0  0  0  0  0  0
  -32.0820   14.0810  -21.5540 N   0  0  0  0  0  0  0  0  0  0  0  0
  -32.0650   14.5310  -22.4300 H   0  0  0  0  0  0  0  0  0  0  0  0
  -32.2540   14.8210  -20.3960 C   0  0  0  0  0  0  0  0  0  0  0  0
  -32.8640   14.3080  -19.3420 N   0  0  0  0  0  0  0  0  0  0  0  0
  -33.3120   12.9390  -19.4910 C   0  0  2  0  0  0  0  0  0  0  0  0
  -31.7830   16.1110  -20.3400 N   0  0  0  0  0  0  0  0  0  0  0  0
  -31.4440   16.5460  -21.1560 H   0  0  0  0  0  0  0  0  0  0  0  0
  -31.7850   16.6000  -19.4860 H   0  0  0  0  0  0  0  0  0  0  0  0
  -32.6260   12.9360  -16.3000 O   0  0  0  0  0  0  0  0  0  0  0  0
  -31.4290   12.3050  -16.7600 C   0  0  0  0  0  0  0  0  0  0  0  0
  -30.3490   13.3640  -16.9870 C   0  0  0  0  0  0  0  0  0  0  0  0
  -29.1950   12.7500  -17.6210 O   0  0  0  0  0  0  0  0  0  0  0  0
  -28.3400   13.5690  -18.2530 C   0  0  0  0  0  0  0  0  0  0  0  0
  -27.3820   14.0120  -17.6650 O   0  0  0  0  0  0  0  0  0  0  0  0
  -28.5740   13.9360  -19.6950 C   0  0  1  0  0  0  0  0  0  0  0  0
  -28.4740   15.3930  -19.8520 N   0  0  0  0  0  0  0  0  0  0  0  0
  -28.7040   15.8480  -18.9680 H   0  0  0  0  0  0  0  0  0  0  0  0
  -27.5230   15.6410  -20.1230 H   0  0  0  0  0  0  0  0  0  0  0  0
  -29.1250   15.7030  -20.5740 H   0  0  0  0  0  0  0  0  0  0  0  0
  -28.1960   12.6560  -21.8070 C   0  0  0  0  0  0  0  0  0  0  0  0
  -27.5220   13.2550  -20.5720 C   0  0  0  0  0  0  0  0  0  0  0  0
  -26.4790   14.2860  -21.0100 C   0  0  0  0  0  0  0  0  0  0  0  0
  1 16  1  0  0  0  0
  2  1  1  0  0  0  0
  3  2  1  0  0  0  0
  4  3  1  0  0  0  0
  5  6  1  6  0  0  0
  5  4  1  0  0  0  0
  5 12  1  0  0  0  0
  7  6  2  0  0  0  0
  8  6  1  0  0  0  0
  8 10  1  0  0  0  0
  9  8  1  0  0  0  0
 10 13  1  0  0  0  0
 10 11  2  0  0  0  0
 12 11  1  1  0  0  0
 12  2  1  0  0  0  0
 13 15  1  0  0  0  0
 14 13  1  0  0  0  0
 17 16  1  0  0  0  0
 18 17  1  0  0  0  0
 19 18  1  0  0  0  0
 20 21  2  0  0  0  0
 20 19  1  0  0  0  0
 22 28  1  6  0  0  0
 22 20  1  0  0  0  0
 23 22  1  0  0  0  0
 23 24  1  0  0  0  0
 25 23  1  0  0  0  0
 26 23  1  0  0  0  0
 27 28  1  0  0  0  0
 29 28  1  0  0  0  0
M  END
>  <MODEL>
1

>  <REMARK>
 VINA RESULT:      -6.2      0.000      0.000
  Name = ZINC21981401
                            x       y       z     vdW  Elec       q    Type
                         _______ _______ _______ _____ _____    ______ ____

>  <TORSDO>
F 10

>  <vina_score>
-6.2

$$$$
ZINC24031219
 OpenBabel01081722283D

 25 26  0  0  0  0  0  0  0  0999 V2000
  -30.1730   13.0830  -17.9240 C   0  0  0  0  0  0  0  0  0  0  0  0
  -29.5650   12.7060  -19.1050 C   0  0  0  0  0  0  0  0  0  0  0  0
  -28.4680   13.4420  -19.5210 C   0  0  0  0  0  0  0  0  0  0  0  0
  -28.0610   14.5160  -18.7240 C   0  0  0  0  0  0  0  0  0  0  0  0
  -29.1930   14.4820  -17.4110 S   0  0  0  0  0  0  0  0  0  0  0  0
  -27.0140   15.3870  -18.9280 N   0  0  0  0  0  0  0  0  0  0  0  0
  -26.9910   15.9490  -19.7360 H   0  0  0  0  0  0  0  0  0  0  0  0
  -26.2900   15.4480  -18.2640 H   0  0  0  0  0  0  0  0  0  0  0  0
  -31.2950   12.5030  -17.2800 C   0  0  0  0  0  0  0  0  0  0  0  0
  -31.2460   11.3500  -16.8950 O   0  0  0  0  0  0  0  0  0  0  0  0
  -32.4170   13.2290  -17.0950 O   0  0  0  0  0  0  0  0  0  0  0  0
  -34.0720   12.8680  -15.3720 C   0  0  0  0  0  0  0  0  0  0  0  0
  -33.6120   12.5090  -16.7850 C   0  0  0  0  0  0  0  0  0  0  0  0
  -27.7750   13.1150  -20.7300 C   0  0  0  0  0  0  0  0  0  0  0  0
  -27.2250   12.8570  -21.6910 N   0  0  0  0  0  0  0  0  0  0  0  0
  -30.0730   11.5350  -19.9080 C   0  0  0  0  0  0  0  0  0  0  0  0
  -30.8340   12.1360  -21.4350 S   0  0  0  0  0  0  0  0  0  0  0  0
  -32.5360   11.9150  -21.0360 C   0  0  0  0  0  0  0  0  0  0  0  0
  -33.2630   10.8490  -21.2800 N   0  0  0  0  0  0  0  0  0  0  0  0
  -34.4620   11.0320  -20.8560 N   0  0  0  0  0  0  0  0  0  0  0  0
  -34.5710   12.2130  -20.3170 C   0  0  0  0  0  0  0  0  0  0  0  0
  -33.3490   12.8200  -20.4180 N   0  0  0  0  0  0  0  0  0  0  0  0
  -33.0110   14.0700  -19.9830 N   0  0  0  0  0  0  0  0  0  0  0  0
  -32.0850   14.3930  -20.0830 H   0  0  0  0  0  0  0  0  0  0  0  0
  -33.6910   14.6490  -19.5680 H   0  0  0  0  0  0  0  0  0  0  0  0
  1  5  1  0  0  0  0
  1  9  1  0  0  0  0
  2  1  2  0  0  0  0
  3  2  1  0  0  0  0
  3  4  2  0  0  0  0
  4  5  1  0  0  0  0
  6  4  1  0  0  0  0
  6  8  1  0  0  0  0
  7  6  1  0  0  0  0
  9 11  1  0  0  0  0
  9 10  2  0  0  0  0
 11 13  1  0  0  0  0
 13 12  1  0  0  0  0
 14  3  1  0  0  0  0
 15 14  3  0  0  0  0
 16  2  1  0  0  0  0
 17 18  1  0  0  0  0
 17 16  1  0  0  0  0
 18 22  1  0  0  0  0
 19 18  2  0  0  0  0
 19 20  1  0  0  0  0
 20 21  2  0  0  0  0
 22 21  1  0  0  0  0
 22 23  1  0  0  0  0
 23 25  1  0  0  0  0
 24 23  1  0  0  0  0
M  END
>  <MODEL>
1

>  <REMARK>
 VINA RESULT:      -6.2      0.000      0.000
  Name = ZINC24031219
                            x       y       z     vdW  Elec       q    Type
                         _______ _______ _______ _____ _____    ______ ____

>  <TORSDO>
F 9

>  <vina_score>
-6.2

$$$$
ZINC21018929
 OpenBabel01081722293D

 23 23  0  0  1  0  0  0  0  0999 V2000
  -29.7660   15.2230  -19.4890 C   0  0  2  0  0  0  0  0  0  0  0  0
  -30.2590   16.5940  -19.9580 C   0  0  0  0  0  0  0  0  0  0  0  0
  -34.1410   11.4510  -19.6490 C   0  0  0  0  0  0  0  0  0  0  0  0
  -33.0010   12.4340  -19.6070 C   0  0  0  0  0  0  0  0  0  0  0  0
  -32.7460   13.2440  -20.6980 C   0  0  0  0  0  0  0  0  0  0  0  0
  -31.6990   14.1460  -20.6600 C   0  0  0  0  0  0  0  0  0  0  0  0
  -30.9070   14.2380  -19.5310 C   0  0  0  0  0  0  0  0  0  0  0  0
  -31.1620   13.4290  -18.4400 C   0  0  0  0  0  0  0  0  0  0  0  0
  -32.2090   12.5270  -18.4780 C   0  0  0  0  0  0  0  0  0  0  0  0
  -32.4850   11.6650  -17.3080 N   0  0  0  0  0  0  0  0  0  0  0  0
  -33.5120   11.8160  -16.6690 O   0  0  0  0  0  0  0  0  0  0  0  0
  -31.6880   10.8040  -16.9830 O   0  0  0  0  0  0  0  0  0  0  0  0
  -29.2590   15.3280  -18.1150 N   0  0  0  0  0  0  0  0  0  0  0  0
  -29.4540   16.2670  -17.7680 H   0  0  0  0  0  0  0  0  0  0  0  0
  -29.7230   14.6290  -17.5340 H   0  0  0  0  0  0  0  0  0  0  0  0
  -27.8080   15.1030  -18.0700 C   0  0  0  0  0  0  0  0  0  0  0  0
  -27.5230   13.6020  -18.1380 C   0  0  0  0  0  0  0  0  0  0  0  0
  -26.2320   13.3790  -18.7940 N   0  0  0  0  0  0  0  0  0  0  0  0
  -25.8460   12.5200  -18.4020 H   0  0  0  0  0  0  0  0  0  0  0  0
  -26.1560   13.2300  -20.4420 S   0  0  0  0  0  0  0  0  0  0  0  0
  -27.8170   12.6980  -20.9380 C   0  0  0  0  0  0  0  0  0  0  0  0
  -25.2190   12.1860  -20.6690 O   0  0  0  0  0  0  0  0  0  0  0  0
  -25.9020   14.5460  -20.9140 O   0  0  0  0  0  0  0  0  0  0  0  0
  1  2  1  1  0  0  0
  1 13  1  0  0  0  0
  3  4  1  0  0  0  0
  4  9  2  0  0  0  0
  5  6  2  0  0  0  0
  5  4  1  0  0  0  0
  6  7  1  0  0  0  0
  7  1  1  0  0  0  0
  7  8  2  0  0  0  0
  9  8  1  0  0  0  0
  9 10  1  0  0  0  0
 10 12  2  0  0  0  0
 10 11  2  0  0  0  0
 13 16  1  0  0  0  0
 13 14  1  0  0  0  0
 13 15  1  0  0  0  0
 17 16  1  0  0  0  0
 18 19  1  0  0  0  0
 18 17  1  0  0  0  0
 20 18  1  0  0  0  0
 21 20  1  0  0  0  0
 22 20  2  0  0  0  0
 23 20  2  0  0  0  0
M  END
>  <MODEL>
1

>  <REMARK>
 VINA RESULT:      -6.2      0.000      0.000
  Name = ZINC21018929
                            x       y       z     vdW  Elec       q    Type
                         _______ _______ _______ _____ _____    ______ ____

>  <TORSDO>
F 7

>  <vina_score>
-6.2

$$$$
ZINC05500274
 OpenBabel01081722293D

 22 22  0  0  0  0  0  0  0  0999 V2000
  -27.1830   13.2520  -18.1620 C   0  0  0  0  0  0  0  0  0  0  0  0
  -28.6240   13.6850  -18.0910 C   0  0  0  0  0  0  0  0  0  0  0  0
  -29.4570   13.0240  -17.3780 N   0  0  0  0  0  0  0  0  0  0  0  0
  -30.8190   13.3550  -17.4060 N   0  0  0  0  0  0  0  0  0  0  0  0
  -31.1000   14.2610  -17.6670 H   0  0  0  0  0  0  0  0  0  0  0  0
  -31.7430   12.4320  -17.0720 C   0  0  0  0  0  0  0  0  0  0  0  0
  -31.3960   11.3150  -16.7490 O   0  0  0  0  0  0  0  0  0  0  0  0
  -33.1930   12.7840  -17.1000 C   0  0  0  0  0  0  0  0  0  0  0  0
  -33.7850   13.1110  -18.2660 N   0  0  0  0  0  0  0  0  0  0  0  0
  -34.7420   13.3440  -18.2830 H   0  0  0  0  0  0  0  0  0  0  0  0
  -33.2610   13.1170  -19.0990 H   0  0  0  0  0  0  0  0  0  0  0  0
  -33.8390   12.7780  -16.0730 O   0  0  0  0  0  0  0  0  0  0  0  0
  -29.0850   14.8980  -18.8590 C   0  0  0  0  0  0  0  0  0  0  0  0
  -28.7860   14.7030  -20.3470 C   0  0  0  0  0  0  0  0  0  0  0  0
  -29.5680   13.5740  -20.8580 N   0  0  0  0  0  0  0  0  0  0  0  0
  -28.9410   12.5650  -21.4900 C   0  0  0  0  0  0  0  0  0  0  0  0
  -29.7210   11.4240  -22.0150 C   0  0  0  0  0  0  0  0  0  0  0  0
  -31.0540   11.4090  -21.8410 C   0  0  0  0  0  0  0  0  0  0  0  0
  -31.7000   12.5350  -21.1360 C   0  0  0  0  0  0  0  0  0  0  0  0
  -32.9040   12.5390  -20.9710 O   0  0  0  0  0  0  0  0  0  0  0  0
  -27.7340   12.5930  -21.6320 O   0  0  0  0  0  0  0  0  0  0  0  0
  -30.9550   13.5580  -20.6780 N   0  0  0  0  0  0  0  0  0  0  0  0
  1  2  1  0  0  0  0
  2  3  2  0  0  0  0
  4  3  1  0  0  0  0
  4  6  1  0  0  0  0
  5  4  1  0  0  0  0
  6  7  2  0  0  0  0
  8  6  1  0  0  0  0
  8 12  2  0  0  0  0
  9  8  1  0  0  0  0
 10  9  1  0  0  0  0
 11  9  1  0  0  0  0
 13  2  1  0  0  0  0
 14 13  1  0  0  0  0
 15 22  1  0  0  0  0
 15 14  1  0  0  0  0
 16 15  1  0  0  0  0
 17 18  2  0  0  0  0
 17 16  1  0  0  0  0
 18 19  1  0  0  0  0
 19 20  2  0  0  0  0
 19 22  1  0  0  0  0
 21 16  2  0  0  0  0
M  END
>  <MODEL>
1

>  <REMARK>
 VINA RESULT:      -6.2      0.000      0.000
  Name = ZINC05500274
                            x       y       z     vdW  Elec       q    Type
                         _______ _______ _______ _____ _____    ______ ____

>  <TORSDO>
F 5

>  <vina_score>
-6.2

$$$$
ZINC29587161
 OpenBabel01081722053D

 25 26  0  0  1  0  0  0  0  0999 V2000
  -33.8030   11.2500  -16.0540 C   0  0  0  0  0  0  0  0  0  0  0  0
  -32.8900   12.0880  -16.9110 C   0  0  0  0  0  0  0  0  0  0  0  0
  -33.3900   12.7070  -18.0530 C   0  0  0  0  0  0  0  0  0  0  0  0
  -32.5390   13.4720  -18.8290 C   0  0  0  0  0  0  0  0  0  0  0  0
  -31.2330   13.5890  -18.4480 N   0  0  0  0  0  0  0  0  0  0  0  0
  -30.7890   12.9660  -17.3150 C   0  0  0  0  0  0  0  0  0  0  0  0
  -29.4990   13.2560  -17.1890 N   0  0  0  0  0  0  0  0  0  0  0  0
  -29.1100   14.0250  -18.1990 C   0  0  0  0  0  0  0  0  0  0  0  0
  -30.1310   14.2620  -18.9890 N   0  0  0  0  0  0  0  0  0  0  0  0
  -31.6250   12.2290  -16.5750 N   0  0  0  0  0  0  0  0  0  0  0  0
  -27.7150   14.5560  -18.4010 C   0  0  0  0  0  0  0  0  0  0  0  0
  -27.3940   14.5190  -19.7610 F   0  0  0  0  0  0  0  0  0  0  0  0
  -26.8080   13.7670  -17.6860 F   0  0  0  0  0  0  0  0  0  0  0  0
  -27.6470   15.8760  -17.9420 F   0  0  0  0  0  0  0  0  0  0  0  0
  -32.9980   14.0990  -19.9650 N   0  0  0  0  0  0  0  0  0  0  0  0
  -33.5490   14.9120  -19.8910 H   0  0  0  0  0  0  0  0  0  0  0  0
  -32.6660   13.5570  -21.2850 C   0  0  0  0  0  0  0  0  0  0  0  0
  -32.3690   12.0610  -21.1620 C   0  0  1  0  0  0  0  0  0  0  0  0
  -33.5600   11.3150  -21.4230 O   0  0  0  0  0  0  0  0  0  0  0  0
  -33.3360   10.3790  -21.5410 H   0  0  0  0  0  0  0  0  0  0  0  0
  -31.2910   11.6700  -22.1760 C   0  0  0  0  0  0  0  0  0  0  0  0
  -30.1220   11.1360  -21.4650 N   0  0  0  0  0  0  0  0  0  0  0  0
  -29.8380   10.2750  -21.9330 H   0  0  0  0  0  0  0  0  0  0  0  0
  -30.4570   10.8040  -20.0740 C   0  0  0  0  0  0  0  0  0  0  0  0
  -28.9950   12.0760  -21.5250 C   0  0  0  0  0  0  0  0  0  0  0  0
  2 10  2  0  0  0  0
  2  1  1  0  0  0  0
  3  2  1  0  0  0  0
  4  5  1  0  0  0  0
  4  3  2  0  0  0  0
  5  6  1  0  0  0  0
  6  7  2  0  0  0  0
  6 10  1  0  0  0  0
  8  7  1  0  0  0  0
  9  5  1  0  0  0  0
  9  8  2  0  0  0  0
 11  8  1  0  0  0  0
 11 14  1  0  0  0  0
 11 13  1  0  0  0  0
 12 11  1  0  0  0  0
 15 16  1  0  0  0  0
 15  4  1  0  0  0  0
 17 18  1  0  0  0  0
 17 15  1  0  0  0  0
 18 21  1  6  0  0  0
 19 18  1  0  0  0  0
 20 19  1  0  0  0  0
 21 22  1  0  0  0  0
 22 24  1  0  0  0  0
 23 22  1  0  0  0  0
 25 22  1  0  0  0  0
M  END
>  <MODEL>
1

>  <REMARK>
 VINA RESULT:      -6.2      0.000      0.000
  Name = ZINC29587161
                            x       y       z     vdW  Elec       q    Type
                         _______ _______ _______ _____ _____    ______ ____

>  <TORSDO>
F 7

>  <vina_score>
-6.2

$$$$
ZINC31384614
 OpenBabel01081722063D

 26 26  0  0  1  0  0  0  0  0999 V2000
  -29.9190   12.5240  -20.3550 N   0  0  0  0  0  0  0  0  0  0  0  0
  -29.8390   12.2850  -19.4030 H   0  0  0  0  0  0  0  0  0  0  0  0
  -30.8640   11.9410  -21.1200 C   0  0  0  0  0  0  0  0  0  0  0  0
  -30.9630   12.2350  -22.2920 O   0  0  0  0  0  0  0  0  0  0  0  0
  -29.0120   13.5150  -20.9410 C   0  0  0  0  0  0  0  0  0  0  0  0
  -28.0600   14.0340  -19.8610 C   0  0  1  0  0  0  0  0  0  0  0  0
  -26.6610   14.2100  -20.4570 C   0  0  0  0  0  0  0  0  0  0  0  0
  -26.7810   14.6450  -21.9190 C   0  0  0  0  0  0  0  0  0  0  0  0
  -25.9040   12.8820  -20.3800 C   0  0  0  0  0  0  0  0  0  0  0  0
  -28.5450   15.3270  -19.3610 N   0  0  0  0  0  0  0  0  0  0  0  0
  -28.0250   16.0620  -19.8380 H   0  0  0  0  0  0  0  0  0  0  0  0
  -30.2330   16.9770  -20.0140 C   0  0  0  0  0  0  0  0  0  0  0  0
  -29.9700   15.5100  -19.6690 C   0  0  0  0  0  0  0  0  0  0  0  0
  -28.2970   15.4600  -17.9190 C   0  0  0  0  0  0  0  0  0  0  0  0
  -28.7020   14.1660  -17.2100 C   0  0  0  0  0  0  0  0  0  0  0  0
  -31.7970   10.9210  -20.5180 C   0  0  0  0  0  0  0  0  0  0  0  0
  -32.3150   11.4320  -19.1980 C   0  0  0  0  0  0  0  0  0  0  0  0
  -33.5440   12.0130  -19.1110 C   0  0  0  0  0  0  0  0  0  0  0  0
  -34.4020   12.1500  -20.3420 C   0  0  0  0  0  0  0  0  0  0  0  0
  -33.9860   12.4590  -17.9330 N   0  0  0  0  0  0  0  0  0  0  0  0
  -33.2660   12.3540  -16.8480 C   0  0  0  0  0  0  0  0  0  0  0  0
  -33.8130   12.8810  -15.5470 C   0  0  0  0  0  0  0  0  0  0  0  0
  -32.0430   11.7900  -16.8690 N   0  0  0  0  0  0  0  0  0  0  0  0
  -31.5180   11.7220  -16.0380 H   0  0  0  0  0  0  0  0  0  0  0  0
  -31.5370   11.3180  -18.0280 C   0  0  0  0  0  0  0  0  0  0  0  0
  -30.4310   10.8040  -18.0620 O   0  0  0  0  0  0  0  0  0  0  0  0
  1  2  1  0  0  0  0
  3 16  1  0  0  0  0
  3  1  1  0  0  0  0
  4  3  2  0  0  0  0
  5  1  1  0  0  0  0
  6  5  1  6  0  0  0
  6 10  1  0  0  0  0
  7  9  1  0  0  0  0
  7  6  1  0  0  0  0
  8  7  1  0  0  0  0
 10 14  1  0  0  0  0
 11 10  1  0  0  0  0
 12 13  1  0  0  0  0
 13 10  1  0  0  0  0
 14 15  1  0  0  0  0
 16 17  1  0  0  0  0
 17 18  2  0  0  0  0
 17 25  1  0  0  0  0
 18 20  1  0  0  0  0
 19 18  1  0  0  0  0
 20 21  2  0  0  0  0
 21 22  1  0  0  0  0
 23 21  1  0  0  0  0
 23 24  1  0  0  0  0
 25 23  1  0  0  0  0
 26 25  2  0  0  0  0
M  END
>  <MODEL>
1

>  <REMARK>
 VINA RESULT:      -6.2      0.000      0.000
  Name = ZINC31384614
                            x       y       z     vdW  Elec       q    Type
                         _______ _______ _______ _____ _____    ______ ____

>  <TORSDO>
F 8

>  <vina_score>
-6.2

$$$$
ZINC02837242
 OpenBabel01081722073D

 21 21  0  0  0  0  0  0  0  0999 V2000
  -28.9170   13.8950  -20.2250 C   0  0  0  0  0  0  0  0  0  0  0  0
  -27.8610   14.2920  -19.2780 C   0  0  0  0  0  0  0  0  0  0  0  0
  -26.6260   13.7780  -19.4470 N   0  0  0  0  0  0  0  0  0  0  0  0
  -25.9080   14.0320  -18.8230 H   0  0  0  0  0  0  0  0  0  0  0  0
  -26.3530   12.9270  -20.4460 C   0  0  0  0  0  0  0  0  0  0  0  0
  -27.2610   12.5260  -21.3460 N   0  0  0  0  0  0  0  0  0  0  0  0
  -26.9900   11.9040  -22.0600 H   0  0  0  0  0  0  0  0  0  0  0  0
  -25.2190   12.4990  -20.5430 O   0  0  0  0  0  0  0  0  0  0  0  0
  -28.0970   15.0650  -18.3670 O   0  0  0  0  0  0  0  0  0  0  0  0
  -28.5390   12.9550  -21.2970 C   0  0  0  0  0  0  0  0  0  0  0  0
  -29.3570   12.5820  -22.1170 O   0  0  0  0  0  0  0  0  0  0  0  0
  -31.2370   13.5310  -19.9400 N   0  0  0  0  0  0  0  0  0  0  0  0
  -30.2060   14.3820  -20.1160 C   0  0  0  0  0  0  0  0  0  0  0  0
  -32.6020   14.0470  -19.8240 C   0  0  0  0  0  0  0  0  0  0  0  0
  -33.3950   13.1790  -18.8430 C   0  0  0  0  0  0  0  0  0  0  0  0
  -32.5040   12.1290  -18.3080 N   0  0  0  0  0  0  0  0  0  0  0  0
  -31.6360   12.1240  -18.8450 H   0  0  0  0  0  0  0  0  0  0  0  0
  -33.4460   12.8420  -16.1370 C   0  0  0  0  0  0  0  0  0  0  0  0
  -32.1870   12.4080  -16.8910 C   0  0  0  0  0  0  0  0  0  0  0  0
  -33.1500   10.8050  -18.4300 C   0  0  0  0  0  0  0  0  0  0  0  0
  -34.0580   10.8130  -19.6620 C   0  0  0  0  0  0  0  0  0  0  0  0
  1 13  1  0  0  0  0
  1  2  1  0  0  0  0
  2  9  2  0  0  0  0
  3  2  1  0  0  0  0
  3  4  1  0  0  0  0
  5  3  1  0  0  0  0
  6 10  1  0  0  0  0
  6  5  1  0  0  0  0
  7  6  1  0  0  0  0
  8  5  2  0  0  0  0
 10  1  1  0  0  0  0
 11 10  2  0  0  0  0
 12 14  1  0  0  0  0
 13 12  2  0  0  0  0
 14 15  1  0  0  0  0
 15 16  1  0  0  0  0
 16 19  1  0  0  0  0
 17 16  1  0  0  0  0
 19 18  1  0  0  0  0
 20 16  1  0  0  0  0
 21 20  1  0  0  0  0
M  END
>  <MODEL>
1

>  <REMARK>
 VINA RESULT:      -6.2      0.000      0.000
  Name = ZINC02837242
                            x       y       z     vdW  Elec       q    Type
                         _______ _______ _______ _____ _____    ______ ____

>  <TORSDO>
F 6

>  <vina_score>
-6.2

$$$$
ZINC00481078
 OpenBabel01081722073D

 24 24  0  0  0  0  0  0  0  0999 V2000
  -31.3010   12.7980  -19.9390 C   0  0  0  0  0  0  0  0  0  0  0  0
  -29.9650   13.0500  -19.6890 C   0  0  0  0  0  0  0  0  0  0  0  0
  -29.0410   12.7270  -20.6310 N   0  0  0  0  0  0  0  0  0  0  0  0
  -29.3960   12.1730  -21.8010 C   0  0  0  0  0  0  0  0  0  0  0  0
  -30.6760   11.8980  -22.1030 N   0  0  0  0  0  0  0  0  0  0  0  0
  -30.8960   11.4830  -22.9690 H   0  0  0  0  0  0  0  0  0  0  0  0
  -28.5300   11.9080  -22.6130 O   0  0  0  0  0  0  0  0  0  0  0  0
  -31.6620   12.1850  -21.2270 C   0  0  0  0  0  0  0  0  0  0  0  0
  -32.8240   11.9420  -21.4960 O   0  0  0  0  0  0  0  0  0  0  0  0
  -33.4570   12.6360  -16.9620 C   0  0  0  0  0  0  0  0  0  0  0  0
  -32.4480   12.3970  -17.8220 N   0  0  0  0  0  0  0  0  0  0  0  0
  -31.7960   11.6840  -17.6300 H   0  0  0  0  0  0  0  0  0  0  0  0
  -32.3320   13.1320  -18.9450 C   0  0  0  0  0  0  0  0  0  0  0  0
  -33.0780   14.0730  -19.1360 O   0  0  0  0  0  0  0  0  0  0  0  0
  -34.2620   13.5140  -17.1990 O   0  0  0  0  0  0  0  0  0  0  0  0
  -33.5740   11.9010  -15.8400 O   0  0  0  0  0  0  0  0  0  0  0  0
  -35.1680   11.1140  -14.1760 C   0  0  0  0  0  0  0  0  0  0  0  0
  -34.5610   12.3360  -14.8670 C   0  0  0  0  0  0  0  0  0  0  0  0
  -27.6260   12.9950  -20.3660 C   0  0  0  0  0  0  0  0  0  0  0  0
  -27.4020   14.5040  -20.2630 C   0  0  0  0  0  0  0  0  0  0  0  0
  -27.0470   14.8410  -18.8690 N   0  0  0  0  0  0  0  0  0  0  0  0
  -26.1870   15.3880  -18.8690 H   0  0  0  0  0  0  0  0  0  0  0  0
  -26.8280   13.6040  -18.0910 C   0  0  0  0  0  0  0  0  0  0  0  0
  -28.1250   15.6420  -18.2520 C   0  0  0  0  0  0  0  0  0  0  0  0
  1  2  2  0  0  0  0
  1 13  1  0  0  0  0
  3 19  1  0  0  0  0
  3  2  1  0  0  0  0
  4  3  1  0  0  0  0
  5  4  1  0  0  0  0
  5  8  1  0  0  0  0
  6  5  1  0  0  0  0
  7  4  2  0  0  0  0
  8  1  1  0  0  0  0
  9  8  2  0  0  0  0
 10 16  1  0  0  0  0
 11 12  1  0  0  0  0
 11 10  1  0  0  0  0
 13 11  1  0  0  0  0
 14 13  2  0  0  0  0
 15 10  2  0  0  0  0
 16 18  1  0  0  0  0
 18 17  1  0  0  0  0
 19 20  1  0  0  0  0
 20 21  1  0  0  0  0
 21 22  1  0  0  0  0
 21 24  1  0  0  0  0
 21 23  1  0  0  0  0
M  END
>  <MODEL>
1

>  <REMARK>
 VINA RESULT:      -6.2      0.000      0.000
  Name = ZINC00481078
                            x       y       z     vdW  Elec       q    Type
                         _______ _______ _______ _____ _____    ______ ____

>  <TORSDO>
F 6

>  <vina_score>
-6.2

$$$$
ZINC05164508
 OpenBabel01081722083D

 22 22  0  0  1  0  0  0  0  0999 V2000
  -31.7030   12.7790  -20.9010 N   0  0  0  0  0  0  0  0  0  0  0  0
  -32.1200   13.3770  -21.5640 H   0  0  0  0  0  0  0  0  0  0  0  0
  -30.3770   12.5430  -20.9470 C   0  0  0  0  0  0  0  0  0  0  0  0
  -29.6220   13.1240  -21.9000 N   0  0  0  0  0  0  0  0  0  0  0  0
  -30.0380   13.7220  -22.5620 H   0  0  0  0  0  0  0  0  0  0  0  0
  -29.8620   11.8050  -20.1290 O   0  0  0  0  0  0  0  0  0  0  0  0
  -32.5250   12.1470  -19.8660 C   0  0  2  0  0  0  0  0  0  0  0  0
  -33.8160   11.6650  -20.4740 C   0  0  0  0  0  0  0  0  0  0  0  0
  -34.9840   12.1900  -20.0730 O   0  0  0  0  0  0  0  0  0  0  0  0
  -33.8000   10.8060  -21.3230 O   0  0  0  0  0  0  0  0  0  0  0  0
  -32.8280   13.1640  -18.7640 C   0  0  0  0  0  0  0  0  0  0  0  0
  -33.3290   12.8140  -16.3410 C   0  0  0  0  0  0  0  0  0  0  0  0
  -32.2690   12.6550  -17.4330 C   0  0  0  0  0  0  0  0  0  0  0  0
  -31.8940   11.1780  -17.5680 C   0  0  0  0  0  0  0  0  0  0  0  0
  -28.1800   12.8680  -21.9490 C   0  0  0  0  0  0  0  0  0  0  0  0
  -27.4210   14.1790  -21.7360 C   0  0  0  0  0  0  0  0  0  0  0  0
  -26.6160   14.0980  -20.4380 C   0  0  0  0  0  0  0  0  0  0  0  0
  -27.5230   14.2040  -19.2920 N   0  0  0  0  0  0  0  0  0  0  0  0
  -27.5640   13.3670  -18.2100 C   0  0  0  0  0  0  0  0  0  0  0  0
  -28.5370   13.8280  -17.4000 C   0  0  0  0  0  0  0  0  0  0  0  0
  -29.0810   14.9090  -17.9770 N   0  0  0  0  0  0  0  0  0  0  0  0
  -28.4790   15.1400  -19.1110 C   0  0  0  0  0  0  0  0  0  0  0  0
  2  1  1  0  0  0  0
  3  1  1  0  0  0  0
  3  6  2  0  0  0  0
  4  3  1  0  0  0  0
  5  4  1  0  0  0  0
  7  1  1  6  0  0  0
  7 11  1  0  0  0  0
  8  9  1  0  0  0  0
  8  7  1  0  0  0  0
 10  8  2  0  0  0  0
 11 13  1  0  0  0  0
 13 12  1  0  0  0  0
 14 13  1  0  0  0  0
 15  4  1  0  0  0  0
 15 16  1  0  0  0  0
 16 17  1  0  0  0  0
 17 18  1  0  0  0  0
 18 22  1  0  0  0  0
 18 19  1  0  0  0  0
 19 20  2  0  0  0  0
 21 20  1  0  0  0  0
 22 21  2  0  0  0  0
M  END
>  <MODEL>
1

>  <REMARK>
 VINA RESULT:      -6.2      0.000      0.000
  Name = ZINC05164508
                            x       y       z     vdW  Elec       q    Type
                         _______ _______ _______ _____ _____    ______ ____

>  <TORSDO>
F 8

>  <vina_score>
-6.2

$$$$
ZINC08554408
 OpenBabel01081722023D

 23 25  0  0  1  0  0  0  0  0999 V2000
  -32.7080   12.9660  -20.7030 C   0  0  1  0  0  0  0  0  0  0  0  0
  -31.8750   11.9430  -21.4270 C   0  0  0  0  0  0  0  0  0  0  0  0
  -31.4750   10.9610  -20.6310 O   0  0  0  0  0  0  0  0  0  0  0  0
  -31.9870   11.0910  -19.0200 P   0  0  0  0  0  0  0  0  0  0  0  0
  -33.5450   10.8160  -18.3270 O   0  0  0  0  0  0  0  0  0  0  0  0
  -33.4560   11.4320  -17.0240 C   0  0  0  0  0  0  0  0  0  0  0  0
  -32.0130   11.3690  -16.5190 C   0  0  0  0  0  0  0  0  0  0  0  0
  -31.0840   11.5030  -17.6090 O   0  0  0  0  0  0  0  0  0  0  0  0
  -31.6010   12.0080  -22.6120 O   0  0  0  0  0  0  0  0  0  0  0  0
  -32.3900   12.8390  -19.2700 N   0  0  0  0  0  0  0  0  0  0  0  0
  -31.6200   13.4490  -18.9970 H   0  0  0  0  0  0  0  0  0  0  0  0
  -33.1940   13.1040  -18.7020 H   0  0  0  0  0  0  0  0  0  0  0  0
  -32.3470   14.3690  -21.1930 C   0  0  0  0  0  0  0  0  0  0  0  0
  -31.9170   15.2300  -20.0030 C   0  0  0  0  0  0  0  0  0  0  0  0
  -29.6070   14.3840  -20.2620 N   0  0  0  0  0  0  0  0  0  0  0  0
  -29.9850   13.4850  -20.3940 H   0  0  0  0  0  0  0  0  0  0  0  0
  -30.4240   15.4330  -20.0440 C   0  0  0  0  0  0  0  0  0  0  0  0
  -29.9580   16.5410  -19.8790 O   0  0  0  0  0  0  0  0  0  0  0  0
  -26.2170   12.9800  -20.4540 C   0  0  0  0  0  0  0  0  0  0  0  0
  -26.6720   13.0360  -18.9810 C   0  0  0  0  0  0  0  0  0  0  0  0
  -27.4160   14.2610  -18.8220 O   0  0  0  0  0  0  0  0  0  0  0  0
  -27.9820   14.6050  -20.3050 P   0  0  0  0  0  0  0  0  0  0  0  0
  -27.3640   13.4120  -21.2260 O   0  0  0  0  0  0  0  0  0  0  0  0
  1 13  1  6  0  0  0
  1 10  1  0  0  0  0
  2  1  1  0  0  0  0
  2  3  1  0  0  0  0
  3  4  1  0  0  0  0
  4  5  1  0  0  0  0
  4  8  1  0  0  0  0
  5  6  1  0  0  0  0
  6  7  1  0  0  0  0
  8  7  1  0  0  0  0
  9  2  2  0  0  0  0
 10  4  1  0  0  0  0
 10 11  1  0  0  0  0
 10 12  1  0  0  0  0
 13 14  1  0  0  0  0
 15 17  1  0  0  0  0
 16 15  1  0  0  0  0
 17 14  1  0  0  0  0
 17 18  2  0  0  0  0
 19 20  1  0  0  0  0
 20 21  1  0  0  0  0
 22 15  1  0  0  0  0
 22 21  1  0  0  0  0
 23 19  1  0  0  0  0
 23 22  1  0  0  0  0
M  END
>  <MODEL>
1

>  <REMARK>
 VINA RESULT:      -6.2      0.000      0.000
  Name = ZINC08554408
                            x       y       z     vdW  Elec       q    Type
                         _______ _______ _______ _____ _____    ______ ____

>  <TORSDO>
F 4

>  <vina_score>
-6.2

$$$$
ZINC06094146
 OpenBabel01081722113D

 28 29  0  0  1  0  0  0  0  0999 V2000
  -29.7860   15.7010  -19.4240 C   0  0  0  0  0  0  0  0  0  0  0  0
  -28.9920   15.0850  -20.4910 N   0  0  0  0  0  0  0  0  0  0  0  0
  -29.2840   15.1620  -21.4280 H   0  0  0  0  0  0  0  0  0  0  0  0
  -27.8620   14.4150  -20.1900 C   0  0  0  0  0  0  0  0  0  0  0  0
  -27.5020   14.3210  -19.0360 O   0  0  0  0  0  0  0  0  0  0  0  0
  -27.0470   13.7820  -21.2870 C   0  0  1  0  0  0  0  0  0  0  0  0
  -26.3960   12.5690  -20.7620 N   0  0  0  0  0  0  0  0  0  0  0  0
  -26.6910   11.7600  -21.3090 H   0  0  0  0  0  0  0  0  0  0  0  0
  -25.3830   12.6720  -20.8270 H   0  0  0  0  0  0  0  0  0  0  0  0
  -26.6620   12.4360  -19.7860 H   0  0  0  0  0  0  0  0  0  0  0  0
  -27.9600   13.4310  -22.4640 C   0  0  0  0  0  0  0  0  0  0  0  0
  -28.3150   11.9430  -22.4070 C   0  0  0  0  0  0  0  0  0  0  0  0
  -29.6960   11.7780  -21.8280 C   0  0  0  0  0  0  0  0  0  0  0  0
  -30.7760   11.9930  -22.5950 O   0  0  0  0  0  0  0  0  0  0  0  0
  -29.8320   11.4530  -20.6710 O   0  0  0  0  0  0  0  0  0  0  0  0
  -31.1710   16.0620  -19.9630 C   0  0  0  0  0  0  0  0  0  0  0  0
  -32.6150   11.2040  -18.1250 C   0  0  0  0  0  0  0  0  0  0  0  0
  -33.1650   11.4990  -19.3530 C   0  0  0  0  0  0  0  0  0  0  0  0
  -32.8870   12.7170  -19.9630 C   0  0  0  0  0  0  0  0  0  0  0  0
  -32.0450   13.6400  -19.3190 C   0  0  0  0  0  0  0  0  0  0  0  0
  -31.9580   14.8000  -20.2090 C   0  0  0  0  0  0  0  0  0  0  0  0
  -32.7120   14.5280  -21.2840 C   0  0  0  0  0  0  0  0  0  0  0  0
  -31.4930   13.3300  -18.0740 C   0  0  0  0  0  0  0  0  0  0  0  0
  -33.2760   13.2880  -21.1570 N   0  0  0  0  0  0  0  0  0  0  0  0
  -33.8710   12.8660  -21.8190 H   0  0  0  0  0  0  0  0  0  0  0  0
  -31.7800   12.1160  -17.4840 C   0  0  0  0  0  0  0  0  0  0  0  0
  -31.2460   11.8080  -16.2720 O   0  0  0  0  0  0  0  0  0  0  0  0
  -31.3180   12.4120  -15.5600 H   0  0  0  0  0  0  0  0  0  0  0  0
  2  4  1  0  0  0  0
  2  1  1  0  0  0  0
  3  2  1  0  0  0  0
  4  5  2  0  0  0  0
  6 11  1  6  0  0  0
  6  7  1  0  0  0  0
  6  4  1  0  0  0  0
  7 10  1  0  0  0  0
  8  7  1  0  0  0  0
  9  7  1  0  0  0  0
 11 12  1  0  0  0  0
 12 13  1  0  0  0  0
 13 15  1  0  0  0  0
 14 13  2  0  0  0  0
 16  1  1  0  0  0  0
 17 26  2  0  0  0  0
 18 17  1  0  0  0  0
 19 18  2  0  0  0  0
 19 20  1  0  0  0  0
 20 23  2  0  0  0  0
 21 16  1  0  0  0  0
 21 20  1  0  0  0  0
 22 24  1  0  0  0  0
 22 21  2  0  0  0  0
 23 26  1  0  0  0  0
 24 19  1  0  0  0  0
 25 24  1  0  0  0  0
 26 27  1  0  0  0  0
 27 28  1  0  0  0  0
M  END
>  <MODEL>
1

>  <REMARK>
 VINA RESULT:      -6.2      0.000      0.000
  Name = ZINC06094146
                            x       y       z     vdW  Elec       q    Type
                         _______ _______ _______ _____ _____    ______ ____

>  <TORSDO>
F 9

>  <vina_score>
-6.2

$$$$
ZINC07417784
 OpenBabel01081722123D

 20 21  0  0  0  0  0  0  0  0999 V2000
  -28.9840   15.9060  -18.8840 C   0  0  0  0  0  0  0  0  0  0  0  0
  -29.8490   15.0390  -19.5840 C   0  0  0  0  0  0  0  0  0  0  0  0
  -31.1810   15.1420  -20.0570 C   0  0  0  0  0  0  0  0  0  0  0  0
  -31.7130   14.0850  -20.7080 N   0  0  0  0  0  0  0  0  0  0  0  0
  -32.6370   14.1320  -21.0470 H   0  0  0  0  0  0  0  0  0  0  0  0
  -30.9760   12.9520  -20.9000 C   0  0  0  0  0  0  0  0  0  0  0  0
  -29.7400   12.8420  -20.4670 N   0  0  0  0  0  0  0  0  0  0  0  0
  -31.8290   16.1590  -19.8800 O   0  0  0  0  0  0  0  0  0  0  0  0
  -29.1430   13.8460  -19.8130 C   0  0  0  0  0  0  0  0  0  0  0  0
  -27.9090   14.0130  -19.2650 N   0  0  0  0  0  0  0  0  0  0  0  0
  -27.8480   15.2940  -18.7020 N   0  0  0  0  0  0  0  0  0  0  0  0
  -31.7060   11.5940  -21.7540 S   0  0  0  0  0  0  0  0  0  0  0  0
  -32.6120   10.8170  -20.3920 C   0  0  0  0  0  0  0  0  0  0  0  0
  -34.1150   10.9960  -20.6120 C   0  0  0  0  0  0  0  0  0  0  0  0
  -34.3750   12.3310  -21.0530 O   0  0  0  0  0  0  0  0  0  0  0  0
  -35.1450   12.3320  -21.6440 H   0  0  0  0  0  0  0  0  0  0  0  0
  -26.8300   13.0230  -19.2640 C   0  0  0  0  0  0  0  0  0  0  0  0
  -25.9360   13.2410  -20.4860 C   0  0  0  0  0  0  0  0  0  0  0  0
  -25.2480   12.0270  -20.7960 O   0  0  0  0  0  0  0  0  0  0  0  0
  -25.5970   11.3080  -20.2450 H   0  0  0  0  0  0  0  0  0  0  0  0
  1 11  2  0  0  0  0
  2  1  1  0  0  0  0
  3  8  2  0  0  0  0
  3  2  1  0  0  0  0
  4  3  1  0  0  0  0
  5  4  1  0  0  0  0
  6  4  1  0  0  0  0
  6  7  2  0  0  0  0
  7  9  1  0  0  0  0
  9  2  2  0  0  0  0
  9 10  1  0  0  0  0
 10 17  1  0  0  0  0
 10 11  1  0  0  0  0
 12  6  1  0  0  0  0
 12 13  1  0  0  0  0
 14 13  1  0  0  0  0
 15 14  1  0  0  0  0
 16 15  1  0  0  0  0
 18 17  1  0  0  0  0
 19 18  1  0  0  0  0
 19 20  1  0  0  0  0
M  END
>  <MODEL>
1

>  <REMARK>
 VINA RESULT:      -6.2      0.000      0.000
  Name = ZINC07417784
                            x       y       z     vdW  Elec       q    Type
                         _______ _______ _______ _____ _____    ______ ____

>  <TORSDO>
F 7

>  <vina_score>
-6.2

$$$$
ZINC20199200
 OpenBabel01081722033D

 21 21  0  0  0  0  0  0  0  0999 V2000
  -27.8930   14.8840  -18.2910 C   0  0  0  0  0  0  0  0  0  0  0  0
  -31.6270   11.7600  -17.5100 C   0  0  0  0  0  0  0  0  0  0  0  0
  -31.0990   12.9640  -18.1560 N   0  0  0  0  0  0  0  0  0  0  0  0
  -29.8020   13.3390  -17.9350 C   0  0  0  0  0  0  0  0  0  0  0  0
  -29.3180   14.4520  -18.5270 C   0  0  0  0  0  0  0  0  0  0  0  0
  -30.1640   15.2050  -19.3770 C   0  0  0  0  0  0  0  0  0  0  0  0
  -31.4350   14.7980  -19.5740 N   0  0  0  0  0  0  0  0  0  0  0  0
  -32.3200   15.5680  -20.4510 C   0  0  0  0  0  0  0  0  0  0  0  0
  -29.7480   16.2080  -19.9260 O   0  0  0  0  0  0  0  0  0  0  0  0
  -31.8930   13.6880  -18.9670 C   0  0  0  0  0  0  0  0  0  0  0  0
  -33.0410   13.3340  -19.1520 O   0  0  0  0  0  0  0  0  0  0  0  0
  -27.2100   15.0440  -19.5820 N   0  0  0  0  0  0  0  0  0  0  0  0
  -27.7150   15.7380  -20.1340 H   0  0  0  0  0  0  0  0  0  0  0  0
  -26.2500   15.3480  -19.4160 H   0  0  0  0  0  0  0  0  0  0  0  0
  -27.1900   13.7770  -20.3260 C   0  0  0  0  0  0  0  0  0  0  0  0
  -27.5380   14.0420  -21.7930 C   0  0  0  0  0  0  0  0  0  0  0  0
  -28.3560   12.9790  -22.2880 O   0  0  0  0  0  0  0  0  0  0  0  0
  -29.0340   12.2440  -21.2670 C   0  0  0  0  0  0  0  0  0  0  0  0
  -30.3420   11.6820  -21.8260 C   0  0  0  0  0  0  0  0  0  0  0  0
  -31.1540   12.7540  -22.3070 O   0  0  0  0  0  0  0  0  0  0  0  0
  -32.0680   12.6280  -22.0070 H   0  0  0  0  0  0  0  0  0  0  0  0
  3  4  1  0  0  0  0
  3  2  1  0  0  0  0
  5  1  1  0  0  0  0
  5  4  2  0  0  0  0
  6  5  1  0  0  0  0
  7  6  1  0  0  0  0
  7 10  1  0  0  0  0
  8  7  1  0  0  0  0
  9  6  2  0  0  0  0
 10  3  1  0  0  0  0
 11 10  2  0  0  0  0
 12 14  1  0  0  0  0
 12  1  1  0  0  0  0
 13 12  1  0  0  0  0
 15 12  1  0  0  0  0
 16 15  1  0  0  0  0
 17 16  1  0  0  0  0
 17 18  1  0  0  0  0
 19 18  1  0  0  0  0
 20 21  1  0  0  0  0
 20 19  1  0  0  0  0
M  END
>  <MODEL>
1

>  <REMARK>
 VINA RESULT:      -6.1      0.000      0.000
  Name = ZINC20199200
                            x       y       z     vdW  Elec       q    Type
                         _______ _______ _______ _____ _____    ______ ____

>  <TORSDO>
F 8

>  <vina_score>
-6.1

$$$$
ZINC13354670
 OpenBabel01081722153D

 27 28  0  0  1  0  0  0  0  0999 V2000
  -31.4030   15.6790  -20.2280 C   0  0  0  0  0  0  0  0  0  0  0  0
  -31.4320   14.4300  -20.7340 N   0  0  0  0  0  0  0  0  0  0  0  0
  -30.5930   13.9300  -20.8610 H   0  0  0  0  0  0  0  0  0  0  0  0
  -32.4370   16.2950  -20.0730 O   0  0  0  0  0  0  0  0  0  0  0  0
  -30.0870   16.3110  -19.8560 C   0  0  0  0  0  0  0  0  0  0  0  0
  -26.4360   13.6350  -21.0730 C   0  0  0  0  0  0  0  0  0  0  0  0
  -25.9690   12.8500  -20.0280 C   0  0  0  0  0  0  0  0  0  0  0  0
  -26.5660   12.9040  -18.7870 C   0  0  0  0  0  0  0  0  0  0  0  0
  -27.6470   13.7530  -18.5770 C   0  0  0  0  0  0  0  0  0  0  0  0
  -28.1180   14.5460  -19.6400 C   0  0  0  0  0  0  0  0  0  0  0  0
  -29.2440   15.3130  -19.1050 C   0  0  0  0  0  0  0  0  0  0  0  0
  -29.3810   14.9630  -17.8160 C   0  0  0  0  0  0  0  0  0  0  0  0
  -28.4390   14.0280  -17.4850 N   0  0  0  0  0  0  0  0  0  0  0  0
  -28.3420   13.6120  -16.5970 H   0  0  0  0  0  0  0  0  0  0  0  0
  -27.4980   14.4750  -20.8900 C   0  0  0  0  0  0  0  0  0  0  0  0
  -32.7120   13.8170  -21.0960 C   0  0  0  0  0  0  0  0  0  0  0  0
  -32.5460   12.2980  -21.1730 C   0  0  0  0  0  0  0  0  0  0  0  0
  -33.6170   11.6220  -20.3150 C   0  0  0  0  0  0  0  0  0  0  0  0
  -32.9450   10.8050  -19.2100 C   0  0  0  0  0  0  0  0  0  0  0  0
  -32.7990   11.6670  -17.9540 C   0  0  1  0  0  0  0  0  0  0  0  0
  -33.4330   11.0050  -16.8000 N   0  0  0  0  0  0  0  0  0  0  0  0
  -34.4220   11.2570  -16.7660 H   0  0  0  0  0  0  0  0  0  0  0  0
  -33.3430    9.9940  -16.8960 H   0  0  0  0  0  0  0  0  0  0  0  0
  -32.9760   11.3080  -15.9400 H   0  0  0  0  0  0  0  0  0  0  0  0
  -31.3370   11.8770  -17.6560 C   0  0  0  0  0  0  0  0  0  0  0  0
  -30.4140   11.5900  -18.5870 O   0  0  0  0  0  0  0  0  0  0  0  0
  -30.9950   12.2970  -16.5760 O   0  0  0  0  0  0  0  0  0  0  0  0
  1  4  2  0  0  0  0
  1  5  1  0  0  0  0
  2  1  1  0  0  0  0
  3  2  1  0  0  0  0
  5 11  1  0  0  0  0
  6 15  2  0  0  0  0
  6  7  1  0  0  0  0
  7  8  2  0  0  0  0
  8  9  1  0  0  0  0
  9 13  1  0  0  0  0
 10 11  1  0  0  0  0
 10  9  2  0  0  0  0
 11 12  2  0  0  0  0
 12 13  1  0  0  0  0
 13 14  1  0  0  0  0
 15 10  1  0  0  0  0
 16  2  1  0  0  0  0
 17 16  1  0  0  0  0
 17 18  1  0  0  0  0
 18 19  1  0  0  0  0
 20 19  1  6  0  0  0
 20 25  1  0  0  0  0
 20 21  1  0  0  0  0
 21 22  1  0  0  0  0
 21 24  1  0  0  0  0
 23 21  1  0  0  0  0
 25 27  1  0  0  0  0
 26 25  2  0  0  0  0
M  END
>  <MODEL>
1

>  <REMARK>
 VINA RESULT:      -6.1      0.000      0.000
  Name = ZINC13354670
                            x       y       z     vdW  Elec       q    Type
                         _______ _______ _______ _____ _____    ______ ____

>  <TORSDO>
F 9

>  <vina_score>
-6.1

$$$$
ZINC27792258
 OpenBabel01081722193D

 22 22  0  0  1  0  0  0  0  0999 V2000
  -30.8660   12.9780  -19.6060 C   0  0  1  0  0  0  0  0  0  0  0  0
  -29.8140   13.8500  -18.9700 C   0  0  0  0  0  0  0  0  0  0  0  0
  -29.0520   13.3620  -17.9260 C   0  0  0  0  0  0  0  0  0  0  0  0
  -28.0840   14.1600  -17.3440 C   0  0  0  0  0  0  0  0  0  0  0  0
  -27.8850   15.4490  -17.8020 C   0  0  0  0  0  0  0  0  0  0  0  0
  -28.6500   15.9390  -18.8430 C   0  0  0  0  0  0  0  0  0  0  0  0
  -29.6150   15.1400  -19.4270 C   0  0  0  0  0  0  0  0  0  0  0  0
  -29.4190   11.8740  -21.3180 C   0  0  0  0  0  0  0  0  0  0  0  0
  -30.5810   12.8460  -21.1040 C   0  0  1  0  0  0  0  0  0  0  0  0
  -31.7750   12.3390  -21.7850 N   0  0  0  0  0  0  0  0  0  0  0  0
  -32.8690   12.8050  -21.5230 O   0  0  0  0  0  0  0  0  0  0  0  0
  -31.6730   11.4510  -22.6130 O   0  0  0  0  0  0  0  0  0  0  0  0
  -30.8350   11.3350  -18.8380 S   0  0  0  0  0  0  0  0  0  0  0  0
  -32.4710   11.1790  -18.0700 C   0  0  0  0  0  0  0  0  0  0  0  0
  -32.9630   12.5610  -17.6340 C   0  0  1  0  0  0  0  0  0  0  0  0
  -33.9750   13.0420  -18.5850 N   0  0  0  0  0  0  0  0  0  0  0  0
  -33.6340   13.8850  -19.0460 H   0  0  0  0  0  0  0  0  0  0  0  0
  -34.1550   12.3210  -19.2830 H   0  0  0  0  0  0  0  0  0  0  0  0
  -34.8380   13.2540  -18.0840 H   0  0  0  0  0  0  0  0  0  0  0  0
  -33.5720   12.4660  -16.2590 C   0  0  0  0  0  0  0  0  0  0  0  0
  -34.1100   11.3090  -15.8420 O   0  0  0  0  0  0  0  0  0  0  0  0
  -33.5760   13.4290  -15.5310 O   0  0  0  0  0  0  0  0  0  0  0  0
  1  2  1  1  0  0  0
  1 13  1  0  0  0  0
  2  3  1  0  0  0  0
  3  4  2  0  0  0  0
  5  4  1  0  0  0  0
  6  5  2  0  0  0  0
  7  2  2  0  0  0  0
  7  6  1  0  0  0  0
  8  9  1  0  0  0  0
  9 10  1  6  0  0  0
  9  1  1  0  0  0  0
 10 11  2  0  0  0  0
 12 10  2  0  0  0  0
 13 14  1  0  0  0  0
 14 15  1  0  0  0  0
 15 16  1  6  0  0  0
 15 20  1  0  0  0  0
 16 19  1  0  0  0  0
 17 16  1  0  0  0  0
 18 16  1  0  0  0  0
 20 21  2  0  0  0  0
 20 22  1  0  0  0  0
M  END
>  <MODEL>
1

>  <REMARK>
 VINA RESULT:      -6.1      0.000      0.000
  Name = ZINC27792258
                            x       y       z     vdW  Elec       q    Type
                         _______ _______ _______ _____ _____    ______ ____

>  <TORSDO>
F 8

>  <vina_score>
-6.1

$$$$
ZINC29477247
 OpenBabel01081722233D

 26 26  0  0  1  0  0  0  0  0999 V2000
  -29.5670   12.6110  -18.4520 C   0  0  0  0  0  0  0  0  0  0  0  0
  -29.4050   12.1370  -19.7050 C   0  0  0  0  0  0  0  0  0  0  0  0
  -28.2490   12.3600  -20.3980 N   0  0  0  0  0  0  0  0  0  0  0  0
  -28.1750   11.9940  -21.3100 H   0  0  0  0  0  0  0  0  0  0  0  0
  -27.2100   13.0470  -19.9080 C   0  0  0  0  0  0  0  0  0  0  0  0
  -27.2230   13.5820  -18.6710 N   0  0  0  0  0  0  0  0  0  0  0  0
  -26.4480   14.0840  -18.3300 H   0  0  0  0  0  0  0  0  0  0  0  0
  -26.2220   13.1940  -20.6010 O   0  0  0  0  0  0  0  0  0  0  0  0
  -28.4260   13.3990  -17.8410 C   0  0  1  0  0  0  0  0  0  0  0  0
  -28.9560   14.7840  -17.4660 C   0  0  0  0  0  0  0  0  0  0  0  0
  -30.7660   12.3860  -17.7350 C   0  0  0  0  0  0  0  0  0  0  0  0
  -30.8940   11.3800  -17.0640 O   0  0  0  0  0  0  0  0  0  0  0  0
  -31.7680   13.2880  -17.7970 O   0  0  0  0  0  0  0  0  0  0  0  0
  -33.5310   12.8890  -16.1920 C   0  0  0  0  0  0  0  0  0  0  0  0
  -33.1000   12.7890  -17.6570 C   0  0  0  0  0  0  0  0  0  0  0  0
  -30.5150   11.3480  -20.3500 C   0  0  0  0  0  0  0  0  0  0  0  0
  -31.0510   12.1860  -21.8610 S   0  0  0  0  0  0  0  0  0  0  0  0
  -32.0810   13.4380  -21.1690 C   0  0  0  0  0  0  0  0  0  0  0  0
  -31.5500   14.5390  -20.7150 N   0  0  0  0  0  0  0  0  0  0  0  0
  -30.5710   14.6310  -20.6650 H   0  0  0  0  0  0  0  0  0  0  0  0
  -33.4420   13.2530  -21.1080 N   0  0  0  0  0  0  0  0  0  0  0  0
  -34.0430   14.0310  -21.0490 H   0  0  0  0  0  0  0  0  0  0  0  0
  -33.8160   12.3420  -21.1230 H   0  0  0  0  0  0  0  0  0  0  0  0
  -32.4130   15.6400  -20.2790 C   0  0  0  0  0  0  0  0  0  0  0  0
  -31.6320   16.9300  -20.3040 C   0  0  0  0  0  0  0  0  0  0  0  0
  -30.3460   16.9230  -20.0550 C   0  0  0  0  0  0  0  0  0  0  0  0
  1  9  1  0  0  0  0
  1 11  1  0  0  0  0
  2  1  2  0  0  0  0
  3  5  1  0  0  0  0
  3  2  1  0  0  0  0
  4  3  1  0  0  0  0
  5  6  1  0  0  0  0
  6  7  1  0  0  0  0
  6  9  1  0  0  0  0
  8  5  2  0  0  0  0
  9 10  1  6  0  0  0
 11 12  2  0  0  0  0
 13 11  1  0  0  0  0
 13 15  1  0  0  0  0
 15 14  1  0  0  0  0
 16  2  1  0  0  0  0
 17 18  1  0  0  0  0
 17 16  1  0  0  0  0
 18 21  2  0  0  0  0
 18 19  1  0  0  0  0
 19 20  1  0  0  0  0
 19 24  1  0  0  0  0
 21 22  1  0  0  0  0
 23 21  1  0  0  0  0
 25 24  1  0  0  0  0
 25 26  2  0  0  0  0
M  END
>  <MODEL>
1

>  <REMARK>
 VINA RESULT:      -6.1      0.000      0.000
  Name = ZINC29477247
                            x       y       z     vdW  Elec       q    Type
                         _______ _______ _______ _____ _____    ______ ____

>  <TORSDO>
F 9

>  <vina_score>
-6.1

$$$$
ZINC16955860
 OpenBabel01081722233D

 28 29  0  0  1  0  0  0  0  0999 V2000
  -30.1750   13.1600  -18.4360 C   0  0  0  0  0  0  0  0  0  0  0  0
  -30.6880   12.8670  -19.7100 C   0  0  0  0  0  0  0  0  0  0  0  0
  -32.0440   12.6190  -19.5080 C   0  0  0  0  0  0  0  0  0  0  0  0
  -32.2590   12.7640  -18.1590 N   0  0  0  0  0  0  0  0  0  0  0  0
  -33.1250   12.6480  -17.7080 H   0  0  0  0  0  0  0  0  0  0  0  0
  -31.1560   13.0760  -17.5780 N   0  0  0  0  0  0  0  0  0  0  0  0
  -26.6950   13.4680  -19.1930 C   0  0  1  0  0  0  0  0  0  0  0  0
  -27.2890   14.8600  -19.5230 C   0  0  2  0  0  0  0  0  0  0  0  0
  -28.4540   14.9650  -18.5080 C   0  0  1  0  0  0  0  0  0  0  0  0
  -28.7440   13.5030  -18.1150 C   0  0  2  0  0  0  0  0  0  0  0  0
  -27.8570   12.6680  -18.8780 O   0  0  0  0  0  0  0  0  0  0  0  0
  -27.7780   14.9010  -20.8660 O   0  0  0  0  0  0  0  0  0  0  0  0
  -28.4930   15.5550  -20.9300 H   0  0  0  0  0  0  0  0  0  0  0  0
  -28.0530   15.7210  -17.3640 O   0  0  0  0  0  0  0  0  0  0  0  0
  -27.5520   15.1520  -16.7590 H   0  0  0  0  0  0  0  0  0  0  0  0
  -25.9590   12.8940  -20.4070 C   0  0  0  0  0  0  0  0  0  0  0  0
  -26.9060   12.3340  -21.3180 O   0  0  0  0  0  0  0  0  0  0  0  0
  -26.8800   11.3670  -21.2590 H   0  0  0  0  0  0  0  0  0  0  0  0
  -33.0370   12.2680  -20.5260 C   0  0  0  0  0  0  0  0  0  0  0  0
  -33.7540   11.1340  -20.4040 N   0  0  0  0  0  0  0  0  0  0  0  0
  -33.6140   10.5440  -19.6280 H   0  0  0  0  0  0  0  0  0  0  0  0
  -33.2100   12.9980  -21.4840 O   0  0  0  0  0  0  0  0  0  0  0  0
  -34.6770   10.8030  -21.3560 N   0  0  0  0  0  0  0  0  0  0  0  0
  -34.1970   10.5030  -22.2040 H   0  0  0  0  0  0  0  0  0  0  0  0
  -35.2630   10.0440  -21.0110 H   0  0  0  0  0  0  0  0  0  0  0  0
  -29.9930   12.8350  -20.9160 N   0  0  0  0  0  0  0  0  0  0  0  0
  -29.6070   11.9900  -21.2410 H   0  0  0  0  0  0  0  0  0  0  0  0
  -29.8870   13.6590  -21.4460 H   0  0  0  0  0  0  0  0  0  0  0  0
  1  6  2  0  0  0  0
  2  3  2  0  0  0  0
  2  1  1  0  0  0  0
  3  4  1  0  0  0  0
  4  5  1  0  0  0  0
  4  6  1  0  0  0  0
  7 16  1  6  0  0  0
  7 11  1  0  0  0  0
  8 12  1  6  0  0  0
  8  7  1  0  0  0  0
  8  9  1  0  0  0  0
  9 10  1  0  0  0  0
  9 14  1  1  0  0  0
 10  1  1  6  0  0  0
 11 10  1  0  0  0  0
 13 12  1  0  0  0  0
 14 15  1  0  0  0  0
 17 18  1  0  0  0  0
 17 16  1  0  0  0  0
 19 20  1  0  0  0  0
 19  3  1  0  0  0  0
 20 21  1  0  0  0  0
 22 19  2  0  0  0  0
 23 25  1  0  0  0  0
 23 20  1  0  0  0  0
 24 23  1  0  0  0  0
 26  2  1  0  0  0  0
 27 26  1  0  0  0  0
 28 26  1  0  0  0  0
M  END
>  <MODEL>
1

>  <REMARK>
 VINA RESULT:      -6.1      0.000      0.000
  Name = ZINC16955860
                            x       y       z     vdW  Elec       q    Type
                         _______ _______ _______ _____ _____    ______ ____

>  <TORSDO>
F 8

>  <vina_score>
-6.1

$$$$
ZINC02338152
 OpenBabel01081722293D

 26 27  0  0  0  0  0  0  0  0999 V2000
  -29.2060   12.6380  -20.8150 C   0  0  0  0  0  0  0  0  0  0  0  0
  -27.9020   12.4070  -20.8090 N   0  0  0  0  0  0  0  0  0  0  0  0
  -27.0530   13.3070  -20.3370 C   0  0  0  0  0  0  0  0  0  0  0  0
  -25.5710   13.0330  -20.3430 C   0  0  0  0  0  0  0  0  0  0  0  0
  -27.5400   14.4990  -19.8370 C   0  0  0  0  0  0  0  0  0  0  0  0
  -28.9200   14.7120  -19.8510 C   0  0  0  0  0  0  0  0  0  0  0  0
  -29.7150   13.7660  -20.3440 N   0  0  0  0  0  0  0  0  0  0  0  0
  -29.4550   15.8920  -19.3590 N   0  0  0  0  0  0  0  0  0  0  0  0
  -29.4590   16.0640  -18.3900 H   0  0  0  0  0  0  0  0  0  0  0  0
  -30.0120   16.8850  -20.2820 C   0  0  0  0  0  0  0  0  0  0  0  0
  -31.5210   16.9950  -20.0610 C   0  0  0  0  0  0  0  0  0  0  0  0
  -32.1740   15.7850  -20.5940 N   0  0  0  0  0  0  0  0  0  0  0  0
  -33.1760   15.8340  -20.4140 H   0  0  0  0  0  0  0  0  0  0  0  0
  -32.0110   15.7260  -21.5980 H   0  0  0  0  0  0  0  0  0  0  0  0
  -31.7860   14.9600  -20.1360 H   0  0  0  0  0  0  0  0  0  0  0  0
  -30.0600   11.6740  -21.3200 N   0  0  0  0  0  0  0  0  0  0  0  0
  -31.6870   11.9720  -21.4060 S   0  0  0  0  0  0  0  0  0  0  0  0
  -31.8340   13.2510  -22.0060 O   0  0  0  0  0  0  0  0  0  0  0  0
  -32.2850   10.8030  -21.9490 O   0  0  0  0  0  0  0  0  0  0  0  0
  -33.6990   12.4930  -15.7420 C   0  0  0  0  0  0  0  0  0  0  0  0
  -33.1970   12.3620  -17.1570 C   0  0  0  0  0  0  0  0  0  0  0  0
  -32.0980   11.5680  -17.4300 C   0  0  0  0  0  0  0  0  0  0  0  0
  -31.6380   11.4480  -18.7280 C   0  0  0  0  0  0  0  0  0  0  0  0
  -32.2780   12.1190  -19.7530 C   0  0  0  0  0  0  0  0  0  0  0  0
  -33.3770   12.9130  -19.4810 C   0  0  0  0  0  0  0  0  0  0  0  0
  -33.8360   13.0340  -18.1820 C   0  0  0  0  0  0  0  0  0  0  0  0
  1  2  2  0  0  0  0
  1  7  1  0  0  0  0
  2  3  1  0  0  0  0
  3  5  2  0  0  0  0
  4  3  1  0  0  0  0
  6  5  1  0  0  0  0
  6  8  1  0  0  0  0
  7  6  2  0  0  0  0
  8  9  1  0  0  0  0
 10 11  1  0  0  0  0
 10  8  1  0  0  0  0
 12 13  1  0  0  0  0
 12 15  1  0  0  0  0
 12 11  1  0  0  0  0
 14 12  1  0  0  0  0
 16  1  1  0  0  0  0
 17 16  1  0  0  0  0
 17 24  1  0  0  0  0
 18 17  2  0  0  0  0
 19 17  2  0  0  0  0
 21 20  1  0  0  0  0
 22 21  1  0  0  0  0
 23 22  2  0  0  0  0
 24 25  2  0  0  0  0
 24 23  1  0  0  0  0
 25 26  1  0  0  0  0
 26 21  2  0  0  0  0
M  END
>  <MODEL>
1

>  <REMARK>
 VINA RESULT:      -6.1      0.000      0.000
  Name = ZINC02338152
                            x       y       z     vdW  Elec       q    Type
                         _______ _______ _______ _____ _____    ______ ____

>  <TORSDO>
F 7

>  <vina_score>
-6.1

$$$$
ZINC29550972
 OpenBabel01081722283D

 19 19  0  0  1  0  0  0  0  0999 V2000
  -31.8850   14.2130  -19.4400 C   0  0  0  0  0  0  0  0  0  0  0  0
  -30.6940   13.5560  -19.9850 N   0  0  0  0  0  0  0  0  0  0  0  0
  -30.7900   12.7600  -20.5570 H   0  0  0  0  0  0  0  0  0  0  0  0
  -28.3540   13.8250  -20.5540 C   0  0  0  0  0  0  0  0  0  0  0  0
  -27.1150   14.3340  -20.2280 C   0  0  0  0  0  0  0  0  0  0  0  0
  -26.9420   15.0400  -19.1260 N   0  0  0  0  0  0  0  0  0  0  0  0
  -26.0460   15.3950  -18.9210 H   0  0  0  0  0  0  0  0  0  0  0  0
  -27.9340   15.2840  -18.2910 C   0  0  0  0  0  0  0  0  0  0  0  0
  -29.2020   14.8060  -18.5410 C   0  0  0  0  0  0  0  0  0  0  0  0
  -29.4290   14.0560  -19.6950 C   0  0  1  0  0  0  0  0  0  0  0  0
  -32.9960   13.1790  -19.2470 C   0  0  0  0  0  0  0  0  0  0  0  0
  -32.7410   12.3000  -17.6700 P   0  0  0  0  0  0  0  0  0  0  0  0
  -31.1690   12.0190  -17.4610 O   0  0  0  0  0  0  0  0  0  0  0  0
  -33.5370   10.9010  -17.6990 O   0  0  0  0  0  0  0  0  0  0  0  0
  -33.2450   13.1320  -16.5550 O   0  0  0  0  0  0  0  0  0  0  0  0
  -32.9580   11.9820  -20.6220 P   0  0  0  0  0  0  0  0  0  0  0  0
  -34.4210   11.3390  -20.8150 O   0  0  0  0  0  0  0  0  0  0  0  0
  -31.8990   10.8150  -20.2890 O   0  0  0  0  0  0  0  0  0  0  0  0
  -32.5550   12.6740  -21.8670 O   0  0  0  0  0  0  0  0  0  0  0  0
  1 11  1  0  0  0  0
  2  1  1  0  0  0  0
  3  2  1  0  0  0  0
  4  5  2  0  0  0  0
  4 10  1  0  0  0  0
  5  6  1  0  0  0  0
  6  7  1  0  0  0  0
  6  8  1  0  0  0  0
  9  8  2  0  0  0  0
 10  2  1  6  0  0  0
 10  9  1  0  0  0  0
 11 12  1  0  0  0  0
 12 13  1  0  0  0  0
 12 15  1  0  0  0  0
 14 12  2  0  0  0  0
 16 18  1  0  0  0  0
 16 11  1  0  0  0  0
 17 16  1  0  0  0  0
 19 16  2  0  0  0  0
M  END
>  <MODEL>
1

>  <REMARK>
 VINA RESULT:      -6.1      0.000      0.000
  Name = ZINC29550972
                            x       y       z     vdW  Elec       q    Type
                         _______ _______ _______ _____ _____    ______ ____

>  <TORSDO>
F 5

>  <vina_score>
-6.1

$$$$
ZINC31998538
 OpenBabel01081722053D

 22 23  0  0  0  0  0  0  0  0999 V2000
  -29.6890   11.7490  -21.1050 N   0  0  0  0  0  0  0  0  0  0  0  0
  -28.9460   12.3490  -20.1270 C   0  0  0  0  0  0  0  0  0  0  0  0
  -28.0120   13.1630  -20.7920 C   0  0  0  0  0  0  0  0  0  0  0  0
  -28.2230   13.0380  -22.1130 N   0  0  0  0  0  0  0  0  0  0  0  0
  -27.1050   13.9040  -20.0070 C   0  0  0  0  0  0  0  0  0  0  0  0
  -27.1830   13.8040  -18.6850 N   0  0  0  0  0  0  0  0  0  0  0  0
  -28.0770   13.0220  -18.1080 C   0  0  0  0  0  0  0  0  0  0  0  0
  -28.9410   12.3080  -18.7970 N   0  0  0  0  0  0  0  0  0  0  0  0
  -29.1940   12.2200  -22.3310 N   0  0  0  0  0  0  0  0  0  0  0  0
  -26.1670   14.7270  -20.5990 N   0  0  0  0  0  0  0  0  0  0  0  0
  -26.1210   14.7960  -21.5800 H   0  0  0  0  0  0  0  0  0  0  0  0
  -25.5430   15.2450  -20.0400 H   0  0  0  0  0  0  0  0  0  0  0  0
  -30.7910   10.8030  -20.9120 C   0  0  0  0  0  0  0  0  0  0  0  0
  -32.0810   11.4000  -21.4810 C   0  0  0  0  0  0  0  0  0  0  0  0
  -33.1680   11.1080  -20.6010 O   0  0  0  0  0  0  0  0  0  0  0  0
  -33.8060   12.2680  -20.0620 C   0  0  0  0  0  0  0  0  0  0  0  0
  -32.9610   12.7700  -18.5270 P   0  0  1  0  0  0  0  0  0  0  0  0
  -34.0240   13.4400  -17.5230 O   0  0  0  0  0  0  0  0  0  0  0  0
  -32.3570   11.5800  -17.8850 O   0  0  0  0  0  0  0  0  0  0  0  0
  -31.8050   13.8350  -18.8750 O   0  0  0  0  0  0  0  0  0  0  0  0
  -30.6730   15.6720  -19.9630 C   0  0  0  0  0  0  0  0  0  0  0  0
  -31.8880   14.7430  -19.9750 C   0  0  0  0  0  0  0  0  0  0  0  0
  1 13  1  0  0  0  0
  1  2  1  0  0  0  0
  2  8  1  0  0  0  0
  3  2  2  0  0  0  0
  3  5  1  0  0  0  0
  4  3  1  0  0  0  0
  5  6  2  0  0  0  0
  6  7  1  0  0  0  0
  8  7  2  0  0  0  0
  9  4  2  0  0  0  0
  9  1  1  0  0  0  0
 10 12  1  0  0  0  0
 10  5  1  0  0  0  0
 11 10  1  0  0  0  0
 14 13  1  0  0  0  0
 14 15  1  0  0  0  0
 15 16  1  0  0  0  0
 17 16  1  6  0  0  0
 17 19  2  0  0  0  0
 17 18  1  0  0  0  0
 20 17  1  0  0  0  0
 22 21  1  0  0  0  0
 22 20  1  0  0  0  0
M  END
>  <MODEL>
1

>  <REMARK>
 VINA RESULT:      -6.1      0.000      0.000
  Name = ZINC31998538
                            x       y       z     vdW  Elec       q    Type
                         _______ _______ _______ _____ _____    ______ ____

>  <TORSDO>
F 8

>  <vina_score>
-6.1

$$$$
ZINC14709525
 OpenBabel01081722103D

 19 19  0  0  1  0  0  0  0  0999 V2000
  -31.6360   12.7860  -17.7890 C   0  0  0  0  0  0  0  0  0  0  0  0
  -32.9380   13.0220  -18.5090 C   0  0  0  0  0  0  0  0  0  0  0  0
  -33.9360   13.3070  -17.8790 O   0  0  0  0  0  0  0  0  0  0  0  0
  -32.9990   12.9140  -19.9190 C   0  0  1  0  0  0  0  0  0  0  0  0
  -32.2780   13.7870  -20.7120 C   0  0  0  0  0  0  0  0  0  0  0  0
  -31.6200   13.3270  -21.7970 N   0  0  0  0  0  0  0  0  0  0  0  0
  -31.6530   12.3700  -22.0230 H   0  0  0  0  0  0  0  0  0  0  0  0
  -32.2260   15.2530  -20.3670 C   0  0  0  0  0  0  0  0  0  0  0  0
  -33.8090   11.8980  -20.5240 C   0  0  0  0  0  0  0  0  0  0  0  0
  -34.4500   11.0930  -21.0030 N   0  0  0  0  0  0  0  0  0  0  0  0
  -30.7160   11.4680  -18.6220 S   0  0  0  0  0  0  0  0  0  0  0  0
  -27.5570   13.3890  -19.8660 C   0  0  0  0  0  0  0  0  0  0  0  0
  -28.7930   12.8560  -20.1070 N   0  0  0  0  0  0  0  0  0  0  0  0
  -29.2910   12.8690  -20.9560 H   0  0  0  0  0  0  0  0  0  0  0  0
  -29.1940   12.3010  -18.9260 C   0  0  0  0  0  0  0  0  0  0  0  0
  -28.2310   12.5090  -18.0570 N   0  0  0  0  0  0  0  0  0  0  0  0
  -27.2690   13.1510  -18.6170 N   0  0  0  0  0  0  0  0  0  0  0  0
  -27.5170   14.4780  -22.0930 C   0  0  0  0  0  0  0  0  0  0  0  0
  -26.6880   14.1160  -20.8590 C   0  0  0  0  0  0  0  0  0  0  0  0
  2  3  2  0  0  0  0
  2  1  1  0  0  0  0
  4  5  1  1  0  0  0
  4  2  1  0  0  0  0
  5  8  1  0  0  0  0
  6  5  2  0  0  0  0
  7  6  1  0  0  0  0
  9  4  1  0  0  0  0
 10  9  3  0  0  0  0
 11  1  1  0  0  0  0
 12 17  2  0  0  0  0
 13 12  1  0  0  0  0
 13 15  1  0  0  0  0
 14 13  1  0  0  0  0
 15 11  1  0  0  0  0
 15 16  2  0  0  0  0
 17 16  1  0  0  0  0
 18 19  1  0  0  0  0
 19 12  1  0  0  0  0
M  END
>  <MODEL>
1

>  <REMARK>
 VINA RESULT:      -6.1      0.000      0.000
  Name = ZINC14709525
                            x       y       z     vdW  Elec       q    Type
                         _______ _______ _______ _____ _____    ______ ____

>  <TORSDO>
F 7

>  <vina_score>
-6.1

$$$$
ZINC19731960
 OpenBabel01081722133D

 23 24  0  0  1  0  0  0  0  0999 V2000
  -31.9150   15.5570  -19.9160 C   0  0  0  0  0  0  0  0  0  0  0  0
  -32.3550   14.5810  -21.0100 C   0  0  0  0  0  0  0  0  0  0  0  0
  -31.4410   12.3390  -21.0180 C   0  0  0  0  0  0  0  0  0  0  0  0
  -32.4610   13.2290  -20.4460 N   0  0  0  0  0  0  0  0  0  0  0  0
  -33.3770   12.8560  -20.6930 H   0  0  0  0  0  0  0  0  0  0  0  0
  -32.3680   13.2620  -18.9800 C   0  0  2  0  0  0  0  0  0  0  0  0
  -31.2090   12.3660  -18.5120 C   0  0  0  0  0  0  0  0  0  0  0  0
  -31.3010   12.1400  -16.9840 C   0  0  0  0  0  0  0  0  0  0  0  0
  -33.1050   12.2910  -16.6610 S   0  0  0  0  0  0  0  0  0  0  0  0
  -33.6190   11.0170  -16.3010 O   0  0  0  0  0  0  0  0  0  0  0  0
  -33.3290   13.4040  -15.8050 O   0  0  0  0  0  0  0  0  0  0  0  0
  -33.6850   12.7140  -18.3580 C   0  0  0  0  0  0  0  0  0  0  0  0
  -30.5690   16.1760  -20.2950 C   0  0  0  0  0  0  0  0  0  0  0  0
  -29.6860   16.1180  -19.1750 O   0  0  0  0  0  0  0  0  0  0  0  0
  -28.7960   15.0910  -19.1420 C   0  0  0  0  0  0  0  0  0  0  0  0
  -28.2210   14.7090  -17.9380 C   0  0  0  0  0  0  0  0  0  0  0  0
  -27.3160   13.6650  -17.9020 C   0  0  0  0  0  0  0  0  0  0  0  0
  -26.9810   12.9980  -19.0660 C   0  0  0  0  0  0  0  0  0  0  0  0
  -27.5480   13.3810  -20.2740 C   0  0  0  0  0  0  0  0  0  0  0  0
  -28.4620   14.4260  -20.3110 C   0  0  0  0  0  0  0  0  0  0  0  0
  -27.2050   12.7110  -21.4520 N   0  0  0  0  0  0  0  0  0  0  0  0
  -27.4240   13.1080  -22.3260 H   0  0  0  0  0  0  0  0  0  0  0  0
  -26.7430   11.8420  -21.4070 H   0  0  0  0  0  0  0  0  0  0  0  0
  2  4  1  0  0  0  0
  2  1  1  0  0  0  0
  3  4  1  0  0  0  0
  5  4  1  0  0  0  0
  6  4  1  6  0  0  0
  6  7  1  0  0  0  0
  6 12  1  0  0  0  0
  7  8  1  0  0  0  0
  8  9  1  0  0  0  0
  9 10  2  0  0  0  0
  9 11  2  0  0  0  0
 12  9  1  0  0  0  0
 13  1  1  0  0  0  0
 13 14  1  0  0  0  0
 14 15  1  0  0  0  0
 15 16  2  0  0  0  0
 16 17  1  0  0  0  0
 18 17  2  0  0  0  0
 19 18  1  0  0  0  0
 20 19  2  0  0  0  0
 20 15  1  0  0  0  0
 21 23  1  0  0  0  0
 21 19  1  0  0  0  0
 22 21  1  0  0  0  0
M  END
>  <MODEL>
1

>  <REMARK>
 VINA RESULT:      -6.0      0.000      0.000
  Name = ZINC19731960
                            x       y       z     vdW  Elec       q    Type
                         _______ _______ _______ _____ _____    ______ ____

>  <TORSDO>
F 7

>  <vina_score>
-6.0

$$$$
ZINC05396591
 OpenBabel01081722153D

 21 21  0  0  0  0  0  0  0  0999 V2000
  -30.2550   13.2120  -19.9530 N   0  0  0  0  0  0  0  0  0  0  0  0
  -30.9070   13.8860  -20.2530 H   0  0  0  0  0  0  0  0  0  0  0  0
  -30.5230   12.4470  -18.8760 C   0  0  0  0  0  0  0  0  0  0  0  0
  -29.7180   11.6150  -18.5050 O   0  0  0  0  0  0  0  0  0  0  0  0
  -31.7910   12.6220  -18.1480 C   0  0  0  0  0  0  0  0  0  0  0  0
  -32.0870   12.1640  -16.8750 C   0  0  0  0  0  0  0  0  0  0  0  0
  -33.3990   12.5750  -16.6310 C   0  0  0  0  0  0  0  0  0  0  0  0
  -33.8210   13.2220  -17.6880 N   0  0  0  0  0  0  0  0  0  0  0  0
  -32.9070   13.2730  -18.5890 N   0  0  0  0  0  0  0  0  0  0  0  0
  -32.9970   13.7150  -19.4640 H   0  0  0  0  0  0  0  0  0  0  0  0
  -34.1750   12.3250  -15.3950 N   0  0  0  0  0  0  0  0  0  0  0  0
  -34.3900   13.2360  -14.6160 O   0  0  0  0  0  0  0  0  0  0  0  0
  -34.5980   11.2080  -15.1570 O   0  0  0  0  0  0  0  0  0  0  0  0
  -28.9940   13.0390  -20.6780 C   0  0  0  0  0  0  0  0  0  0  0  0
  -28.3120   14.3970  -20.8510 C   0  0  0  0  0  0  0  0  0  0  0  0
  -27.2590   14.5360  -19.8230 N   0  0  0  0  0  0  0  0  0  0  0  0
  -26.4920   15.0860  -20.2070 H   0  0  0  0  0  0  0  0  0  0  0  0
  -27.7970   14.3010  -17.4220 C   0  0  0  0  0  0  0  0  0  0  0  0
  -27.8000   15.2310  -18.6360 C   0  0  0  0  0  0  0  0  0  0  0  0
  -26.7510   13.2020  -19.4400 C   0  0  0  0  0  0  0  0  0  0  0  0
  -25.5680   12.8490  -20.3440 C   0  0  0  0  0  0  0  0  0  0  0  0
  1  3  1  0  0  0  0
  2  1  1  0  0  0  0
  3  4  2  0  0  0  0
  3  5  1  0  0  0  0
  5  6  2  0  0  0  0
  6  7  1  0  0  0  0
  7 11  1  0  0  0  0
  8  7  2  0  0  0  0
  9  5  1  0  0  0  0
  9  8  1  0  0  0  0
 10  9  1  0  0  0  0
 11 13  2  0  0  0  0
 11 12  2  0  0  0  0
 14  1  1  0  0  0  0
 15 14  1  0  0  0  0
 15 16  1  0  0  0  0
 16 20  1  0  0  0  0
 16 19  1  0  0  0  0
 17 16  1  0  0  0  0
 19 18  1  0  0  0  0
 21 20  1  0  0  0  0
M  END
>  <MODEL>
1

>  <REMARK>
 VINA RESULT:      -6.0      0.000      0.000
  Name = ZINC05396591
                            x       y       z     vdW  Elec       q    Type
                         _______ _______ _______ _____ _____    ______ ____

>  <TORSDO>
F 7

>  <vina_score>
-6.0

$$$$
ZINC19504327
 OpenBabel01081722163D

 20 20  0  0  1  0  0  0  0  0999 V2000
  -28.1460   13.4400  -20.6630 C   0  0  0  0  0  0  0  0  0  0  0  0
  -28.7650   12.3640  -21.2790 C   0  0  0  0  0  0  0  0  0  0  0  0
  -30.0760   12.0530  -20.9730 C   0  0  0  0  0  0  0  0  0  0  0  0
  -30.7720   12.8100  -20.0480 C   0  0  0  0  0  0  0  0  0  0  0  0
  -30.1580   13.8810  -19.4260 C   0  0  0  0  0  0  0  0  0  0  0  0
  -28.8430   14.1980  -19.7270 C   0  0  0  0  0  0  0  0  0  0  0  0
  -25.8400   12.9090  -20.4160 C   0  0  0  0  0  0  0  0  0  0  0  0
  -26.8560   13.7500  -20.9660 O   0  0  0  0  0  0  0  0  0  0  0  0
  -32.2010   12.4660  -19.7170 C   0  0  1  0  0  0  0  0  0  0  0  0
  -32.6280   13.2320  -18.5390 N   0  0  0  0  0  0  0  0  0  0  0  0
  -33.2590   12.6630  -17.9740 H   0  0  0  0  0  0  0  0  0  0  0  0
  -31.8110   13.4850  -17.9830 H   0  0  0  0  0  0  0  0  0  0  0  0
  -33.1100   14.0780  -18.8400 H   0  0  0  0  0  0  0  0  0  0  0  0
  -33.0860   12.8110  -20.8870 C   0  0  0  0  0  0  0  0  0  0  0  0
  -32.7670   13.8400  -21.6880 O   0  0  0  0  0  0  0  0  0  0  0  0
  -34.0810   12.1620  -21.1050 O   0  0  0  0  0  0  0  0  0  0  0  0
  -28.2380   15.2520  -19.1160 O   0  0  0  0  0  0  0  0  0  0  0  0
  -27.7790   15.0480  -17.7780 C   0  0  0  0  0  0  0  0  0  0  0  0
  -28.8170   15.3260  -16.8810 F   0  0  0  0  0  0  0  0  0  0  0  0
  -27.3710   13.7190  -17.6220 F   0  0  0  0  0  0  0  0  0  0  0  0
  1  6  2  0  0  0  0
  2  3  2  0  0  0  0
  2  1  1  0  0  0  0
  3  4  1  0  0  0  0
  4  9  1  0  0  0  0
  4  5  2  0  0  0  0
  6  5  1  0  0  0  0
  6 17  1  0  0  0  0
  8  1  1  0  0  0  0
  8  7  1  0  0  0  0
  9 14  1  6  0  0  0
  9 10  1  0  0  0  0
 10 12  1  0  0  0  0
 10 11  1  0  0  0  0
 13 10  1  0  0  0  0
 15 14  2  0  0  0  0
 16 14  1  0  0  0  0
 17 18  1  0  0  0  0
 18 20  1  0  0  0  0
 18 19  1  0  0  0  0
M  END
>  <MODEL>
1

>  <REMARK>
 VINA RESULT:      -6.0      0.000      0.000
  Name = ZINC19504327
                            x       y       z     vdW  Elec       q    Type
                         _______ _______ _______ _____ _____    ______ ____

>  <TORSDO>
F 6

>  <vina_score>
-6.0

$$$$
ZINC04314877
 OpenBabel01081722153D

 26 28  0  0  0  0  0  0  0  0999 V2000
  -29.0300   14.3080  -17.3430 C   0  0  0  0  0  0  0  0  0  0  0  0
  -28.7560   13.9990  -18.7490 N   0  0  0  0  0  0  0  0  0  0  0  0
  -29.6930   13.3050  -19.4990 C   0  0  0  0  0  0  0  0  0  0  0  0
  -29.4100   13.0230  -20.8290 C   0  0  0  0  0  0  0  0  0  0  0  0
  -30.5030   12.3370  -21.3190 N   0  0  0  0  0  0  0  0  0  0  0  0
  -31.3840   12.2260  -20.3070 C   0  0  0  0  0  0  0  0  0  0  0  0
  -28.1810   13.4490  -21.3770 C   0  0  0  0  0  0  0  0  0  0  0  0
  -27.3080   14.1200  -20.5960 N   0  0  0  0  0  0  0  0  0  0  0  0
  -26.0310   14.5640  -21.1560 C   0  0  0  0  0  0  0  0  0  0  0  0
  -27.9090   13.2130  -22.5400 O   0  0  0  0  0  0  0  0  0  0  0  0
  -30.9000   12.8000  -19.2350 N   0  0  0  0  0  0  0  0  0  0  0  0
  -27.5930   14.3820  -19.3080 C   0  0  0  0  0  0  0  0  0  0  0  0
  -26.7820   14.9850  -18.6320 O   0  0  0  0  0  0  0  0  0  0  0  0
  -32.7270   11.5460  -20.3960 C   0  0  0  0  0  0  0  0  0  0  0  0
  -33.3930   11.6190  -19.0790 N   0  0  0  0  0  0  0  0  0  0  0  0
  -34.3400   11.2490  -19.1630 H   0  0  0  0  0  0  0  0  0  0  0  0
  -33.4670   13.0260  -18.6290 C   0  0  0  0  0  0  0  0  0  0  0  0
  -34.2640   13.0880  -17.3240 C   0  0  0  0  0  0  0  0  0  0  0  0
  -33.5590   12.2430  -16.2600 C   0  0  0  0  0  0  0  0  0  0  0  0
  -33.4210   10.8050  -16.7690 C   0  0  0  0  0  0  0  0  0  0  0  0
  -32.6500   10.8090  -18.0910 C   0  0  0  0  0  0  0  0  0  0  0  0
  -34.3690   12.2510  -14.9900 C   0  0  0  0  0  0  0  0  0  0  0  0
  -34.9030   11.1060  -14.5220 N   0  0  0  0  0  0  0  0  0  0  0  0
  -35.4320   11.1130  -13.6920 H   0  0  0  0  0  0  0  0  0  0  0  0
  -34.7630   10.2630  -15.0110 H   0  0  0  0  0  0  0  0  0  0  0  0
  -34.5410   13.2900  -14.3880 O   0  0  0  0  0  0  0  0  0  0  0  0
  2  1  1  0  0  0  0
  3 11  1  0  0  0  0
  3  2  1  0  0  0  0
  4  3  2  0  0  0  0
  5  4  1  0  0  0  0
  5  6  1  0  0  0  0
  6 11  2  0  0  0  0
  7  4  1  0  0  0  0
  7  8  1  0  0  0  0
  8 12  1  0  0  0  0
  9  8  1  0  0  0  0
 10  7  2  0  0  0  0
 12  2  1  0  0  0  0
 12 13  2  0  0  0  0
 14  6  1  0  0  0  0
 14 15  1  0  0  0  0
 15 17  1  0  0  0  0
 15 21  1  0  0  0  0
 16 15  1  0  0  0  0
 17 18  1  0  0  0  0
 18 19  1  0  0  0  0
 19 22  1  0  0  0  0
 20 19  1  0  0  0  0
 21 20  1  0  0  0  0
 22 23  1  0  0  0  0
 22 26  2  0  0  0  0
 23 24  1  0  0  0  0
 25 23  1  0  0  0  0
M  END
>  <MODEL>
1

>  <REMARK>
 VINA RESULT:      -6.0      0.000      0.000
  Name = ZINC04314877
                            x       y       z     vdW  Elec       q    Type
                         _______ _______ _______ _____ _____    ______ ____

>  <TORSDO>
F 3

>  <vina_score>
-6.0

$$$$
ZINC05116227
 OpenBabel01081722163D

 22 22  0  0  0  0  0  0  0  0999 V2000
  -31.1420   12.4780  -20.5760 N   0  0  0  0  0  0  0  0  0  0  0  0
  -27.7820   15.2380  -18.2830 C   0  0  0  0  0  0  0  0  0  0  0  0
  -28.2070   14.3860  -19.4510 C   0  0  0  0  0  0  0  0  0  0  0  0
  -29.4700   13.8280  -19.4760 C   0  0  0  0  0  0  0  0  0  0  0  0
  -29.8610   13.0440  -20.5530 C   0  0  0  0  0  0  0  0  0  0  0  0
  -28.9810   12.8160  -21.6020 C   0  0  0  0  0  0  0  0  0  0  0  0
  -27.7200   13.3780  -21.5790 C   0  0  0  0  0  0  0  0  0  0  0  0
  -27.3280   14.1630  -20.5030 C   0  0  0  0  0  0  0  0  0  0  0  0
  -26.0480   14.7290  -20.4780 N   0  0  0  0  0  0  0  0  0  0  0  0
  -25.4110   14.4750  -19.7720 H   0  0  0  0  0  0  0  0  0  0  0  0
  -25.7860   15.3830  -21.1670 H   0  0  0  0  0  0  0  0  0  0  0  0
  -32.2790   13.2560  -21.0750 C   0  0  0  0  0  0  0  0  0  0  0  0
  -33.5730   12.4740  -20.8440 C   0  0  0  0  0  0  0  0  0  0  0  0
  -32.3490   14.5900  -20.3290 C   0  0  0  0  0  0  0  0  0  0  0  0
  -31.3430   11.1060  -20.1030 C   0  0  0  0  0  0  0  0  0  0  0  0
  -30.6220   10.9160  -18.7670 C   0  0  0  0  0  0  0  0  0  0  0  0
  -31.6480   10.8880  -17.6320 C   0  0  0  0  0  0  0  0  0  0  0  0
  -31.7770   12.2860  -17.0250 C   0  0  0  0  0  0  0  0  0  0  0  0
  -33.5050   12.5880  -16.5660 S   0  0  0  0  0  0  0  0  0  0  0  0
  -33.4330   13.5070  -15.3530 O   0  0  0  0  0  0  0  0  0  0  0  0
  -34.0990   11.3930  -16.0800 O   0  0  0  0  0  0  0  0  0  0  0  0
  -34.1500   13.3620  -17.5680 O   0  0  0  0  0  0  0  0  0  0  0  0
  1  5  1  0  0  0  0
  1 15  1  0  0  0  0
  3  2  1  0  0  0  0
  4  3  1  0  0  0  0
  5  4  2  0  0  0  0
  6  7  2  0  0  0  0
  6  5  1  0  0  0  0
  7  8  1  0  0  0  0
  8  9  1  0  0  0  0
  8  3  2  0  0  0  0
  9 10  1  0  0  0  0
 11  9  1  0  0  0  0
 12 13  1  0  0  0  0
 12  1  1  0  0  0  0
 12 14  1  0  0  0  0
 15 16  1  0  0  0  0
 16 17  1  0  0  0  0
 17 18  1  0  0  0  0
 18 19  1  0  0  0  0
 19 21  2  0  0  0  0
 19 20  1  0  0  0  0
 22 19  2  0  0  0  0
M  END
>  <MODEL>
1

>  <REMARK>
 VINA RESULT:      -6.0      0.000      0.000
  Name = ZINC05116227
                            x       y       z     vdW  Elec       q    Type
                         _______ _______ _______ _____ _____    ______ ____

>  <TORSDO>
F 8

>  <vina_score>
-6.0

$$$$
ZINC20843215
 OpenBabel01081722173D

 21 21  0  0  0  0  0  0  0  0999 V2000
  -32.6160   13.3940  -20.3670 S   0  0  0  0  0  0  0  0  0  0  0  0
  -29.5990   14.8910  -18.3980 C   0  0  0  0  0  0  0  0  0  0  0  0
  -29.7630   15.7520  -19.3620 N   0  0  0  0  0  0  0  0  0  0  0  0
  -30.7410   15.3940  -20.1130 N   0  0  0  0  0  0  0  0  0  0  0  0
  -31.2570   14.2710  -19.6680 C   0  0  0  0  0  0  0  0  0  0  0  0
  -30.5410   13.9130  -18.5630 N   0  0  0  0  0  0  0  0  0  0  0  0
  -30.7310   12.8100  -17.7790 N   0  0  0  0  0  0  0  0  0  0  0  0
  -30.9430   12.9150  -16.8240 H   0  0  0  0  0  0  0  0  0  0  0  0
  -30.6560   11.9090  -18.1710 H   0  0  0  0  0  0  0  0  0  0  0  0
  -27.3770   14.0620  -17.6740 C   0  0  0  0  0  0  0  0  0  0  0  0
  -28.5620   14.9570  -17.3070 C   0  0  0  0  0  0  0  0  0  0  0  0
  -31.7810   12.5640  -21.7420 C   0  0  0  0  0  0  0  0  0  0  0  0
  -30.4110   12.1150  -21.3010 C   0  0  0  0  0  0  0  0  0  0  0  0
  -29.3160   12.7760  -21.7270 N   0  0  0  0  0  0  0  0  0  0  0  0
  -29.4110   13.5520  -22.3260 H   0  0  0  0  0  0  0  0  0  0  0  0
  -30.2950   11.1600  -20.5640 O   0  0  0  0  0  0  0  0  0  0  0  0
  -28.0430   12.3590  -21.3180 N   0  0  0  0  0  0  0  0  0  0  0  0
  -27.8510   11.3990  -21.2110 H   0  0  0  0  0  0  0  0  0  0  0  0
  -27.0830   13.2710  -21.0690 C   0  0  0  0  0  0  0  0  0  0  0  0
  -25.7130   12.8210  -20.6290 C   0  0  0  0  0  0  0  0  0  0  0  0
  -27.3200   14.4520  -21.2010 O   0  0  0  0  0  0  0  0  0  0  0  0
  1  5  1  0  0  0  0
  2 11  1  0  0  0  0
  3  2  2  0  0  0  0
  4  5  2  0  0  0  0
  4  3  1  0  0  0  0
  5  6  1  0  0  0  0
  6  2  1  0  0  0  0
  6  7  1  0  0  0  0
  7  8  1  0  0  0  0
  9  7  1  0  0  0  0
 10 11  1  0  0  0  0
 12 13  1  0  0  0  0
 12  1  1  0  0  0  0
 13 16  2  0  0  0  0
 14 17  1  0  0  0  0
 14 13  1  0  0  0  0
 15 14  1  0  0  0  0
 17 18  1  0  0  0  0
 17 19  1  0  0  0  0
 19 20  1  0  0  0  0
 21 19  2  0  0  0  0
M  END
>  <MODEL>
1

>  <REMARK>
 VINA RESULT:      -6.0      0.000      0.000
  Name = ZINC20843215
                            x       y       z     vdW  Elec       q    Type
                         _______ _______ _______ _____ _____    ______ ____

>  <TORSDO>
F 6

>  <vina_score>
-6.0

$$$$
ZINC09305196
 OpenBabel01081722223D

 27 28  0  0  0  0  0  0  0  0999 V2000
  -27.5220   13.5790  -22.4790 C   0  0  0  0  0  0  0  0  0  0  0  0
  -28.2310   12.4140  -22.2510 C   0  0  0  0  0  0  0  0  0  0  0  0
  -28.8360   12.1960  -21.0260 C   0  0  0  0  0  0  0  0  0  0  0  0
  -28.7390   13.1540  -20.0330 C   0  0  0  0  0  0  0  0  0  0  0  0
  -28.0310   14.3350  -20.2620 C   0  0  0  0  0  0  0  0  0  0  0  0
  -27.9470   15.2980  -19.2500 N   0  0  0  0  0  0  0  0  0  0  0  0
  -27.6360   16.2060  -19.4680 H   0  0  0  0  0  0  0  0  0  0  0  0
  -28.2870   14.9950  -17.9840 C   0  0  0  0  0  0  0  0  0  0  0  0
  -28.7160   13.5990  -17.6110 C   0  0  0  0  0  0  0  0  0  0  0  0
  -28.2500   15.8580  -17.1310 O   0  0  0  0  0  0  0  0  0  0  0  0
  -29.3420   12.9610  -18.7790 N   0  0  0  0  0  0  0  0  0  0  0  0
  -30.4570   12.2160  -18.6500 C   0  0  0  0  0  0  0  0  0  0  0  0
  -31.0170   12.0450  -17.4360 N   0  0  0  0  0  0  0  0  0  0  0  0
  -30.6110   12.4650  -16.6430 H   0  0  0  0  0  0  0  0  0  0  0  0
  -30.9580   11.6980  -19.6290 O   0  0  0  0  0  0  0  0  0  0  0  0
  -27.4230   14.5420  -21.4900 C   0  0  0  0  0  0  0  0  0  0  0  0
  -32.2290   11.2360  -17.2960 C   0  0  0  0  0  0  0  0  0  0  0  0
  -33.4610   12.1210  -17.4940 C   0  0  0  0  0  0  0  0  0  0  0  0
  -34.2090   11.6810  -18.7540 C   0  0  0  0  0  0  0  0  0  0  0  0
  -33.7800   12.5360  -19.9180 C   0  0  0  0  0  0  0  0  0  0  0  0
  -33.1230   13.6930  -19.6980 N   0  0  0  0  0  0  0  0  0  0  0  0
  -32.9240   13.9780  -18.7770 H   0  0  0  0  0  0  0  0  0  0  0  0
  -34.0240   12.1840  -21.0530 O   0  0  0  0  0  0  0  0  0  0  0  0
  -32.7050   14.5250  -20.8290 C   0  0  0  0  0  0  0  0  0  0  0  0
  -32.2800   15.9030  -20.3190 C   0  0  0  0  0  0  0  0  0  0  0  0
  -30.8540   15.9710  -20.2680 O   0  0  0  0  0  0  0  0  0  0  0  0
  -30.4750   15.2210  -20.7530 H   0  0  0  0  0  0  0  0  0  0  0  0
  1  2  2  0  0  0  0
  1 16  1  0  0  0  0
  2  3  1  0  0  0  0
  3  4  2  0  0  0  0
  4 11  1  0  0  0  0
  5  4  1  0  0  0  0
  5  6  1  0  0  0  0
  6  8  1  0  0  0  0
  7  6  1  0  0  0  0
  8  9  1  0  0  0  0
  8 10  2  0  0  0  0
 11 12  1  0  0  0  0
 11  9  1  0  0  0  0
 12 13  1  0  0  0  0
 13 17  1  0  0  0  0
 13 14  1  0  0  0  0
 15 12  2  0  0  0  0
 16  5  2  0  0  0  0
 18 17  1  0  0  0  0
 19 18  1  0  0  0  0
 20 21  1  0  0  0  0
 20 19  1  0  0  0  0
 21 22  1  0  0  0  0
 23 20  2  0  0  0  0
 24 25  1  0  0  0  0
 24 21  1  0  0  0  0
 25 26  1  0  0  0  0
 27 26  1  0  0  0  0
M  END
>  <MODEL>
1

>  <REMARK>
 VINA RESULT:      -6.0      0.000      0.000
  Name = ZINC09305196
                            x       y       z     vdW  Elec       q    Type
                         _______ _______ _______ _____ _____    ______ ____

>  <TORSDO>
F 7

>  <vina_score>
-6.0

$$$$
ZINC03624639
 OpenBabel01081722243D

 21 21  0  0  0  0  0  0  0  0999 V2000
  -29.9140   12.1300  -21.3030 C   0  0  0  0  0  0  0  0  0  0  0  0
  -30.8810   13.0120  -21.9820 N   0  0  0  0  0  0  0  0  0  0  0  0
  -30.5550   13.9750  -21.9180 H   0  0  0  0  0  0  0  0  0  0  0  0
  -30.9620   12.7340  -22.9600 H   0  0  0  0  0  0  0  0  0  0  0  0
  -32.2050   12.9100  -21.3380 C   0  0  0  0  0  0  0  0  0  0  0  0
  -32.0400   12.3060  -19.9430 C   0  0  0  0  0  0  0  0  0  0  0  0
  -33.3610   12.9140  -18.8600 S   0  0  0  0  0  0  0  0  0  0  0  0
  -32.7660   12.2900  -16.9230 P   0  0  0  0  0  0  0  0  0  0  0  0
  -33.2480   13.3780  -15.8380 O   0  0  0  0  0  0  0  0  0  0  0  0
  -31.1620   12.1550  -16.8720 O   0  0  0  0  0  0  0  0  0  0  0  0
  -33.3820   10.9800  -16.6160 O   0  0  0  0  0  0  0  0  0  0  0  0
  -28.5190   12.3760  -21.8830 C   0  0  0  0  0  0  0  0  0  0  0  0
  -28.1050   13.8250  -21.6210 C   0  0  0  0  0  0  0  0  0  0  0  0
  -28.1760   13.9150  -17.3890 C   0  0  0  0  0  0  0  0  0  0  0  0
  -28.8180   15.1140  -18.0940 C   0  0  0  0  0  0  0  0  0  0  0  0
  -28.8890   14.8380  -19.5730 C   0  0  0  0  0  0  0  0  0  0  0  0
  -27.9900   14.0460  -20.1770 N   0  0  0  0  0  0  0  0  0  0  0  0
  -26.9930   13.4440  -19.5110 C   0  0  0  0  0  0  0  0  0  0  0  0
  -26.2220   12.7290  -20.1130 O   0  0  0  0  0  0  0  0  0  0  0  0
  -29.7750   15.3390  -20.2300 O   0  0  0  0  0  0  0  0  0  0  0  0
  -26.8100   13.6460  -18.0300 C   0  0  0  0  0  0  0  0  0  0  0  0
  2  3  1  0  0  0  0
  2  5  1  0  0  0  0
  2  1  1  0  0  0  0
  4  2  1  0  0  0  0
  5  6  1  0  0  0  0
  6  7  1  0  0  0  0
  7  8  1  0  0  0  0
  8 10  2  0  0  0  0
  8 11  1  0  0  0  0
  8  9  1  0  0  0  0
 12 13  1  0  0  0  0
 12  1  1  0  0  0  0
 13 17  1  0  0  0  0
 15 14  1  0  0  0  0
 16 15  1  0  0  0  0
 17 16  1  0  0  0  0
 17 18  1  0  0  0  0
 18 21  1  0  0  0  0
 19 18  2  0  0  0  0
 20 16  2  0  0  0  0
 21 14  1  0  0  0  0
M  END
>  <MODEL>
1

>  <REMARK>
 VINA RESULT:      -6.0      0.000      0.000
  Name = ZINC03624639
                            x       y       z     vdW  Elec       q    Type
                         _______ _______ _______ _____ _____    ______ ____

>  <TORSDO>
F 8

>  <vina_score>
-6.0

$$$$
ZINC20423296
 OpenBabel01081722103D

 21 21  0  0  1  0  0  0  0  0999 V2000
  -29.7470   13.3860  -19.9350 C   0  0  1  0  0  0  0  0  0  0  0  0
  -33.2610   13.0470  -18.5880 C   0  0  0  0  0  0  0  0  0  0  0  0
  -33.9390   12.5630  -19.6980 C   0  0  0  0  0  0  0  0  0  0  0  0
  -33.2600   12.3460  -20.8800 C   0  0  0  0  0  0  0  0  0  0  0  0
  -31.9010   12.6130  -20.9590 C   0  0  0  0  0  0  0  0  0  0  0  0
  -31.2240   13.0970  -19.8500 C   0  0  0  0  0  0  0  0  0  0  0  0
  -31.9030   13.3090  -18.6650 C   0  0  0  0  0  0  0  0  0  0  0  0
  -33.3550   12.7140  -16.2350 C   0  0  0  0  0  0  0  0  0  0  0  0
  -33.9310   13.2600  -17.4230 O   0  0  0  0  0  0  0  0  0  0  0  0
  -31.2330   12.4000  -22.1240 O   0  0  0  0  0  0  0  0  0  0  0  0
  -31.1040   11.0450  -22.5590 C   0  0  0  0  0  0  0  0  0  0  0  0
  -29.5310   14.5980  -20.7370 N   0  0  0  0  0  0  0  0  0  0  0  0
  -28.5310   14.7870  -20.8030 H   0  0  0  0  0  0  0  0  0  0  0  0
  -29.9140   14.4610  -21.6720 H   0  0  0  0  0  0  0  0  0  0  0  0
  -29.9970   15.3890  -20.2910 H   0  0  0  0  0  0  0  0  0  0  0  0
  -29.1870   13.5990  -18.5270 C   0  0  0  0  0  0  0  0  0  0  0  0
  -27.7590   14.1390  -18.6220 C   0  0  0  0  0  0  0  0  0  0  0  0
  -26.7910   12.9810  -18.8700 C   0  0  0  0  0  0  0  0  0  0  0  0
  -26.0920   13.1840  -20.1900 C   0  0  0  0  0  0  0  0  0  0  0  0
  -26.4360   14.2140  -20.9780 O   0  0  0  0  0  0  0  0  0  0  0  0
  -25.2240   12.4190  -20.5380 O   0  0  0  0  0  0  0  0  0  0  0  0
  1 12  1  6  0  0  0
  1  6  1  0  0  0  0
  1 16  1  0  0  0  0
  2  9  1  0  0  0  0
  3  2  2  0  0  0  0
  4  3  1  0  0  0  0
  5  4  2  0  0  0  0
  5  6  1  0  0  0  0
  6  7  2  0  0  0  0
  7  2  1  0  0  0  0
  9  8  1  0  0  0  0
 10  5  1  0  0  0  0
 11 10  1  0  0  0  0
 12 15  1  0  0  0  0
 13 12  1  0  0  0  0
 14 12  1  0  0  0  0
 17 16  1  0  0  0  0
 18 17  1  0  0  0  0
 19 18  1  0  0  0  0
 20 19  2  0  0  0  0
 21 19  1  0  0  0  0
M  END
>  <MODEL>
1

>  <REMARK>
 VINA RESULT:      -6.0      0.000      0.000
  Name = ZINC20423296
                            x       y       z     vdW  Elec       q    Type
                         _______ _______ _______ _____ _____    ______ ____

>  <TORSDO>
F 8

>  <vina_score>
-6.0

$$$$
ZINC26127025
 OpenBabel01081722113D

 27 27  0  0  1  0  0  0  0  0999 V2000
  -31.1680   13.1260  -19.8430 N   0  0  0  0  0  0  0  0  0  0  0  0
  -31.0980   14.0620  -20.1390 H   0  0  0  0  0  0  0  0  0  0  0  0
  -30.3530   12.1900  -20.3690 C   0  0  0  0  0  0  0  0  0  0  0  0
  -30.4390   11.0370  -20.0040 O   0  0  0  0  0  0  0  0  0  0  0  0
  -33.1410   12.2040  -16.9130 C   0  0  1  0  0  0  0  0  0  0  0  0
  -33.0570   10.8030  -16.3030 C   0  0  0  0  0  0  0  0  0  0  0  0
  -31.8260   12.5720  -17.5720 C   0  0  0  0  0  0  0  0  0  0  0  0
  -32.1140   12.7660  -18.8750 N   0  0  0  0  0  0  0  0  0  0  0  0
  -33.4120   12.5660  -19.1280 C   0  0  0  0  0  0  0  0  0  0  0  0
  -33.9090   12.6770  -20.2310 O   0  0  0  0  0  0  0  0  0  0  0  0
  -30.7420   12.6730  -17.0390 O   0  0  0  0  0  0  0  0  0  0  0  0
  -34.1050   12.2280  -18.0260 N   0  0  0  0  0  0  0  0  0  0  0  0
  -34.6240   12.6540  -14.9540 C   0  0  0  0  0  0  0  0  0  0  0  0
  -33.5230   13.2320  -15.8460 C   0  0  0  0  0  0  0  0  0  0  0  0
  -29.3350   12.5770  -21.4110 C   0  0  0  0  0  0  0  0  0  0  0  0
  -28.7040   13.8480  -21.0310 N   0  0  0  0  0  0  0  0  0  0  0  0
  -29.3730   14.5960  -21.2130 H   0  0  0  0  0  0  0  0  0  0  0  0
  -27.5080   14.1050  -21.8440 C   0  0  0  0  0  0  0  0  0  0  0  0
  -26.2770   13.7320  -21.0590 C   0  0  0  0  0  0  0  0  0  0  0  0
  -26.0030   12.4360  -20.8100 N   0  0  0  0  0  0  0  0  0  0  0  0
  -25.1980   12.1920  -20.2980 H   0  0  0  0  0  0  0  0  0  0  0  0
  -26.6060   11.7320  -21.1430 H   0  0  0  0  0  0  0  0  0  0  0  0
  -25.5340   14.5980  -20.6490 O   0  0  0  0  0  0  0  0  0  0  0  0
  -28.3810   13.8670  -19.5980 C   0  0  0  0  0  0  0  0  0  0  0  0
  -28.4580   15.3040  -19.0790 C   0  0  0  0  0  0  0  0  0  0  0  0
  -28.4510   15.2930  -17.5480 C   0  0  0  0  0  0  0  0  0  0  0  0
  -29.7470   15.9590  -19.5770 C   0  0  0  0  0  0  0  0  0  0  0  0
  1  8  1  0  0  0  0
  2  1  1  0  0  0  0
  3  4  2  0  0  0  0
  3  1  1  0  0  0  0
  5  6  1  1  0  0  0
  5 14  1  0  0  0  0
  7 11  2  0  0  0  0
  7  5  1  0  0  0  0
  8  7  1  0  0  0  0
  9  8  1  0  0  0  0
  9 12  1  0  0  0  0
 10  9  2  0  0  0  0
 12  5  1  0  0  0  0
 14 13  1  0  0  0  0
 15 16  1  0  0  0  0
 15  3  1  0  0  0  0
 16 24  1  0  0  0  0
 17 16  1  0  0  0  0
 18 19  1  0  0  0  0
 18 16  1  0  0  0  0
 19 20  1  0  0  0  0
 19 23  2  0  0  0  0
 20 21  1  0  0  0  0
 22 20  1  0  0  0  0
 24 25  1  0  0  0  0
 25 26  1  0  0  0  0
 27 25  1  0  0  0  0
M  END
>  <MODEL>
1

>  <REMARK>
 VINA RESULT:      -6.0      0.000      0.000
  Name = ZINC26127025
                            x       y       z     vdW  Elec       q    Type
                         _______ _______ _______ _____ _____    ______ ____

>  <TORSDO>
F 8

>  <vina_score>
-6.0

$$$$
ZINC00133162
 OpenBabel01081722143D

 23 24  0  0  1  0  0  0  0  0999 V2000
  -31.8110   13.5500  -20.8330 C   0  0  0  0  0  0  0  0  0  0  0  0
  -30.9860   12.6070  -21.4320 C   0  0  0  0  0  0  0  0  0  0  0  0
  -29.6150   12.7620  -21.3850 C   0  0  0  0  0  0  0  0  0  0  0  0
  -29.0620   13.8540  -20.7400 C   0  0  0  0  0  0  0  0  0  0  0  0
  -29.8820   14.7940  -20.1430 C   0  0  0  0  0  0  0  0  0  0  0  0
  -31.2540   14.6440  -20.1880 C   0  0  0  0  0  0  0  0  0  0  0  0
  -33.1600   13.3970  -20.8740 O   0  0  0  0  0  0  0  0  0  0  0  0
  -33.6910   12.1770  -20.3540 C   0  0  0  0  0  0  0  0  0  0  0  0
  -32.5080   11.7330  -16.2730 C   0  0  0  0  0  0  0  0  0  0  0  0
  -33.2940   12.8040  -16.6520 C   0  0  0  0  0  0  0  0  0  0  0  0
  -33.6780   12.9480  -17.9730 C   0  0  0  0  0  0  0  0  0  0  0  0
  -33.2730   12.0200  -18.9140 C   0  0  0  0  0  0  0  0  0  0  0  0
  -32.4910   10.9450  -18.5340 C   0  0  0  0  0  0  0  0  0  0  0  0
  -32.1040   10.8040  -17.2160 C   0  0  0  0  0  0  0  0  0  0  0  0
  -27.5650   14.0200  -20.6910 C   0  0  0  0  0  0  0  0  0  0  0  0
  -26.9710   12.9970  -19.7200 C   0  0  1  0  0  0  0  0  0  0  0  0
  -25.5030   13.1120  -19.6860 N   0  0  0  0  0  0  0  0  0  0  0  0
  -25.1580   13.3400  -20.6180 H   0  0  0  0  0  0  0  0  0  0  0  0
  -25.2340   13.8500  -19.0340 H   0  0  0  0  0  0  0  0  0  0  0  0
  -25.1000   12.2270  -19.3810 H   0  0  0  0  0  0  0  0  0  0  0  0
  -27.5150   13.2450  -18.3360 C   0  0  0  0  0  0  0  0  0  0  0  0
  -28.4150   12.4010  -17.8070 O   0  0  0  0  0  0  0  0  0  0  0  0
  -27.1390   14.2040  -17.7030 O   0  0  0  0  0  0  0  0  0  0  0  0
  1  6  2  0  0  0  0
  2  3  2  0  0  0  0
  2  1  1  0  0  0  0
  3  4  1  0  0  0  0
  4 15  1  0  0  0  0
  4  5  2  0  0  0  0
  6  5  1  0  0  0  0
  7  1  1  0  0  0  0
  7  8  1  0  0  0  0
  8 12  1  0  0  0  0
 10  9  1  0  0  0  0
 11 10  2  0  0  0  0
 12 13  2  0  0  0  0
 12 11  1  0  0  0  0
 13 14  1  0  0  0  0
 14  9  2  0  0  0  0
 16 15  1  6  0  0  0
 16 17  1  0  0  0  0
 16 21  1  0  0  0  0
 17 20  1  0  0  0  0
 17 19  1  0  0  0  0
 18 17  1  0  0  0  0
 21 22  2  0  0  0  0
 21 23  1  0  0  0  0
M  END
>  <MODEL>
1

>  <REMARK>
 VINA RESULT:      -5.9      0.000      0.000
  Name = ZINC00133162
                            x       y       z     vdW  Elec       q    Type
                         _______ _______ _______ _____ _____    ______ ____

>  <TORSDO>
F 7

>  <vina_score>
-5.9

$$$$
ZINC07578883
 OpenBabel01081722153D

 25 25  0  0  0  0  0  0  0  0999 V2000
  -32.9070   12.3070  -20.2900 N   0  0  0  0  0  0  0  0  0  0  0  0
  -32.6150   11.3390  -20.1480 H   0  0  0  0  0  0  0  0  0  0  0  0
  -34.3160   12.3230  -20.7380 C   0  0  0  0  0  0  0  0  0  0  0  0
  -32.7740   13.0410  -19.0130 C   0  0  0  0  0  0  0  0  0  0  0  0
  -33.6420   12.5950  -16.7400 N   0  0  0  0  0  0  0  0  0  0  0  0
  -33.8090   13.5610  -16.6490 H   0  0  0  0  0  0  0  0  0  0  0  0
  -33.1110   12.1070  -17.8790 C   0  0  0  0  0  0  0  0  0  0  0  0
  -32.9070   10.9170  -17.9910 O   0  0  0  0  0  0  0  0  0  0  0  0
  -35.1410   11.1910  -13.5830 C   0  0  0  0  0  0  0  0  0  0  0  0
  -34.8050   12.1230  -14.7170 C   0  0  0  0  0  0  0  0  0  0  0  0
  -33.9550   11.7270  -15.6850 N   0  0  0  0  0  0  0  0  0  0  0  0
  -33.5550   10.8280  -15.6520 H   0  0  0  0  0  0  0  0  0  0  0  0
  -35.2980   13.2300  -14.7580 O   0  0  0  0  0  0  0  0  0  0  0  0
  -32.0430   12.9220  -21.3190 C   0  0  0  0  0  0  0  0  0  0  0  0
  -30.6020   12.6870  -20.9470 C   0  0  0  0  0  0  0  0  0  0  0  0
  -29.7930   13.7340  -20.6860 N   0  0  0  0  0  0  0  0  0  0  0  0
  -30.1200   14.6530  -20.8200 H   0  0  0  0  0  0  0  0  0  0  0  0
  -30.1710   11.5550  -20.8790 O   0  0  0  0  0  0  0  0  0  0  0  0
  -28.4900   13.5140  -20.2230 C   0  0  0  0  0  0  0  0  0  0  0  0
  -27.4620   13.2820  -21.1270 C   0  0  0  0  0  0  0  0  0  0  0  0
  -26.1760   13.0700  -20.6670 C   0  0  0  0  0  0  0  0  0  0  0  0
  -25.9150   13.0780  -19.3090 C   0  0  0  0  0  0  0  0  0  0  0  0
  -26.9370   13.3030  -18.4070 C   0  0  0  0  0  0  0  0  0  0  0  0
  -28.2250   13.5210  -18.8600 C   0  0  0  0  0  0  0  0  0  0  0  0
  -29.5100   13.8020  -17.7260 Cl  0  0  0  0  0  0  0  0  0  0  0  0
  1  2  1  0  0  0  0
  1  4  1  0  0  0  0
  3  1  1  0  0  0  0
  4  7  1  0  0  0  0
  5  6  1  0  0  0  0
  5 11  1  0  0  0  0
  7  5  1  0  0  0  0
  8  7  2  0  0  0  0
 10  9  1  0  0  0  0
 11 12  1  0  0  0  0
 11 10  1  0  0  0  0
 13 10  2  0  0  0  0
 14 15  1  0  0  0  0
 14  1  1  0  0  0  0
 15 18  2  0  0  0  0
 15 16  1  0  0  0  0
 16 19  1  0  0  0  0
 17 16  1  0  0  0  0
 19 24  2  0  0  0  0
 20 21  2  0  0  0  0
 20 19  1  0  0  0  0
 21 22  1  0  0  0  0
 22 23  2  0  0  0  0
 24 23  1  0  0  0  0
 24 25  1  0  0  0  0
M  END
>  <MODEL>
1

>  <REMARK>
 VINA RESULT:      -5.9      0.000      0.000
  Name = ZINC07578883
                            x       y       z     vdW  Elec       q    Type
                         _______ _______ _______ _____ _____    ______ ____

>  <TORSDO>
F 6

>  <vina_score>
-5.9

$$$$
ZINC31792221
 OpenBabel01081722033D

 22 23  0  0  0  0  0  0  0  0999 V2000
  -29.3120   15.4770  -19.5430 C   0  0  0  0  0  0  0  0  0  0  0  0
  -29.3300   14.2230  -20.3790 C   0  0  0  0  0  0  0  0  0  0  0  0
  -28.1820   13.7090  -20.8810 C   0  0  0  0  0  0  0  0  0  0  0  0
  -28.8090   12.2750  -21.7440 S   0  0  0  0  0  0  0  0  0  0  0  0
  -30.4890   12.5010  -21.3670 C   0  0  0  0  0  0  0  0  0  0  0  0
  -30.4650   13.6030  -20.6410 N   0  0  0  0  0  0  0  0  0  0  0  0
  -26.7660   14.2060  -20.7450 C   0  0  0  0  0  0  0  0  0  0  0  0
  -25.9320   13.1600  -20.0500 C   0  0  0  0  0  0  0  0  0  0  0  0
  -25.9450   13.0720  -18.7040 N   0  0  0  0  0  0  0  0  0  0  0  0
  -25.4010   12.3880  -18.2510 H   0  0  0  0  0  0  0  0  0  0  0  0
  -26.5000   13.6900  -18.1770 H   0  0  0  0  0  0  0  0  0  0  0  0
  -25.2490   12.3990  -20.7000 O   0  0  0  0  0  0  0  0  0  0  0  0
  -31.8710   11.5120  -21.8320 S   0  0  0  0  0  0  0  0  0  0  0  0
  -33.1280   12.1810  -20.7150 C   0  0  0  0  0  0  0  0  0  0  0  0
  -33.2570   11.2730  -19.4910 C   0  0  0  0  0  0  0  0  0  0  0  0
  -32.5860   11.8960  -18.3470 N   0  0  0  0  0  0  0  0  0  0  0  0
  -33.1520   12.8230  -17.5500 C   0  0  0  0  0  0  0  0  0  0  0  0
  -32.1010   13.1740  -16.5170 C   0  0  0  0  0  0  0  0  0  0  0  0
  -30.9550   12.3240  -16.8870 N   0  0  0  0  0  0  0  0  0  0  0  0
  -34.2710   13.2820  -17.6410 O   0  0  0  0  0  0  0  0  0  0  0  0
  -31.3370   11.6120  -17.9630 C   0  0  0  0  0  0  0  0  0  0  0  0
  -30.6240   10.8030  -18.5240 O   0  0  0  0  0  0  0  0  0  0  0  0
  2  1  1  0  0  0  0
  3  7  1  0  0  0  0
  3  2  2  0  0  0  0
  4  5  1  0  0  0  0
  4  3  1  0  0  0  0
  5  6  2  0  0  0  0
  6  2  1  0  0  0  0
  7  8  1  0  0  0  0
  8  9  1  0  0  0  0
  9 10  1  0  0  0  0
  9 11  1  0  0  0  0
 12  8  2  0  0  0  0
 13  5  1  0  0  0  0
 13 14  1  0  0  0  0
 14 15  1  0  0  0  0
 15 16  1  0  0  0  0
 16 21  1  0  0  0  0
 16 17  1  0  0  0  0
 17 18  1  0  0  0  0
 19 18  2  0  0  0  0
 20 17  2  0  0  0  0
 21 19  1  0  0  0  0
 22 21  2  0  0  0  0
M  END
>  <MODEL>
1

>  <REMARK>
 VINA RESULT:      -5.9      0.000      0.000
  Name = ZINC31792221
                            x       y       z     vdW  Elec       q    Type
                         _______ _______ _______ _____ _____    ______ ____

>  <TORSDO>
F 6

>  <vina_score>
-5.9

$$$$
ZINC06041659
 OpenBabel01081722153D

 26 27  0  0  0  0  0  0  0  0999 V2000
  -29.7570   13.0530  -20.5500 C   0  0  0  0  0  0  0  0  0  0  0  0
  -30.5420   14.1960  -20.5190 C   0  0  0  0  0  0  0  0  0  0  0  0
  -31.6730   14.2460  -19.7320 C   0  0  0  0  0  0  0  0  0  0  0  0
  -32.0300   13.1450  -18.9670 C   0  0  0  0  0  0  0  0  0  0  0  0
  -31.2390   11.9850  -18.9950 C   0  0  0  0  0  0  0  0  0  0  0  0
  -31.8240   11.0830  -18.1650 N   0  0  0  0  0  0  0  0  0  0  0  0
  -32.8990   11.6060  -17.6330 C   0  0  0  0  0  0  0  0  0  0  0  0
  -33.0740   12.8780  -18.0970 N   0  0  0  0  0  0  0  0  0  0  0  0
  -33.8060   13.4920  -17.8570 H   0  0  0  0  0  0  0  0  0  0  0  0
  -30.0960   11.9520  -19.7980 C   0  0  0  0  0  0  0  0  0  0  0  0
  -33.7380   10.9650  -16.7380 N   0  0  0  0  0  0  0  0  0  0  0  0
  -33.9960   10.0270  -16.8920 H   0  0  0  0  0  0  0  0  0  0  0  0
  -34.1990   11.6220  -15.6560 C   0  0  0  0  0  0  0  0  0  0  0  0
  -33.8790   12.7800  -15.4660 O   0  0  0  0  0  0  0  0  0  0  0  0
  -35.0130   10.9980  -14.7850 O   0  0  0  0  0  0  0  0  0  0  0  0
  -35.5430   11.7940  -13.6920 C   0  0  0  0  0  0  0  0  0  0  0  0
  -28.3150   13.0100  -21.5630 S   0  0  0  0  0  0  0  0  0  0  0  0
  -27.9490   14.3610  -21.8070 O   0  0  0  0  0  0  0  0  0  0  0  0
  -28.5830   12.0910  -22.6130 O   0  0  0  0  0  0  0  0  0  0  0  0
  -27.0990   12.3470  -20.6540 N   0  0  0  0  0  0  0  0  0  0  0  0
  -27.5230   11.6180  -20.0820 H   0  0  0  0  0  0  0  0  0  0  0  0
  -26.3150   13.1920  -19.7510 C   0  0  0  0  0  0  0  0  0  0  0  0
  -27.1470   13.5480  -18.5460 C   0  0  0  0  0  0  0  0  0  0  0  0
  -27.5160   12.6810  -17.7900 O   0  0  0  0  0  0  0  0  0  0  0  0
  -28.6210   15.0650  -17.4480 C   0  0  0  0  0  0  0  0  0  0  0  0
  -27.4800   14.8270  -18.3130 O   0  0  0  0  0  0  0  0  0  0  0  0
  1  2  2  0  0  0  0
  1 10  1  0  0  0  0
  2  3  1  0  0  0  0
  3  4  2  0  0  0  0
  4  8  1  0  0  0  0
  5  4  1  0  0  0  0
  5  6  1  0  0  0  0
  6  7  2  0  0  0  0
  7 11  1  0  0  0  0
  8  9  1  0  0  0  0
  8  7  1  0  0  0  0
 10  5  2  0  0  0  0
 11 13  1  0  0  0  0
 12 11  1  0  0  0  0
 13 14  2  0  0  0  0
 13 15  1  0  0  0  0
 15 16  1  0  0  0  0
 17 20  1  0  0  0  0
 17  1  1  0  0  0  0
 18 17  2  0  0  0  0
 19 17  2  0  0  0  0
 20 21  1  0  0  0  0
 20 22  1  0  0  0  0
 22 23  1  0  0  0  0
 23 26  1  0  0  0  0
 23 24  2  0  0  0  0
 26 25  1  0  0  0  0
M  END
>  <MODEL>
1

>  <REMARK>
 VINA RESULT:      -5.9      0.000      0.000
  Name = ZINC06041659
                            x       y       z     vdW  Elec       q    Type
                         _______ _______ _______ _____ _____    ______ ____

>  <TORSDO>
F 7

>  <vina_score>
-5.9

$$$$
ZINC06382444
 OpenBabel01081722183D

 22 23  0  0  1  0  0  0  0  0999 V2000
  -31.9030   15.0830  -20.1280 C   0  0  0  0  0  0  0  0  0  0  0  0
  -30.4850   15.3760  -20.3460 N   0  0  0  0  0  0  0  0  0  0  0  0
  -30.2090   15.9320  -21.1110 H   0  0  0  0  0  0  0  0  0  0  0  0
  -29.5560   14.8850  -19.5000 C   0  0  0  0  0  0  0  0  0  0  0  0
  -29.8810   14.4850  -18.2830 N   0  0  0  0  0  0  0  0  0  0  0  0
  -29.0240   13.9300  -17.4320 C   0  0  0  0  0  0  0  0  0  0  0  0
  -27.8480   13.4480  -17.8130 N   0  0  0  0  0  0  0  0  0  0  0  0
  -27.5450   13.6120  -19.1010 C   0  0  0  0  0  0  0  0  0  0  0  0
  -26.9450   12.8530  -19.9710 N   0  0  0  0  0  0  0  0  0  0  0  0
  -27.1930   13.2570  -21.2240 C   0  0  0  0  0  0  0  0  0  0  0  0
  -27.9000   14.3500  -21.2830 N   0  0  0  0  0  0  0  0  0  0  0  0
  -28.1110   14.7770  -19.9030 C   0  0  1  0  0  0  0  0  0  0  0  0
  -32.3370   13.9430  -21.0510 C   0  0  2  0  0  0  0  0  0  0  0  0
  -33.1050   14.4710  -22.1330 O   0  0  0  0  0  0  0  0  0  0  0  0
  -33.9800   14.0500  -22.1430 H   0  0  0  0  0  0  0  0  0  0  0  0
  -33.1850   12.9430  -20.2630 C   0  0  0  0  0  0  0  0  0  0  0  0
  -32.4870   12.6210  -19.0000 N   0  0  0  0  0  0  0  0  0  0  0  0
  -31.6960   13.2550  -18.8880 H   0  0  0  0  0  0  0  0  0  0  0  0
  -32.6280   12.8430  -16.5410 C   0  0  0  0  0  0  0  0  0  0  0  0
  -33.4080   12.7960  -17.8570 C   0  0  0  0  0  0  0  0  0  0  0  0
  -31.9870   11.2310  -19.0390 C   0  0  0  0  0  0  0  0  0  0  0  0
  -30.5220   11.2460  -19.4810 C   0  0  0  0  0  0  0  0  0  0  0  0
  2  1  1  0  0  0  0
  2  4  1  0  0  0  0
  3  2  1  0  0  0  0
  4  5  2  0  0  0  0
  5  6  1  0  0  0  0
  7  6  2  0  0  0  0
  8  7  1  0  0  0  0
  9  8  2  0  0  0  0
 10  9  1  0  0  0  0
 11 10  2  0  0  0  0
 12 11  1  6  0  0  0
 12  4  1  0  0  0  0
 12  8  1  0  0  0  0
 13 14  1  6  0  0  0
 13 16  1  0  0  0  0
 13  1  1  0  0  0  0
 15 14  1  0  0  0  0
 16 17  1  0  0  0  0
 17 18  1  0  0  0  0
 17 20  1  0  0  0  0
 20 19  1  0  0  0  0
 21 17  1  0  0  0  0
 22 21  1  0  0  0  0
M  END
>  <MODEL>
1

>  <REMARK>
 VINA RESULT:      -5.9      0.000      0.000
  Name = ZINC06382444
                            x       y       z     vdW  Elec       q    Type
                         _______ _______ _______ _____ _____    ______ ____

>  <TORSDO>
F 8

>  <vina_score>
-5.9

$$$$
ZINC19751959
 OpenBabel01081722193D

 23 24  0  0  1  0  0  0  0  0999 V2000
  -29.2810   13.4460  -20.0140 N   0  0  0  0  0  0  0  0  0  0  0  0
  -30.6240   13.2180  -19.7820 C   0  0  0  0  0  0  0  0  0  0  0  0
  -31.4640   13.4300  -18.6970 C   0  0  0  0  0  0  0  0  0  0  0  0
  -32.7980   13.0840  -18.7820 C   0  0  0  0  0  0  0  0  0  0  0  0
  -33.3070   12.5210  -19.9540 C   0  0  0  0  0  0  0  0  0  0  0  0
  -32.4830   12.3050  -21.0390 C   0  0  0  0  0  0  0  0  0  0  0  0
  -31.1310   12.6520  -20.9630 C   0  0  0  0  0  0  0  0  0  0  0  0
  -30.0940   12.5650  -21.8370 N   0  0  0  0  0  0  0  0  0  0  0  0
  -29.0130   13.0300  -21.2820 C   0  0  0  0  0  0  0  0  0  0  0  0
  -28.4040   13.2830  -17.7360 C   0  0  0  0  0  0  0  0  0  0  0  0
  -28.3230   14.0280  -19.0710 C   0  0  2  0  0  0  0  0  0  0  0  0
  -28.6520   15.4830  -18.8540 C   0  0  0  0  0  0  0  0  0  0  0  0
  -29.4370   16.1310  -19.7280 O   0  0  0  0  0  0  0  0  0  0  0  0
  -28.2080   16.0660  -17.8930 O   0  0  0  0  0  0  0  0  0  0  0  0
  -33.6210   13.2920  -17.7190 O   0  0  0  0  0  0  0  0  0  0  0  0
  -33.2400   12.6940  -16.4780 C   0  0  0  0  0  0  0  0  0  0  0  0
  -34.6240   12.1880  -20.0290 O   0  0  0  0  0  0  0  0  0  0  0  0
  -34.9520   10.8030  -19.9050 C   0  0  0  0  0  0  0  0  0  0  0  0
  -27.6620   13.0970  -21.9450 C   0  0  0  0  0  0  0  0  0  0  0  0
  -27.5050   14.3980  -22.6090 N   0  0  0  0  0  0  0  0  0  0  0  0
  -28.0140   15.1100  -22.0840 H   0  0  0  0  0  0  0  0  0  0  0  0
  -26.5160   14.6440  -22.6440 H   0  0  0  0  0  0  0  0  0  0  0  0
  -27.8780   14.3440  -23.5570 H   0  0  0  0  0  0  0  0  0  0  0  0
  1  2  1  0  0  0  0
  2  3  2  0  0  0  0
  4  3  1  0  0  0  0
  4 15  1  0  0  0  0
  5  4  2  0  0  0  0
  6  7  2  0  0  0  0
  6  5  1  0  0  0  0
  7  2  1  0  0  0  0
  8  9  2  0  0  0  0
  8  7  1  0  0  0  0
  9  1  1  0  0  0  0
 11  1  1  6  0  0  0
 11 12  1  0  0  0  0
 11 10  1  0  0  0  0
 12 14  1  0  0  0  0
 13 12  2  0  0  0  0
 15 16  1  0  0  0  0
 17  5  1  0  0  0  0
 17 18  1  0  0  0  0
 19  9  1  0  0  0  0
 20 21  1  0  0  0  0
 20 19  1  0  0  0  0
 22 20  1  0  0  0  0
 23 20  1  0  0  0  0
M  END
>  <MODEL>
1

>  <REMARK>
 VINA RESULT:      -5.9      0.000      0.000
  Name = ZINC19751959
                            x       y       z     vdW  Elec       q    Type
                         _______ _______ _______ _____ _____    ______ ____

>  <TORSDO>
F 6

>  <vina_score>
-5.9

$$$$
ZINC01625773
 OpenBabel01081722203D

 24 25  0  0  1  0  0  0  0  0999 V2000
  -30.5200   12.2700  -22.0480 C   0  0  0  0  0  0  0  0  0  0  0  0
  -31.7040   11.7390  -22.1430 N   0  0  0  0  0  0  0  0  0  0  0  0
  -32.3830   11.9480  -20.9880 C   0  0  0  0  0  0  0  0  0  0  0  0
  -33.6770   11.6050  -20.5310 C   0  0  0  0  0  0  0  0  0  0  0  0
  -34.0380   11.9840  -19.2850 N   0  0  0  0  0  0  0  0  0  0  0  0
  -34.9330   11.7570  -18.9440 H   0  0  0  0  0  0  0  0  0  0  0  0
  -33.1690   12.6800  -18.4970 C   0  0  0  0  0  0  0  0  0  0  0  0
  -31.9650   13.0040  -18.9110 N   0  0  0  0  0  0  0  0  0  0  0  0
  -34.4470   10.9820  -21.2420 O   0  0  0  0  0  0  0  0  0  0  0  0
  -31.5370   12.6630  -20.1320 C   0  0  0  0  0  0  0  0  0  0  0  0
  -30.3690   12.8480  -20.8210 N   0  0  0  0  0  0  0  0  0  0  0  0
  -33.5640   13.0510  -17.2360 N   0  0  0  0  0  0  0  0  0  0  0  0
  -33.8960   12.3740  -16.6050 H   0  0  0  0  0  0  0  0  0  0  0  0
  -33.5130   13.9970  -16.9630 H   0  0  0  0  0  0  0  0  0  0  0  0
  -29.1760   13.5430  -20.3310 C   0  0  1  0  0  0  0  0  0  0  0  0
  -28.5230   12.6730  -18.8800 S   0  0  0  0  0  0  0  0  0  0  0  0
  -28.6150   13.9050  -17.5510 C   0  0  0  0  0  0  0  0  0  0  0  0
  -28.6140   15.3100  -18.1570 C   0  0  0  0  0  0  0  0  0  0  0  0
  -27.2670   15.7290  -18.3860 O   0  0  0  0  0  0  0  0  0  0  0  0
  -26.6570   15.0860  -17.9930 H   0  0  0  0  0  0  0  0  0  0  0  0
  -28.1130   13.5690  -21.4310 C   0  0  0  0  0  0  0  0  0  0  0  0
  -26.7250   13.4160  -20.8030 C   0  0  0  0  0  0  0  0  0  0  0  0
  -26.0730   14.6870  -20.7750 O   0  0  0  0  0  0  0  0  0  0  0  0
  -26.5630   15.2880  -20.1940 H   0  0  0  0  0  0  0  0  0  0  0  0
  1 11  1  0  0  0  0
  2  1  2  0  0  0  0
  2  3  1  0  0  0  0
  3  4  1  0  0  0  0
  3 10  2  0  0  0  0
  4  5  1  0  0  0  0
  5  6  1  0  0  0  0
  5  7  1  0  0  0  0
  7 12  1  0  0  0  0
  8  7  2  0  0  0  0
  9  4  2  0  0  0  0
 10  8  1  0  0  0  0
 11 15  1  0  0  0  0
 11 10  1  0  0  0  0
 12 14  1  0  0  0  0
 12 13  1  0  0  0  0
 15 21  1  6  0  0  0
 15 16  1  0  0  0  0
 16 17  1  0  0  0  0
 18 17  1  0  0  0  0
 19 18  1  0  0  0  0
 19 20  1  0  0  0  0
 21 22  1  0  0  0  0
 22 23  1  0  0  0  0
 23 24  1  0  0  0  0
M  END
>  <MODEL>
1

>  <REMARK>
 VINA RESULT:      -5.9      0.000      0.000
  Name = ZINC01625773
                            x       y       z     vdW  Elec       q    Type
                         _______ _______ _______ _____ _____    ______ ____

>  <TORSDO>
F 9

>  <vina_score>
-5.9

$$$$
ZINC17005558
 OpenBabel01081722233D

 28 28  0  0  1  0  0  0  0  0999 V2000
  -29.4310   12.7130  -19.8980 C   0  0  1  0  0  0  0  0  0  0  0  0
  -30.3120   13.8750  -20.0270 N   0  0  0  0  0  0  0  0  0  0  0  0
  -31.5420   13.7340  -20.5990 C   0  0  0  0  0  0  0  0  0  0  0  0
  -32.3470   14.8160  -20.7130 C   0  0  0  0  0  0  0  0  0  0  0  0
  -31.8900   16.0610  -20.2360 C   0  0  0  0  0  0  0  0  0  0  0  0
  -30.6860   16.1520  -19.6870 N   0  0  0  0  0  0  0  0  0  0  0  0
  -29.9040   15.0780  -19.5810 C   0  0  0  0  0  0  0  0  0  0  0  0
  -28.8010   15.1870  -19.0740 O   0  0  0  0  0  0  0  0  0  0  0  0
  -32.6880   17.1780  -20.3390 N   0  0  0  0  0  0  0  0  0  0  0  0
  -32.8470   17.7450  -19.5500 H   0  0  0  0  0  0  0  0  0  0  0  0
  -33.1010   17.4090  -21.2020 H   0  0  0  0  0  0  0  0  0  0  0  0
  -30.2370   11.4530  -18.8710 S   0  0  0  0  0  0  0  0  0  0  0  0
  -30.8470   12.3800  -17.4370 C   0  0  0  0  0  0  0  0  0  0  0  0
  -33.0260   12.9050  -16.3330 C   0  0  0  0  0  0  0  0  0  0  0  0
  -32.1920   11.8040  -16.9910 C   0  0  0  0  0  0  0  0  0  0  0  0
  -32.9410   11.2560  -18.2080 C   0  0  0  0  0  0  0  0  0  0  0  0
  -29.1450   12.1330  -21.2850 C   0  0  1  0  0  0  0  0  0  0  0  0
  -30.2620   12.3750  -22.1420 O   0  0  0  0  0  0  0  0  0  0  0  0
  -29.9470   12.5440  -23.0440 H   0  0  0  0  0  0  0  0  0  0  0  0
  -27.8990   12.8020  -21.8710 C   0  0  1  0  0  0  0  0  0  0  0  0
  -28.2640   14.0500  -22.4650 O   0  0  0  0  0  0  0  0  0  0  0  0
  -27.8150   14.1440  -23.3200 H   0  0  0  0  0  0  0  0  0  0  0  0
  -26.8780   13.0450  -20.7580 C   0  0  1  0  0  0  0  0  0  0  0  0
  -25.8530   12.0530  -20.8280 O   0  0  0  0  0  0  0  0  0  0  0  0
  -24.9990   12.4810  -20.9960 H   0  0  0  0  0  0  0  0  0  0  0  0
  -26.2580   14.4330  -20.9290 C   0  0  0  0  0  0  0  0  0  0  0  0
  -26.3370   15.1470  -19.6940 O   0  0  0  0  0  0  0  0  0  0  0  0
  -26.5330   14.5260  -18.9750 H   0  0  0  0  0  0  0  0  0  0  0  0
  1  2  1  6  0  0  0
  1 12  1  0  0  0  0
  2  7  1  0  0  0  0
  3  2  1  0  0  0  0
  4  3  2  0  0  0  0
  4  5  1  0  0  0  0
  5  6  2  0  0  0  0
  6  7  1  0  0  0  0
  7  8  2  0  0  0  0
  9  5  1  0  0  0  0
  9 10  1  0  0  0  0
 11  9  1  0  0  0  0
 12 13  1  0  0  0  0
 13 15  1  0  0  0  0
 15 14  1  0  0  0  0
 16 15  1  0  0  0  0
 17 18  1  6  0  0  0
 17  1  1  0  0  0  0
 19 18  1  0  0  0  0
 20 21  1  1  0  0  0
 20 17  1  0  0  0  0
 20 23  1  0  0  0  0
 22 21  1  0  0  0  0
 23 26  1  6  0  0  0
 24 23  1  0  0  0  0
 25 24  1  0  0  0  0
 26 27  1  0  0  0  0
 27 28  1  0  0  0  0
M  END
>  <MODEL>
1

>  <REMARK>
 VINA RESULT:      -5.9      0.000      0.000
  Name = ZINC17005558
                            x       y       z     vdW  Elec       q    Type
                         _______ _______ _______ _____ _____    ______ ____

>  <TORSDO>
F 13

>  <vina_score>
-5.9

$$$$
ZINC19950324
 OpenBabel01081722213D

 24 24  0  0  0  0  0  0  0  0999 V2000
  -32.8170   11.7760  -18.7330 N   0  0  0  0  0  0  0  0  0  0  0  0
  -31.4790   11.6690  -18.8720 C   0  0  0  0  0  0  0  0  0  0  0  0
  -30.8960   11.9260  -20.2020 C   0  0  0  0  0  0  0  0  0  0  0  0
  -31.8260   12.2940  -21.2830 C   0  0  0  0  0  0  0  0  0  0  0  0
  -33.1420   12.3690  -20.9940 N   0  0  0  0  0  0  0  0  0  0  0  0
  -33.7780   12.6140  -21.7060 H   0  0  0  0  0  0  0  0  0  0  0  0
  -31.4190   12.5270  -22.4060 O   0  0  0  0  0  0  0  0  0  0  0  0
  -29.5340   11.8300  -20.4220 C   0  0  0  0  0  0  0  0  0  0  0  0
  -30.7750   11.3640  -17.9290 O   0  0  0  0  0  0  0  0  0  0  0  0
  -33.6040   12.1160  -19.7620 C   0  0  0  0  0  0  0  0  0  0  0  0
  -34.8020   12.1990  -19.5680 O   0  0  0  0  0  0  0  0  0  0  0  0
  -29.0480   11.9150  -21.6760 N   0  0  0  0  0  0  0  0  0  0  0  0
  -29.4520   11.3810  -22.3980 H   0  0  0  0  0  0  0  0  0  0  0  0
  -27.9180   12.8020  -21.9660 C   0  0  0  0  0  0  0  0  0  0  0  0
  -27.0940   13.0100  -20.6940 C   0  0  0  0  0  0  0  0  0  0  0  0
  -26.8980   14.5090  -20.4530 C   0  0  0  0  0  0  0  0  0  0  0  0
  -27.4280   14.8660  -19.1300 N   0  0  0  0  0  0  0  0  0  0  0  0
  -26.8900   15.6590  -18.7810 H   0  0  0  0  0  0  0  0  0  0  0  0
  -27.2630   13.7570  -18.1810 C   0  0  0  0  0  0  0  0  0  0  0  0
  -28.8350   15.2780  -19.2200 C   0  0  0  0  0  0  0  0  0  0  0  0
  -33.4220   11.5200  -17.4220 C   0  0  0  0  0  0  0  0  0  0  0  0
  -33.2560   12.7560  -16.5350 C   0  0  0  0  0  0  0  0  0  0  0  0
  -34.4680   11.2990  -14.9060 C   0  0  0  0  0  0  0  0  0  0  0  0
  -34.3080   12.7300  -15.4240 C   0  0  0  0  0  0  0  0  0  0  0  0
  1 21  1  0  0  0  0
  2  1  1  0  0  0  0
  2  9  2  0  0  0  0
  3  2  1  0  0  0  0
  4  5  1  0  0  0  0
  4  3  1  0  0  0  0
  5 10  1  0  0  0  0
  6  5  1  0  0  0  0
  7  4  2  0  0  0  0
  8  3  2  0  0  0  0
 10 11  2  0  0  0  0
 10  1  1  0  0  0  0
 12  8  1  0  0  0  0
 13 12  1  0  0  0  0
 14 12  1  0  0  0  0
 14 15  1  0  0  0  0
 15 16  1  0  0  0  0
 16 17  1  0  0  0  0
 17 18  1  0  0  0  0
 17 19  1  0  0  0  0
 20 17  1  0  0  0  0
 21 22  1  0  0  0  0
 22 24  1  0  0  0  0
 24 23  1  0  0  0  0
M  END
>  <MODEL>
1

>  <REMARK>
 VINA RESULT:      -5.9      0.000      0.000
  Name = ZINC19950324
                            x       y       z     vdW  Elec       q    Type
                         _______ _______ _______ _____ _____    ______ ____

>  <TORSDO>
F 8

>  <vina_score>
-5.9

$$$$
ZINC04226539
 OpenBabel01081722053D

 24 25  0  0  1  0  0  0  0  0999 V2000
  -27.9160   14.9630  -18.3570 C   0  0  0  0  0  0  0  0  0  0  0  0
  -28.9610   13.8810  -18.4330 C   0  0  0  0  0  0  0  0  0  0  0  0
  -29.9480   13.9390  -17.5100 N   0  0  0  0  0  0  0  0  0  0  0  0
  -29.9840   14.6470  -16.8280 H   0  0  0  0  0  0  0  0  0  0  0  0
  -30.9010   12.9450  -17.5850 C   0  0  0  0  0  0  0  0  0  0  0  0
  -31.9470   12.9640  -16.6470 C   0  0  0  0  0  0  0  0  0  0  0  0
  -32.9210   11.9800  -16.6910 C   0  0  2  0  0  0  0  0  0  0  0  0
  -32.8710   10.9680  -17.6640 C   0  0  0  0  0  0  0  0  0  0  0  0
  -31.8660   10.9340  -18.5790 C   0  0  0  0  0  0  0  0  0  0  0  0
  -30.8650   11.9180  -18.5590 C   0  0  0  0  0  0  0  0  0  0  0  0
  -29.8080   11.9060  -19.5010 C   0  0  0  0  0  0  0  0  0  0  0  0
  -28.8530   12.9050  -19.4170 C   0  0  0  0  0  0  0  0  0  0  0  0
  -34.0220   11.9970  -15.7060 C   0  0  0  0  0  0  0  0  0  0  0  0
  -34.5070   13.1710  -15.2580 O   0  0  0  0  0  0  0  0  0  0  0  0
  -34.4890   10.9520  -15.2980 O   0  0  0  0  0  0  0  0  0  0  0  0
  -29.7290   10.9210  -20.4740 N   0  0  0  0  0  0  0  0  0  0  0  0
  -29.5690    9.9850  -20.2140 H   0  0  0  0  0  0  0  0  0  0  0  0
  -29.8800   11.2740  -21.8870 C   0  0  0  0  0  0  0  0  0  0  0  0
  -31.3560   11.5390  -22.1910 C   0  0  0  0  0  0  0  0  0  0  0  0
  -31.5980   12.9470  -22.1910 O   0  0  0  0  0  0  0  0  0  0  0  0
  -32.6830   13.3510  -21.3540 C   0  0  0  0  0  0  0  0  0  0  0  0
  -32.3020   14.6310  -20.6070 C   0  0  0  0  0  0  0  0  0  0  0  0
  -33.1360   14.7770  -19.4560 O   0  0  0  0  0  0  0  0  0  0  0  0
  -33.2200   15.7160  -19.2340 H   0  0  0  0  0  0  0  0  0  0  0  0
  2  1  1  0  0  0  0
  2  3  1  0  0  0  0
  3  4  1  0  0  0  0
  5  3  1  0  0  0  0
  5  6  2  0  0  0  0
  7  6  1  0  0  0  0
  7 13  1  6  0  0  0
  8  7  1  0  0  0  0
  9 10  1  0  0  0  0
  9  8  2  0  0  0  0
 10  5  1  0  0  0  0
 11 12  1  0  0  0  0
 11 10  2  0  0  0  0
 12  2  2  0  0  0  0
 13 15  2  0  0  0  0
 13 14  1  0  0  0  0
 16 17  1  0  0  0  0
 16 11  1  0  0  0  0
 18 16  1  0  0  0  0
 19 18  1  0  0  0  0
 20 19  1  0  0  0  0
 20 21  1  0  0  0  0
 21 22  1  0  0  0  0
 22 23  1  0  0  0  0
 23 24  1  0  0  0  0
M  END
>  <MODEL>
1

>  <REMARK>
 VINA RESULT:      -5.9      0.000      0.000
  Name = ZINC04226539
                            x       y       z     vdW  Elec       q    Type
                         _______ _______ _______ _____ _____    ______ ____

>  <TORSDO>
F 8

>  <vina_score>
-5.9

$$$$
ZINC11635230
 OpenBabel01081722283D

 25 26  0  0  0  0  0  0  0  0999 V2000
  -31.2900   16.5360  -19.9980 C   0  0  0  0  0  0  0  0  0  0  0  0
  -30.3280   15.3850  -20.1490 C   0  0  0  0  0  0  0  0  0  0  0  0
  -28.9690   15.6070  -20.0410 C   0  0  0  0  0  0  0  0  0  0  0  0
  -28.0830   14.5490  -20.1850 C   0  0  0  0  0  0  0  0  0  0  0  0
  -28.5710   13.2630  -20.4260 C   0  0  0  0  0  0  0  0  0  0  0  0
  -27.4630   12.4240  -20.5160 N   0  0  0  0  0  0  0  0  0  0  0  0
  -27.4880   11.4520  -20.6740 H   0  0  0  0  0  0  0  0  0  0  0  0
  -26.3530   13.1660  -20.3480 C   0  0  0  0  0  0  0  0  0  0  0  0
  -25.2130   12.7390  -20.3700 O   0  0  0  0  0  0  0  0  0  0  0  0
  -29.9360   13.0510  -20.5330 C   0  0  0  0  0  0  0  0  0  0  0  0
  -26.6960   14.4520  -20.1380 N   0  0  0  0  0  0  0  0  0  0  0  0
  -26.0710   15.1960  -19.9800 H   0  0  0  0  0  0  0  0  0  0  0  0
  -30.8100   14.1120  -20.3940 C   0  0  0  0  0  0  0  0  0  0  0  0
  -32.5460   13.8420  -20.5300 S   0  0  0  0  0  0  0  0  0  0  0  0
  -32.9620   14.4710  -21.7350 O   0  0  0  0  0  0  0  0  0  0  0  0
  -33.1080   14.1710  -19.2670 O   0  0  0  0  0  0  0  0  0  0  0  0
  -32.7740   12.2160  -20.7410 N   0  0  0  0  0  0  0  0  0  0  0  0
  -32.1710   11.7440  -20.0670 H   0  0  0  0  0  0  0  0  0  0  0  0
  -34.1110   11.6380  -20.5890 C   0  0  0  0  0  0  0  0  0  0  0  0
  -34.1650   10.8030  -19.3080 C   0  0  0  0  0  0  0  0  0  0  0  0
  -32.7910   10.8090  -18.6380 C   0  0  0  0  0  0  0  0  0  0  0  0
  -32.8270   11.7280  -17.4820 N   0  0  0  0  0  0  0  0  0  0  0  0
  -33.3610   12.5590  -17.7360 H   0  0  0  0  0  0  0  0  0  0  0  0
  -31.4550   12.1340  -17.1140 C   0  0  0  0  0  0  0  0  0  0  0  0
  -33.4840   11.0700  -16.3330 C   0  0  0  0  0  0  0  0  0  0  0  0
  2  3  1  0  0  0  0
  2  1  1  0  0  0  0
  4 11  1  0  0  0  0
  4  3  2  0  0  0  0
  5  4  1  0  0  0  0
  6  5  1  0  0  0  0
  6  8  1  0  0  0  0
  7  6  1  0  0  0  0
  8 11  1  0  0  0  0
  9  8  2  0  0  0  0
 10  5  2  0  0  0  0
 10 13  1  0  0  0  0
 11 12  1  0  0  0  0
 13  2  2  0  0  0  0
 14 13  1  0  0  0  0
 14 16  2  0  0  0  0
 15 14  2  0  0  0  0
 17 19  1  0  0  0  0
 17 14  1  0  0  0  0
 17 18  1  0  0  0  0
 19 20  1  0  0  0  0
 20 21  1  0  0  0  0
 21 22  1  0  0  0  0
 22 24  1  0  0  0  0
 22 25  1  0  0  0  0
 23 22  1  0  0  0  0
M  END
>  <MODEL>
1

>  <REMARK>
 VINA RESULT:      -5.9      0.000      0.000
  Name = ZINC11635230
                            x       y       z     vdW  Elec       q    Type
                         _______ _______ _______ _____ _____    ______ ____

>  <TORSDO>
F 6

>  <vina_score>
-5.9

$$$$
ZINC01839390
 OpenBabel01081722043D

 19 19  0  0  0  0  0  0  0  0999 V2000
  -29.0230   14.0220  -20.4400 C   0  0  0  0  0  0  0  0  0  0  0  0
  -27.9660   14.5120  -19.4680 C   0  0  0  0  0  0  0  0  0  0  0  0
  -28.2430   15.4570  -18.5560 O   0  0  0  0  0  0  0  0  0  0  0  0
  -26.7720   13.9760  -19.5540 N   0  0  0  0  0  0  0  0  0  0  0  0
  -26.0700   14.2800  -18.9330 H   0  0  0  0  0  0  0  0  0  0  0  0
  -26.4730   13.0370  -20.4510 C   0  0  0  0  0  0  0  0  0  0  0  0
  -25.2140   12.5550  -20.4490 O   0  0  0  0  0  0  0  0  0  0  0  0
  -27.3100   12.5400  -21.3390 N   0  0  0  0  0  0  0  0  0  0  0  0
  -26.9910   11.8470  -21.9600 H   0  0  0  0  0  0  0  0  0  0  0  0
  -28.5780   12.9510  -21.4200 C   0  0  0  0  0  0  0  0  0  0  0  0
  -29.3420   12.4870  -22.2430 O   0  0  0  0  0  0  0  0  0  0  0  0
  -30.0000   12.4740  -18.8650 N   0  0  0  0  0  0  0  0  0  0  0  0
  -30.1780   13.4740  -19.6420 C   0  0  0  0  0  0  0  0  0  0  0  0
  -31.1230   11.9410  -18.0900 C   0  0  0  0  0  0  0  0  0  0  0  0
  -32.0810   11.1990  -19.0250 C   0  0  0  0  0  0  0  0  0  0  0  0
  -33.4570   12.8410  -17.8960 C   0  0  0  0  0  0  0  0  0  0  0  0
  -33.4200   11.7980  -18.9300 N   0  0  0  0  0  0  0  0  0  0  0  0
  -34.0740   11.0640  -18.6580 H   0  0  0  0  0  0  0  0  0  0  0  0
  -33.8510   12.3280  -20.2300 C   0  0  0  0  0  0  0  0  0  0  0  0
  1 13  1  0  0  0  0
  1  2  1  0  0  0  0
  2  3  2  0  0  0  0
  4  2  1  0  0  0  0
  4  5  1  0  0  0  0
  6  7  2  0  0  0  0
  6  4  1  0  0  0  0
  8  6  1  0  0  0  0
  9  8  1  0  0  0  0
 10  8  1  0  0  0  0
 10  1  1  0  0  0  0
 11 10  2  0  0  0  0
 12 14  1  0  0  0  0
 13 12  2  0  0  0  0
 15 17  1  0  0  0  0
 15 14  1  0  0  0  0
 17 18  1  0  0  0  0
 17 16  1  0  0  0  0
 19 17  1  0  0  0  0
M  END
>  <MODEL>
1

>  <REMARK>
 VINA RESULT:      -5.9      0.000      0.000
  Name = ZINC01839390
                            x       y       z     vdW  Elec       q    Type
                         _______ _______ _______ _____ _____    ______ ____

>  <TORSDO>
F 4

>  <vina_score>
-5.9

$$$$
ZINC27239387
 OpenBabel01081722073D

 25 26  0  0  0  0  0  0  0  0999 V2000
  -31.6860   13.0020  -21.1280 C   0  0  0  0  0  0  0  0  0  0  0  0
  -32.3020   13.7240  -21.8830 O   0  0  0  0  0  0  0  0  0  0  0  0
  -28.4080   15.5920  -18.3890 C   0  0  0  0  0  0  0  0  0  0  0  0
  -28.9800   14.6150  -19.3190 N   0  0  0  0  0  0  0  0  0  0  0  0
  -30.2820   14.5010  -19.6190 C   0  0  0  0  0  0  0  0  0  0  0  0
  -30.4300   13.4680  -20.5320 C   0  0  0  0  0  0  0  0  0  0  0  0
  -29.1370   12.9430  -20.7740 C   0  0  0  0  0  0  0  0  0  0  0  0
  -28.2660   13.6690  -20.0210 C   0  0  0  0  0  0  0  0  0  0  0  0
  -26.8120   13.4740  -19.9630 C   0  0  0  0  0  0  0  0  0  0  0  0
  -26.2550   12.8760  -18.8910 N   0  0  0  0  0  0  0  0  0  0  0  0
  -25.2800   12.7440  -18.8520 H   0  0  0  0  0  0  0  0  0  0  0  0
  -26.8220   12.5700  -18.1480 H   0  0  0  0  0  0  0  0  0  0  0  0
  -26.1080   13.8510  -20.8820 O   0  0  0  0  0  0  0  0  0  0  0  0
  -32.2130   11.6290  -20.8000 C   0  0  0  0  0  0  0  0  0  0  0  0
  -33.1600   11.7230  -19.6800 N   0  0  0  0  0  0  0  0  0  0  0  0
  -33.5240   12.6750  -19.6570 H   0  0  0  0  0  0  0  0  0  0  0  0
  -34.2940   10.8090  -19.8710 C   0  0  0  0  0  0  0  0  0  0  0  0
  -32.4860   11.4660  -18.4000 C   0  0  0  0  0  0  0  0  0  0  0  0
  -32.8830   12.5240  -17.4030 C   0  0  0  0  0  0  0  0  0  0  0  0
  -33.5060   12.1740  -16.2600 N   0  0  0  0  0  0  0  0  0  0  0  0
  -33.8640   10.8040  -15.8650 C   0  0  0  0  0  0  0  0  0  0  0  0
  -34.5790   10.8930  -14.5000 C   0  0  0  0  0  0  0  0  0  0  0  0
  -35.0940   12.3560  -14.4750 C   0  0  0  0  0  0  0  0  0  0  0  0
  -33.9470   13.1020  -15.2030 C   0  0  0  0  0  0  0  0  0  0  0  0
  -32.6400   13.6910  -17.6280 O   0  0  0  0  0  0  0  0  0  0  0  0
  1 14  1  0  0  0  0
  1  6  1  0  0  0  0
  2  1  2  0  0  0  0
  4  3  1  0  0  0  0
  5  4  1  0  0  0  0
  6  5  2  0  0  0  0
  7  6  1  0  0  0  0
  7  8  2  0  0  0  0
  8  9  1  0  0  0  0
  8  4  1  0  0  0  0
  9 10  1  0  0  0  0
 10 11  1  0  0  0  0
 10 12  1  0  0  0  0
 13  9  2  0  0  0  0
 14 15  1  0  0  0  0
 15 16  1  0  0  0  0
 15 18  1  0  0  0  0
 17 15  1  0  0  0  0
 18 19  1  0  0  0  0
 19 20  1  0  0  0  0
 20 21  1  0  0  0  0
 20 24  1  0  0  0  0
 21 22  1  0  0  0  0
 22 23  1  0  0  0  0
 24 23  1  0  0  0  0
 25 19  2  0  0  0  0
M  END
>  <MODEL>
1

>  <REMARK>
 VINA RESULT:      -5.9      0.000      0.000
  Name = ZINC27239387
                            x       y       z     vdW  Elec       q    Type
                         _______ _______ _______ _____ _____    ______ ____

>  <TORSDO>
F 6

>  <vina_score>
-5.9

$$$$
ZINC12409987
 OpenBabel01081722023D

 29 30  0  0  1  0  0  0  0  0999 V2000
  -27.8340   15.0390  -18.6620 C   0  0  1  0  0  0  0  0  0  0  0  0
  -27.1140   13.7560  -19.0590 C   0  0  0  0  0  0  0  0  0  0  0  0
  -27.5050   13.2570  -20.2010 N   0  0  0  0  0  0  0  0  0  0  0  0
  -28.4390   13.7950  -20.9670 C   0  0  0  0  0  0  0  0  0  0  0  0
  -26.2520   13.2420  -18.3720 O   0  0  0  0  0  0  0  0  0  0  0  0
  -28.9520   15.2150  -20.1090 S   0  0  0  0  0  0  0  0  0  0  0  0
  -28.9000   13.3340  -22.1720 N   0  0  0  0  0  0  0  0  0  0  0  0
  -29.2890   13.9610  -22.8230 H   0  0  0  0  0  0  0  0  0  0  0  0
  -28.8200   11.9890  -22.4720 C   0  0  0  0  0  0  0  0  0  0  0  0
  -29.9620   11.3330  -22.6120 N   0  0  0  0  0  0  0  0  0  0  0  0
  -29.9550   10.3730  -22.8260 H   0  0  0  0  0  0  0  0  0  0  0  0
  -30.8180   11.8070  -22.5020 H   0  0  0  0  0  0  0  0  0  0  0  0
  -27.5910   11.3880  -22.6130 N   0  0  0  0  0  0  0  0  0  0  0  0
  -26.8580   11.8670  -23.0630 H   0  0  0  0  0  0  0  0  0  0  0  0
  -27.4450   10.4800  -22.2620 H   0  0  0  0  0  0  0  0  0  0  0  0
  -28.6250   14.8580  -17.3640 C   0  0  0  0  0  0  0  0  0  0  0  0
  -30.8300   13.9360  -18.0000 N   0  0  0  0  0  0  0  0  0  0  0  0
  -31.0780   14.8320  -18.3230 H   0  0  0  0  0  0  0  0  0  0  0  0
  -29.5910   13.7120  -17.5210 C   0  0  0  0  0  0  0  0  0  0  0  0
  -29.2530   12.5870  -17.2150 O   0  0  0  0  0  0  0  0  0  0  0  0
  -32.1350   12.3290  -19.2560 C   0  0  0  0  0  0  0  0  0  0  0  0
  -33.0610   11.2990  -19.2860 C   0  0  0  0  0  0  0  0  0  0  0  0
  -33.6130   10.8300  -18.1100 C   0  0  0  0  0  0  0  0  0  0  0  0
  -33.2530   11.3940  -16.8980 C   0  0  0  0  0  0  0  0  0  0  0  0
  -33.9560   10.8050  -15.4250 Cl  0  0  0  0  0  0  0  0  0  0  0  0
  -32.3290   12.4230  -16.8590 C   0  0  0  0  0  0  0  0  0  0  0  0
  -31.7670   12.8950  -18.0370 C   0  0  0  0  0  0  0  0  0  0  0  0
  -32.3950   13.6440  -21.2210 C   0  0  0  0  0  0  0  0  0  0  0  0
  -31.5860   12.7860  -20.4120 O   0  0  0  0  0  0  0  0  0  0  0  0
  1 16  1  1  0  0  0
  2  1  1  0  0  0  0
  2  5  2  0  0  0  0
  3  2  1  0  0  0  0
  4  3  2  0  0  0  0
  4  6  1  0  0  0  0
  6  1  1  0  0  0  0
  7  4  1  0  0  0  0
  8  7  1  0  0  0  0
  9  7  1  0  0  0  0
 10 12  1  0  0  0  0
 10  9  1  0  0  0  0
 11 10  1  0  0  0  0
 13  9  2  0  0  0  0
 13 15  1  0  0  0  0
 14 13  1  0  0  0  0
 17 19  1  0  0  0  0
 18 17  1  0  0  0  0
 19 16  1  0  0  0  0
 19 20  2  0  0  0  0
 21 27  1  0  0  0  0
 22 21  2  0  0  0  0
 22 23  1  0  0  0  0
 23 24  2  0  0  0  0
 24 26  1  0  0  0  0
 24 25  1  0  0  0  0
 27 17  1  0  0  0  0
 27 26  2  0  0  0  0
 28 29  1  0  0  0  0
 29 21  1  0  0  0  0
M  END
>  <MODEL>
1

>  <REMARK>
 VINA RESULT:      -5.9      0.000      0.000
  Name = ZINC12409987
                            x       y       z     vdW  Elec       q    Type
                         _______ _______ _______ _____ _____    ______ ____

>  <TORSDO>
F 7

>  <vina_score>
-5.9

$$$$
ZINC05799862
 OpenBabel01081722113D

 25 26  0  0  0  0  0  0  0  0999 V2000
  -30.9920   13.0300  -19.4400 C   0  0  0  0  0  0  0  0  0  0  0  0
  -29.6930   12.9030  -18.7750 C   0  0  0  0  0  0  0  0  0  0  0  0
  -28.5150   13.2260  -19.5090 C   0  0  0  0  0  0  0  0  0  0  0  0
  -28.6170   13.6250  -20.7850 C   0  0  0  0  0  0  0  0  0  0  0  0
  -27.4110   13.9600  -21.6290 C   0  0  0  0  0  0  0  0  0  0  0  0
  -26.1910   14.2200  -20.7510 C   0  0  0  0  0  0  0  0  0  0  0  0
  -26.0400   13.0440  -19.7780 C   0  0  0  0  0  0  0  0  0  0  0  0
  -29.8400   13.7410  -21.3900 N   0  0  0  0  0  0  0  0  0  0  0  0
  -29.8730   14.0420  -22.3260 H   0  0  0  0  0  0  0  0  0  0  0  0
  -27.1990   13.0960  -18.7870 C   0  0  0  0  0  0  0  0  0  0  0  0
  -29.6210   12.5280  -17.6150 O   0  0  0  0  0  0  0  0  0  0  0  0
  -31.0030   13.4600  -20.7650 C   0  0  0  0  0  0  0  0  0  0  0  0
  -32.3430   11.5730  -18.0240 N   0  0  0  0  0  0  0  0  0  0  0  0
  -31.5820   10.9510  -17.9810 H   0  0  0  0  0  0  0  0  0  0  0  0
  -32.2400   12.7160  -18.7320 C   0  0  0  0  0  0  0  0  0  0  0  0
  -33.1800   13.4840  -18.7860 O   0  0  0  0  0  0  0  0  0  0  0  0
  -33.5870   11.2590  -17.3190 C   0  0  0  0  0  0  0  0  0  0  0  0
  -33.4250   11.5740  -15.8310 C   0  0  0  0  0  0  0  0  0  0  0  0
  -34.4740   10.8030  -15.0280 C   0  0  0  0  0  0  0  0  0  0  0  0
  -34.9480   13.0340  -14.2140 C   0  0  0  0  0  0  0  0  0  0  0  0
  -34.8570   11.6060  -13.8480 N   0  0  0  0  0  0  0  0  0  0  0  0
  -34.1460   11.4940  -13.1250 H   0  0  0  0  0  0  0  0  0  0  0  0
  -36.1560   11.1370  -13.3180 C   0  0  0  0  0  0  0  0  0  0  0  0
  -32.1730   13.5960  -21.4210 O   0  0  0  0  0  0  0  0  0  0  0  0
  -32.9070   13.0630  -21.1870 H   0  0  0  0  0  0  0  0  0  0  0  0
  1  2  1  0  0  0  0
  1 15  1  0  0  0  0
  2 11  2  0  0  0  0
  3 10  1  0  0  0  0
  3  2  1  0  0  0  0
  4  3  2  0  0  0  0
  5  4  1  0  0  0  0
  5  6  1  0  0  0  0
  6  7  1  0  0  0  0
  7 10  1  0  0  0  0
  8  4  1  0  0  0  0
  8 12  1  0  0  0  0
  9  8  1  0  0  0  0
 12  1  2  0  0  0  0
 13 14  1  0  0  0  0
 13 17  1  0  0  0  0
 15 13  1  0  0  0  0
 16 15  2  0  0  0  0
 17 18  1  0  0  0  0
 18 19  1  0  0  0  0
 19 21  1  0  0  0  0
 20 21  1  0  0  0  0
 21 23  1  0  0  0  0
 21 22  1  0  0  0  0
 24 25  1  0  0  0  0
 24 12  1  0  0  0  0
M  END
>  <MODEL>
1

>  <REMARK>
 VINA RESULT:      -5.9      0.000      0.000
  Name = ZINC05799862
                            x       y       z     vdW  Elec       q    Type
                         _______ _______ _______ _____ _____    ______ ____

>  <TORSDO>
F 6

>  <vina_score>
-5.9

$$$$
ZINC18153419
 OpenBabel01081722123D

 26 28  0  0  1  0  0  0  0  0999 V2000
  -31.8740   11.5080  -18.3970 N   0  0  0  0  0  0  0  0  0  0  0  0
  -30.7050   12.1650  -18.6240 C   0  0  1  0  0  0  0  0  0  0  0  0
  -30.2900   12.6690  -17.4450 N   0  0  0  0  0  0  0  0  0  0  0  0
  -29.4700   13.1910  -17.2910 H   0  0  0  0  0  0  0  0  0  0  0  0
  -31.2410   12.3140  -16.4790 N   0  0  0  0  0  0  0  0  0  0  0  0
  -30.0440   12.2920  -19.8650 C   0  0  0  0  0  0  0  0  0  0  0  0
  -30.3870   11.6810  -21.0810 C   0  0  0  0  0  0  0  0  0  0  0  0
  -29.5330   12.0410  -22.0110 N   0  0  0  0  0  0  0  0  0  0  0  0
  -28.5920   12.8750  -21.5380 C   0  0  0  0  0  0  0  0  0  0  0  0
  -27.4920   13.5140  -22.1280 C   0  0  0  0  0  0  0  0  0  0  0  0
  -26.6930   14.3240  -21.3760 C   0  0  0  0  0  0  0  0  0  0  0  0
  -26.9490   14.5290  -20.0250 C   0  0  0  0  0  0  0  0  0  0  0  0
  -28.0140   13.9210  -19.4190 C   0  0  0  0  0  0  0  0  0  0  0  0
  -28.8460   13.0880  -20.1630 C   0  0  0  0  0  0  0  0  0  0  0  0
  -32.1760   11.6200  -17.0630 C   0  0  0  0  0  0  0  0  0  0  0  0
  -32.6720   10.8030  -19.4040 C   0  0  0  0  0  0  0  0  0  0  0  0
  -33.9210   11.6240  -19.7310 C   0  0  0  0  0  0  0  0  0  0  0  0
  -33.2390   13.4520  -21.1240 C   0  0  0  0  0  0  0  0  0  0  0  0
  -33.5740   13.0080  -19.8070 O   0  0  0  0  0  0  0  0  0  0  0  0
  -33.5950   10.9370  -16.2710 S   0  0  0  0  0  0  0  0  0  0  0  0
  -34.4450   12.4580  -15.7820 C   0  0  0  0  0  0  0  0  0  0  0  0
  -35.0600   12.2750  -14.4180 C   0  0  0  0  0  0  0  0  0  0  0  0
  -34.8530   13.1960  -13.4560 N   0  0  0  0  0  0  0  0  0  0  0  0
  -35.2540   13.0760  -12.5650 H   0  0  0  0  0  0  0  0  0  0  0  0
  -34.3010   13.9890  -13.6450 H   0  0  0  0  0  0  0  0  0  0  0  0
  -35.7400   11.2980  -14.1870 O   0  0  0  0  0  0  0  0  0  0  0  0
  1 15  1  0  0  0  0
  2  6  1  1  0  0  0
  2  1  1  0  0  0  0
  2  3  1  0  0  0  0
  3  4  1  0  0  0  0
  3  5  1  0  0  0  0
  7  6  2  0  0  0  0
  8  9  1  0  0  0  0
  8  7  1  0  0  0  0
  9 14  1  0  0  0  0
 10  9  2  0  0  0  0
 10 11  1  0  0  0  0
 11 12  2  0  0  0  0
 12 13  1  0  0  0  0
 14  6  1  0  0  0  0
 14 13  2  0  0  0  0
 15  5  2  0  0  0  0
 15 20  1  0  0  0  0
 16  1  1  0  0  0  0
 17 16  1  0  0  0  0
 18 19  1  0  0  0  0
 19 17  1  0  0  0  0
 20 21  1  0  0  0  0
 21 22  1  0  0  0  0
 22 26  2  0  0  0  0
 22 23  1  0  0  0  0
 23 24  1  0  0  0  0
 25 23  1  0  0  0  0
M  END
>  <MODEL>
1

>  <REMARK>
 VINA RESULT:      -5.9      0.000      0.000
  Name = ZINC18153419
                            x       y       z     vdW  Elec       q    Type
                         _______ _______ _______ _____ _____    ______ ____

>  <TORSDO>
F 6

>  <vina_score>
-5.9

$$$$
ZINC02267972
 OpenBabel01081722133D

 23 23  0  0  0  0  0  0  0  0999 V2000
  -31.9450   10.8710  -18.0540 N   0  0  0  0  0  0  0  0  0  0  0  0
  -31.8660    9.8900  -18.0410 H   0  0  0  0  0  0  0  0  0  0  0  0
  -30.8470   11.6350  -18.2150 C   0  0  0  0  0  0  0  0  0  0  0  0
  -30.9570   12.9780  -18.2330 N   0  0  0  0  0  0  0  0  0  0  0  0
  -31.8280   13.4030  -18.0610 H   0  0  0  0  0  0  0  0  0  0  0  0
  -29.7570   11.1130  -18.3430 O   0  0  0  0  0  0  0  0  0  0  0  0
  -29.8330   13.7680  -18.4960 C   0  0  0  0  0  0  0  0  0  0  0  0
  -29.1290   14.3470  -17.4480 C   0  0  0  0  0  0  0  0  0  0  0  0
  -28.0170   15.1230  -17.7110 C   0  0  0  0  0  0  0  0  0  0  0  0
  -27.6100   15.3320  -19.0160 C   0  0  0  0  0  0  0  0  0  0  0  0
  -28.3120   14.7620  -20.0620 C   0  0  0  0  0  0  0  0  0  0  0  0
  -29.4220   13.9810  -19.8050 C   0  0  0  0  0  0  0  0  0  0  0  0
  -33.1710   11.4580  -17.9100 N   0  0  0  0  0  0  0  0  0  0  0  0
  -34.1080   10.9790  -18.9350 C   0  0  0  0  0  0  0  0  0  0  0  0
  -34.0150   11.8600  -20.1530 C   0  0  0  0  0  0  0  0  0  0  0  0
  -34.5180   11.5080  -21.1940 O   0  0  0  0  0  0  0  0  0  0  0  0
  -32.6510   13.4670  -21.2670 C   0  0  0  0  0  0  0  0  0  0  0  0
  -33.3730   13.0370  -20.0820 O   0  0  0  0  0  0  0  0  0  0  0  0
  -33.7060   11.2330  -16.5610 C   0  0  0  0  0  0  0  0  0  0  0  0
  -33.8440   12.5550  -15.8490 C   0  0  0  0  0  0  0  0  0  0  0  0
  -33.0380   13.4330  -16.0440 O   0  0  0  0  0  0  0  0  0  0  0  0
  -34.8630   12.7550  -14.9980 O   0  0  0  0  0  0  0  0  0  0  0  0
  -35.2100   11.6560  -14.1160 C   0  0  0  0  0  0  0  0  0  0  0  0
  1  2  1  0  0  0  0
  1 13  1  0  0  0  0
  3  1  1  0  0  0  0
  4  3  1  0  0  0  0
  4  5  1  0  0  0  0
  6  3  2  0  0  0  0
  7  4  1  0  0  0  0
  7  8  2  0  0  0  0
  9  8  1  0  0  0  0
 10  9  2  0  0  0  0
 11 12  2  0  0  0  0
 11 10  1  0  0  0  0
 12  7  1  0  0  0  0
 13 19  1  0  0  0  0
 14 13  1  0  0  0  0
 15 18  1  0  0  0  0
 15 14  1  0  0  0  0
 16 15  2  0  0  0  0
 17 18  1  0  0  0  0
 19 20  1  0  0  0  0
 20 22  1  0  0  0  0
 21 20  2  0  0  0  0
 22 23  1  0  0  0  0
M  END
>  <MODEL>
1

>  <REMARK>
 VINA RESULT:      -5.8      0.000      0.000
  Name = ZINC02267972
                            x       y       z     vdW  Elec       q    Type
                         _______ _______ _______ _____ _____    ______ ____

>  <TORSDO>
F 8

>  <vina_score>
-5.8

$$$$
ZINC14418737
 OpenBabel01081722143D

 25 25  0  0  1  0  0  0  0  0999 V2000
  -29.8180   13.3540  -20.1250 C   0  0  2  0  0  0  0  0  0  0  0  0
  -30.0510   12.6780  -21.4790 C   0  0  2  0  0  0  0  0  0  0  0  0
  -31.1370   11.7560  -21.3670 O   0  0  0  0  0  0  0  0  0  0  0  0
  -32.3800   12.3600  -21.0020 C   0  0  2  0  0  0  0  0  0  0  0  0
  -32.2400   13.0240  -19.6310 C   0  0  2  0  0  0  0  0  0  0  0  0
  -31.1070   14.0530  -19.6840 C   0  0  2  0  0  0  0  0  0  0  0  0
  -33.3980   11.3590  -20.9460 O   0  0  0  0  0  0  0  0  0  0  0  0
  -34.5890   11.7770  -20.2760 C   0  0  0  0  0  0  0  0  0  0  0  0
  -28.7520   14.3330  -20.2500 O   0  0  0  0  0  0  0  0  0  0  0  0
  -27.8440   14.9410  -18.0350 C   0  0  0  0  0  0  0  0  0  0  0  0
  -27.7410   14.2490  -19.3700 C   0  0  0  0  0  0  0  0  0  0  0  0
  -26.7490   13.6180  -19.6500 O   0  0  0  0  0  0  0  0  0  0  0  0
  -28.7860   11.9260  -21.8990 C   0  0  0  0  0  0  0  0  0  0  0  0
  -27.8830   12.8590  -22.5950 N   0  0  0  0  0  0  0  0  0  0  0  0
  -27.0280   12.9740  -22.0530 H   0  0  0  0  0  0  0  0  0  0  0  0
  -27.6550   12.4860  -23.5170 H   0  0  0  0  0  0  0  0  0  0  0  0
  -28.3440   13.7630  -22.7000 H   0  0  0  0  0  0  0  0  0  0  0  0
  -31.9330   12.0150  -18.6320 O   0  0  0  0  0  0  0  0  0  0  0  0
  -31.8740   12.4210  -17.3540 C   0  0  0  0  0  0  0  0  0  0  0  0
  -33.1380   12.8030  -16.6270 C   0  0  0  0  0  0  0  0  0  0  0  0
  -30.8100   12.4810  -16.7870 O   0  0  0  0  0  0  0  0  0  0  0  0
  -31.4430   15.0980  -20.6340 O   0  0  0  0  0  0  0  0  0  0  0  0
  -31.4830   16.3560  -20.1680 C   0  0  0  0  0  0  0  0  0  0  0  0
  -30.2040   17.1310  -19.9810 C   0  0  0  0  0  0  0  0  0  0  0  0
  -32.5440   16.8680  -19.8980 O   0  0  0  0  0  0  0  0  0  0  0  0
  1  9  1  6  0  0  0
  1  6  1  0  0  0  0
  2 13  1  1  0  0  0
  2  3  1  0  0  0  0
  2  1  1  0  0  0  0
  3  4  1  0  0  0  0
  4  7  1  1  0  0  0
  4  5  1  0  0  0  0
  5 18  1  1  0  0  0
  6 22  1  6  0  0  0
  6  5  1  0  0  0  0
  7  8  1  0  0  0  0
  9 11  1  0  0  0  0
 11 10  1  0  0  0  0
 12 11  2  0  0  0  0
 14 15  1  0  0  0  0
 14 13  1  0  0  0  0
 16 14  1  0  0  0  0
 17 14  1  0  0  0  0
 18 19  1  0  0  0  0
 19 21  2  0  0  0  0
 19 20  1  0  0  0  0
 22 23  1  0  0  0  0
 23 24  1  0  0  0  0
 23 25  2  0  0  0  0
M  END
>  <MODEL>
1

>  <REMARK>
 VINA RESULT:      -5.8      0.000      0.000
  Name = ZINC14418737
                            x       y       z     vdW  Elec       q    Type
                         _______ _______ _______ _____ _____    ______ ____

>  <TORSDO>
F 9

>  <vina_score>
-5.8

$$$$
ZINC26490873
 OpenBabel01081722043D

 27 28  0  0  1  0  0  0  0  0999 V2000
  -31.3630   12.3170  -20.6580 C   0  0  2  0  0  0  0  0  0  0  0  0
  -31.3880   10.8040  -21.0370 C   0  0  0  0  0  0  0  0  0  0  0  0
  -30.1130   10.8390  -22.3750 S   0  0  0  0  0  0  0  0  0  0  0  0
  -29.3070   12.4280  -21.9060 C   0  0  1  0  0  0  0  0  0  0  0  0
  -30.0080   12.7810  -20.6900 O   0  0  0  0  0  0  0  0  0  0  0  0
  -31.6060   12.5310  -16.9850 C   0  0  0  0  0  0  0  0  0  0  0  0
  -31.0910   12.3650  -18.2260 C   0  0  0  0  0  0  0  0  0  0  0  0
  -31.9080   12.4940  -19.3090 N   0  0  0  0  0  0  0  0  0  0  0  0
  -33.2110   12.7890  -19.1470 C   0  0  0  0  0  0  0  0  0  0  0  0
  -33.7340   12.9500  -17.9330 N   0  0  0  0  0  0  0  0  0  0  0  0
  -33.9260   12.9050  -20.1280 O   0  0  0  0  0  0  0  0  0  0  0  0
  -32.9770   12.8340  -16.8490 C   0  0  0  0  0  0  0  0  0  0  0  0
  -33.5260   13.0090  -15.6000 N   0  0  0  0  0  0  0  0  0  0  0  0
  -33.8650   13.8930  -15.3300 H   0  0  0  0  0  0  0  0  0  0  0  0
  -33.5820   12.2490  -14.9760 H   0  0  0  0  0  0  0  0  0  0  0  0
  -27.8160   12.2220  -21.6330 C   0  0  0  0  0  0  0  0  0  0  0  0
  -27.3040   13.3430  -20.8660 O   0  0  0  0  0  0  0  0  0  0  0  0
  -26.2880   13.0910  -20.0200 C   0  0  0  0  0  0  0  0  0  0  0  0
  -25.2430   12.6390  -20.4440 O   0  0  0  0  0  0  0  0  0  0  0  0
  -26.4290   13.3390  -18.7060 O   0  0  0  0  0  0  0  0  0  0  0  0
  -27.7680   13.6420  -18.2330 C   0  0  0  0  0  0  0  0  0  0  0  0
  -27.9620   15.1590  -18.1850 C   0  0  0  0  0  0  0  0  0  0  0  0
  -29.2570   15.5300  -18.9110 C   0  0  0  0  0  0  0  0  0  0  0  0
  -28.9930   15.6520  -20.3510 N   0  0  0  0  0  0  0  0  0  0  0  0
  -28.7320   14.7410  -20.7280 H   0  0  0  0  0  0  0  0  0  0  0  0
  -29.8340   15.9850  -20.8230 H   0  0  0  0  0  0  0  0  0  0  0  0
  -28.2330   16.3140  -20.5030 H   0  0  0  0  0  0  0  0  0  0  0  0
  1  8  1  1  0  0  0
  2  1  1  0  0  0  0
  3  4  1  0  0  0  0
  3  2  1  0  0  0  0
  4 16  1  1  0  0  0
  4  5  1  0  0  0  0
  5  1  1  0  0  0  0
  6 12  1  0  0  0  0
  7  6  2  0  0  0  0
  8  9  1  0  0  0  0
  8  7  1  0  0  0  0
  9 10  1  0  0  0  0
 10 12  2  0  0  0  0
 11  9  2  0  0  0  0
 12 13  1  0  0  0  0
 13 14  1  0  0  0  0
 13 15  1  0  0  0  0
 16 17  1  0  0  0  0
 17 18  1  0  0  0  0
 18 20  1  0  0  0  0
 19 18  2  0  0  0  0
 20 21  1  0  0  0  0
 21 22  1  0  0  0  0
 23 22  1  0  0  0  0
 24 23  1  0  0  0  0
 25 24  1  0  0  0  0
 26 24  1  0  0  0  0
 27 24  1  0  0  0  0
M  END
>  <MODEL>
1

>  <REMARK>
 VINA RESULT:      -5.8      0.000      0.000
  Name = ZINC26490873
                            x       y       z     vdW  Elec       q    Type
                         _______ _______ _______ _____ _____    ______ ____

>  <TORSDO>
F 10

>  <vina_score>
-5.8

$$$$
ZINC20261639
 OpenBabel01081722183D

 20 20  0  0  0  0  0  0  0  0999 V2000
  -31.2260   13.5170  -20.0610 N   0  0  0  0  0  0  0  0  0  0  0  0
  -32.5700   14.0980  -20.0330 C   0  0  0  0  0  0  0  0  0  0  0  0
  -29.9280   13.4200  -18.0200 C   0  0  0  0  0  0  0  0  0  0  0  0
  -28.9340   13.9380  -17.2070 C   0  0  0  0  0  0  0  0  0  0  0  0
  -28.2330   15.0630  -17.6020 C   0  0  0  0  0  0  0  0  0  0  0  0
  -28.5230   15.6730  -18.8090 C   0  0  0  0  0  0  0  0  0  0  0  0
  -29.5110   15.1610  -19.6270 C   0  0  0  0  0  0  0  0  0  0  0  0
  -30.2210   14.0360  -19.2350 C   0  0  0  0  0  0  0  0  0  0  0  0
  -30.6170   12.3130  -17.6330 O   0  0  0  0  0  0  0  0  0  0  0  0
  -32.7850   11.4060  -17.0690 C   0  0  0  0  0  0  0  0  0  0  0  0
  -31.7670   12.5180  -16.8100 C   0  0  0  0  0  0  0  0  0  0  0  0
  -30.8930   12.2470  -21.0710 S   0  0  0  0  0  0  0  0  0  0  0  0
  -31.5580   11.1350  -20.4870 O   0  0  0  0  0  0  0  0  0  0  0  0
  -31.2540   12.7090  -22.3650 O   0  0  0  0  0  0  0  0  0  0  0  0
  -29.0960   12.0270  -20.9650 C   0  0  0  0  0  0  0  0  0  0  0  0
  -28.4840   12.1530  -22.3620 C   0  0  0  0  0  0  0  0  0  0  0  0
  -28.0400   13.5360  -22.5790 N   0  0  0  0  0  0  0  0  0  0  0  0
  -27.8550   13.9780  -21.6780 H   0  0  0  0  0  0  0  0  0  0  0  0
  -27.1860   13.5350  -23.1380 H   0  0  0  0  0  0  0  0  0  0  0  0
  -28.7670   14.0550  -23.0700 H   0  0  0  0  0  0  0  0  0  0  0  0
  1  2  1  0  0  0  0
  1  8  1  0  0  0  0
  3  9  1  0  0  0  0
  3  4  2  0  0  0  0
  5  4  1  0  0  0  0
  6  5  2  0  0  0  0
  7  8  2  0  0  0  0
  7  6  1  0  0  0  0
  8  3  1  0  0  0  0
  9 11  1  0  0  0  0
 10 11  1  0  0  0  0
 12 15  1  0  0  0  0
 12 13  2  0  0  0  0
 12  1  1  0  0  0  0
 14 12  2  0  0  0  0
 16 15  1  0  0  0  0
 17 16  1  0  0  0  0
 17 18  1  0  0  0  0
 19 17  1  0  0  0  0
 20 17  1  0  0  0  0
M  END
>  <MODEL>
1

>  <REMARK>
 VINA RESULT:      -5.8      0.000      0.000
  Name = ZINC20261639
                            x       y       z     vdW  Elec       q    Type
                         _______ _______ _______ _____ _____    ______ ____

>  <TORSDO>
F 7

>  <vina_score>
-5.8

$$$$
ZINC00399536
 OpenBabel01081722213D

 26 27  0  0  1  0  0  0  0  0999 V2000
  -30.6190   12.2560  -21.0640 C   0  0  0  0  0  0  0  0  0  0  0  0
  -30.2090   11.5060  -19.9710 C   0  0  0  0  0  0  0  0  0  0  0  0
  -30.7760   11.7270  -18.7320 C   0  0  0  0  0  0  0  0  0  0  0  0
  -31.7590   12.6880  -18.5810 C   0  0  0  0  0  0  0  0  0  0  0  0
  -32.1730   13.4330  -19.6690 C   0  0  0  0  0  0  0  0  0  0  0  0
  -31.6050   13.2190  -20.9110 C   0  0  0  0  0  0  0  0  0  0  0  0
  -30.0590   12.0430  -22.2840 O   0  0  0  0  0  0  0  0  0  0  0  0
  -28.7440   12.2950  -22.4050 C   0  0  0  0  0  0  0  0  0  0  0  0
  -27.9670   11.3850  -22.6120 O   0  0  0  0  0  0  0  0  0  0  0  0
  -28.2860   13.5560  -22.2910 O   0  0  0  0  0  0  0  0  0  0  0  0
  -27.1890   13.7780  -21.3670 C   0  0  0  0  0  0  0  0  0  0  0  0
  -28.7510   14.7520  -17.5130 C   0  0  0  0  0  0  0  0  0  0  0  0
  -29.2010   15.4270  -18.6310 C   0  0  0  0  0  0  0  0  0  0  0  0
  -28.6950   15.1120  -19.8780 C   0  0  0  0  0  0  0  0  0  0  0  0
  -27.7390   14.1220  -20.0070 C   0  0  0  0  0  0  0  0  0  0  0  0
  -27.2930   13.4440  -18.8880 C   0  0  0  0  0  0  0  0  0  0  0  0
  -27.7940   13.7630  -17.6400 C   0  0  0  0  0  0  0  0  0  0  0  0
  -32.3810   12.9220  -17.2280 C   0  0  0  0  0  0  0  0  0  0  0  0
  -33.0020   11.6200  -16.7200 C   0  0  2  0  0  0  0  0  0  0  0  0
  -33.6720   10.9390  -17.8420 N   0  0  0  0  0  0  0  0  0  0  0  0
  -33.0320   10.2650  -18.2620 H   0  0  0  0  0  0  0  0  0  0  0  0
  -34.5000   10.4540  -17.4980 H   0  0  0  0  0  0  0  0  0  0  0  0
  -33.9470   11.6270  -18.5420 H   0  0  0  0  0  0  0  0  0  0  0  0
  -33.9910   11.9290  -15.6260 C   0  0  0  0  0  0  0  0  0  0  0  0
  -34.7000   10.9380  -15.0620 O   0  0  0  0  0  0  0  0  0  0  0  0
  -34.1460   13.0690  -15.2550 O   0  0  0  0  0  0  0  0  0  0  0  0
  1  6  2  0  0  0  0
  1  2  1  0  0  0  0
  2  3  2  0  0  0  0
  3  4  1  0  0  0  0
  4 18  1  0  0  0  0
  5  4  2  0  0  0  0
  6  5  1  0  0  0  0
  7  1  1  0  0  0  0
  8 10  1  0  0  0  0
  8  7  1  0  0  0  0
  9  8  2  0  0  0  0
 10 11  1  0  0  0  0
 11 15  1  0  0  0  0
 13 12  2  0  0  0  0
 14 13  1  0  0  0  0
 15 14  2  0  0  0  0
 15 16  1  0  0  0  0
 16 17  2  0  0  0  0
 17 12  1  0  0  0  0
 18 19  1  0  0  0  0
 19 20  1  6  0  0  0
 19 24  1  0  0  0  0
 20 22  1  0  0  0  0
 21 20  1  0  0  0  0
 23 20  1  0  0  0  0
 24 26  2  0  0  0  0
 24 25  1  0  0  0  0
M  END
>  <MODEL>
1

>  <REMARK>
 VINA RESULT:      -5.8      0.000      0.000
  Name = ZINC00399536
                            x       y       z     vdW  Elec       q    Type
                         _______ _______ _______ _____ _____    ______ ____

>  <TORSDO>
F 9

>  <vina_score>
-5.8

$$$$
ZINC01689632
 OpenBabel01081722203D

 22 22  0  0  0  0  0  0  0  0999 V2000
  -30.0620   14.4880  -18.5880 N   0  0  0  0  0  0  0  0  0  0  0  0
  -30.5150   15.0100  -19.2900 H   0  0  0  0  0  0  0  0  0  0  0  0
  -30.4610   13.2280  -18.3220 C   0  0  0  0  0  0  0  0  0  0  0  0
  -29.9020   12.5830  -17.4570 O   0  0  0  0  0  0  0  0  0  0  0  0
  -31.5760   12.6320  -19.0820 C   0  0  0  0  0  0  0  0  0  0  0  0
  -32.9620   12.7290  -18.5850 C   0  0  0  0  0  0  0  0  0  0  0  0
  -33.9380   12.1580  -19.3280 N   0  0  0  0  0  0  0  0  0  0  0  0
  -34.8770   12.1900  -19.0350 H   0  0  0  0  0  0  0  0  0  0  0  0
  -33.5970   11.5430  -20.4790 C   0  0  0  0  0  0  0  0  0  0  0  0
  -32.3200   11.4870  -20.8880 N   0  0  0  0  0  0  0  0  0  0  0  0
  -32.0130   10.8050  -22.1470 C   0  0  0  0  0  0  0  0  0  0  0  0
  -34.4640   11.0280  -21.1600 O   0  0  0  0  0  0  0  0  0  0  0  0
  -33.2180   13.3000  -17.5420 O   0  0  0  0  0  0  0  0  0  0  0  0
  -31.3550   12.0090  -20.2180 N   0  0  0  0  0  0  0  0  0  0  0  0
  -28.9540   15.0790  -17.8340 C   0  0  0  0  0  0  0  0  0  0  0  0
  -27.6970   15.0990  -18.7080 C   0  0  0  0  0  0  0  0  0  0  0  0
  -27.6830   13.8810  -19.5450 N   0  0  0  0  0  0  0  0  0  0  0  0
  -28.5800   13.4040  -19.4500 H   0  0  0  0  0  0  0  0  0  0  0  0
  -28.2260   13.2380  -21.8410 C   0  0  0  0  0  0  0  0  0  0  0  0
  -27.4810   14.2450  -20.9630 C   0  0  0  0  0  0  0  0  0  0  0  0
  -26.6060   12.9730  -19.0980 C   0  0  0  0  0  0  0  0  0  0  0  0
  -25.5470   12.8890  -20.1990 C   0  0  0  0  0  0  0  0  0  0  0  0
  1  3  1  0  0  0  0
  1 15  1  0  0  0  0
  2  1  1  0  0  0  0
  3  4  2  0  0  0  0
  5  6  1  0  0  0  0
  5  3  1  0  0  0  0
  6 13  2  0  0  0  0
  7  8  1  0  0  0  0
  7  6  1  0  0  0  0
  9  7  1  0  0  0  0
 10  9  1  0  0  0  0
 10 14  1  0  0  0  0
 11 10  1  0  0  0  0
 12  9  2  0  0  0  0
 14  5  2  0  0  0  0
 16 15  1  0  0  0  0
 17 18  1  0  0  0  0
 17 21  1  0  0  0  0
 17 16  1  0  0  0  0
 19 20  1  0  0  0  0
 20 17  1  0  0  0  0
 22 21  1  0  0  0  0
M  END
>  <MODEL>
1

>  <REMARK>
 VINA RESULT:      -5.8      0.000      0.000
  Name = ZINC01689632
                            x       y       z     vdW  Elec       q    Type
                         _______ _______ _______ _____ _____    ______ ____

>  <TORSDO>
F 6

>  <vina_score>
-5.8

$$$$
ZINC06495501
 OpenBabel01081722243D

 22 22  0  0  0  0  0  0  0  0999 V2000
  -31.1570   12.6180  -20.3620 C   0  0  0  0  0  0  0  0  0  0  0  0
  -29.9890   11.9620  -20.4990 N   0  0  0  0  0  0  0  0  0  0  0  0
  -29.5850   11.5090  -19.7240 H   0  0  0  0  0  0  0  0  0  0  0  0
  -31.6570   13.1770  -21.3190 O   0  0  0  0  0  0  0  0  0  0  0  0
  -31.1420   12.2970  -17.8830 C   0  0  0  0  0  0  0  0  0  0  0  0
  -31.8130   12.3570  -16.6770 C   0  0  0  0  0  0  0  0  0  0  0  0
  -33.1470   12.7650  -16.6590 C   0  0  0  0  0  0  0  0  0  0  0  0
  -33.7720   13.1030  -17.7830 N   0  0  0  0  0  0  0  0  0  0  0  0
  -33.1650   13.0640  -18.9490 C   0  0  0  0  0  0  0  0  0  0  0  0
  -31.8320   12.6600  -19.0470 C   0  0  0  0  0  0  0  0  0  0  0  0
  -33.8740   12.8280  -15.3750 C   0  0  0  0  0  0  0  0  0  0  0  0
  -34.9710   12.1610  -15.2190 N   0  0  0  0  0  0  0  0  0  0  0  0
  -35.6680   12.2210  -13.9880 O   0  0  0  0  0  0  0  0  0  0  0  0
  -29.3210   11.9200  -21.8020 C   0  0  0  0  0  0  0  0  0  0  0  0
  -28.2090   12.9710  -21.8400 C   0  0  0  0  0  0  0  0  0  0  0  0
  -26.9490   12.3600  -21.3770 N   0  0  0  0  0  0  0  0  0  0  0  0
  -27.1630   11.5040  -20.8670 H   0  0  0  0  0  0  0  0  0  0  0  0
  -26.3620   12.1490  -22.1840 H   0  0  0  0  0  0  0  0  0  0  0  0
  -26.2300   13.2850  -20.4810 C   0  0  0  0  0  0  0  0  0  0  0  0
  -27.2130   13.8620  -19.4610 C   0  0  0  0  0  0  0  0  0  0  0  0
  -26.9170   15.2440  -19.2440 O   0  0  0  0  0  0  0  0  0  0  0  0
  -26.6510   15.6530  -20.0830 H   0  0  0  0  0  0  0  0  0  0  0  0
  1 10  1  0  0  0  0
  2  1  1  0  0  0  0
  2  3  1  0  0  0  0
  4  1  2  0  0  0  0
  5  6  2  0  0  0  0
  6  7  1  0  0  0  0
  7 11  1  0  0  0  0
  8  7  2  0  0  0  0
  9  8  1  0  0  0  0
 10  9  2  0  0  0  0
 10  5  1  0  0  0  0
 11 12  2  0  0  0  0
 12 13  1  0  0  0  0
 14  2  1  0  0  0  0
 15 14  1  0  0  0  0
 15 16  1  0  0  0  0
 16 17  1  0  0  0  0
 16 19  1  0  0  0  0
 18 16  1  0  0  0  0
 19 20  1  0  0  0  0
 20 21  1  0  0  0  0
 22 21  1  0  0  0  0
M  END
>  <MODEL>
1

>  <REMARK>
 VINA RESULT:      -5.8      0.000      0.000
  Name = ZINC06495501
                            x       y       z     vdW  Elec       q    Type
                         _______ _______ _______ _____ _____    ______ ____

>  <TORSDO>
F 8

>  <vina_score>
-5.8

$$$$
ZINC19508865
 OpenBabel01081722043D

 21 21  0  0  1  0  0  0  0  0999 V2000
  -32.3610   14.1650  -20.0560 C   0  0  2  0  0  0  0  0  0  0  0  0
  -32.8380   14.4010  -21.4250 N   0  0  0  0  0  0  0  0  0  0  0  0
  -32.1920   13.9760  -22.0890 H   0  0  0  0  0  0  0  0  0  0  0  0
  -33.7640   13.9870  -21.5380 H   0  0  0  0  0  0  0  0  0  0  0  0
  -32.8920   15.4050  -21.5980 H   0  0  0  0  0  0  0  0  0  0  0  0
  -30.8550   14.1850  -20.0380 C   0  0  0  0  0  0  0  0  0  0  0  0
  -30.1650   13.0270  -20.0410 N   0  0  0  0  0  0  0  0  0  0  0  0
  -30.6430   12.1700  -20.1330 H   0  0  0  0  0  0  0  0  0  0  0  0
  -30.2620   15.2430  -20.0200 O   0  0  0  0  0  0  0  0  0  0  0  0
  -28.7720   13.0400  -19.9120 C   0  0  0  0  0  0  0  0  0  0  0  0
  -28.1800   13.1350  -18.6550 C   0  0  0  0  0  0  0  0  0  0  0  0
  -26.7970   13.1520  -18.5780 C   0  0  0  0  0  0  0  0  0  0  0  0
  -26.0550   13.0610  -19.7420 C   0  0  0  0  0  0  0  0  0  0  0  0
  -26.6470   12.9730  -20.9170 N   0  0  0  0  0  0  0  0  0  0  0  0
  -27.9600   12.9610  -21.0350 C   0  0  0  0  0  0  0  0  0  0  0  0
  -32.8600   12.8020  -19.5710 C   0  0  0  0  0  0  0  0  0  0  0  0
  -33.7480   12.9920  -18.3410 C   0  0  0  0  0  0  0  0  0  0  0  0
  -33.3590   10.8500  -16.5260 C   0  0  0  0  0  0  0  0  0  0  0  0
  -32.8170   12.5500  -16.8480 S   0  0  0  0  0  0  0  0  0  0  0  0
  -33.2640   13.3740  -15.7800 O   0  0  0  0  0  0  0  0  0  0  0  0
  -31.4340   12.5270  -17.1720 O   0  0  0  0  0  0  0  0  0  0  0  0
  1  2  1  6  0  0  0
  1  6  1  0  0  0  0
  1 16  1  0  0  0  0
  3  2  1  0  0  0  0
  4  2  1  0  0  0  0
  5  2  1  0  0  0  0
  6  9  2  0  0  0  0
  7  6  1  0  0  0  0
  7 10  1  0  0  0  0
  8  7  1  0  0  0  0
 10 11  2  0  0  0  0
 11 12  1  0  0  0  0
 13 12  2  0  0  0  0
 14 13  1  0  0  0  0
 15 14  2  0  0  0  0
 15 10  1  0  0  0  0
 16 17  1  0  0  0  0
 17 19  1  0  0  0  0
 19 18  1  0  0  0  0
 19 20  2  0  0  0  0
 21 19  2  0  0  0  0
M  END
>  <MODEL>
1

>  <REMARK>
 VINA RESULT:      -5.8      0.000      0.000
  Name = ZINC19508865
                            x       y       z     vdW  Elec       q    Type
                         _______ _______ _______ _____ _____    ______ ____

>  <TORSDO>
F 6

>  <vina_score>
-5.8

$$$$
ZINC19752184
 OpenBabel01081722083D

 24 25  0  0  1  0  0  0  0  0999 V2000
  -28.0120   12.9700  -20.7620 C   0  0  0  0  0  0  0  0  0  0  0  0
  -28.9090   12.6680  -21.6550 N   0  0  0  0  0  0  0  0  0  0  0  0
  -30.0150   12.1710  -21.0410 C   0  0  0  0  0  0  0  0  0  0  0  0
  -31.2470   11.7070  -21.5110 C   0  0  0  0  0  0  0  0  0  0  0  0
  -32.1950   11.2540  -20.6170 C   0  0  0  0  0  0  0  0  0  0  0  0
  -31.9290   11.2560  -19.2460 C   0  0  0  0  0  0  0  0  0  0  0  0
  -30.7140   11.7120  -18.7710 C   0  0  0  0  0  0  0  0  0  0  0  0
  -29.7530   12.1710  -19.6620 C   0  0  0  0  0  0  0  0  0  0  0  0
  -28.4750   12.6790  -19.5160 N   0  0  0  0  0  0  0  0  0  0  0  0
  -25.5740   12.6990  -20.4020 C   0  0  0  0  0  0  0  0  0  0  0  0
  -26.6560   13.5540  -21.0640 C   0  0  2  0  0  0  0  0  0  0  0  0
  -26.5850   14.9250  -20.5410 N   0  0  0  0  0  0  0  0  0  0  0  0
  -27.5080   15.2140  -20.2180 H   0  0  0  0  0  0  0  0  0  0  0  0
  -25.9250   14.9580  -19.7640 H   0  0  0  0  0  0  0  0  0  0  0  0
  -26.2710   15.5540  -21.2810 H   0  0  0  0  0  0  0  0  0  0  0  0
  -33.3940   10.8030  -21.0730 O   0  0  0  0  0  0  0  0  0  0  0  0
  -34.5370   11.6180  -20.8070 C   0  0  0  0  0  0  0  0  0  0  0  0
  -32.8720   10.8070  -18.3740 O   0  0  0  0  0  0  0  0  0  0  0  0
  -33.0440   11.5500  -17.1650 C   0  0  0  0  0  0  0  0  0  0  0  0
  -27.7570   12.8730  -18.2530 C   0  0  0  0  0  0  0  0  0  0  0  0
  -28.5110   13.8850  -17.3890 C   0  0  0  0  0  0  0  0  0  0  0  0
  -28.4700   15.2390  -18.0500 C   0  0  0  0  0  0  0  0  0  0  0  0
  -29.4360   15.5930  -18.9130 O   0  0  0  0  0  0  0  0  0  0  0  0
  -27.5670   16.0030  -17.8070 O   0  0  0  0  0  0  0  0  0  0  0  0
  1  9  1  0  0  0  0
  2  3  1  0  0  0  0
  2  1  2  0  0  0  0
  3  8  1  0  0  0  0
  4  3  2  0  0  0  0
  4  5  1  0  0  0  0
  5  6  2  0  0  0  0
  6  7  1  0  0  0  0
  6 18  1  0  0  0  0
  8  9  1  0  0  0  0
  8  7  2  0  0  0  0
  9 20  1  0  0  0  0
 11  1  1  1  0  0  0
 11 12  1  0  0  0  0
 11 10  1  0  0  0  0
 12 13  1  0  0  0  0
 12 14  1  0  0  0  0
 15 12  1  0  0  0  0
 16 17  1  0  0  0  0
 16  5  1  0  0  0  0
 18 19  1  0  0  0  0
 20 21  1  0  0  0  0
 22 24  1  0  0  0  0
 22 21  1  0  0  0  0
 23 22  2  0  0  0  0
M  END
>  <MODEL>
1

>  <REMARK>
 VINA RESULT:      -5.8      0.000      0.000
  Name = ZINC19752184
                            x       y       z     vdW  Elec       q    Type
                         _______ _______ _______ _____ _____    ______ ____

>  <TORSDO>
F 7

>  <vina_score>
-5.8

$$$$
ZINC09546414
 OpenBabel01081722033D

 29 31  0  0  0  0  0  0  0  0999 V2000
  -29.3350   12.3550  -20.1960 C   0  0  0  0  0  0  0  0  0  0  0  0
  -28.1630   12.9410  -20.5890 C   0  0  0  0  0  0  0  0  0  0  0  0
  -28.3290   13.4350  -21.8290 N   0  0  0  0  0  0  0  0  0  0  0  0
  -29.5260   13.1860  -22.2350 N   0  0  0  0  0  0  0  0  0  0  0  0
  -30.2050   12.5000  -21.2200 N   0  0  0  0  0  0  0  0  0  0  0  0
  -31.5300   12.0500  -21.2580 C   0  0  0  0  0  0  0  0  0  0  0  0
  -32.7190   12.8590  -20.9780 C   0  0  0  0  0  0  0  0  0  0  0  0
  -33.7720   12.1010  -21.1130 N   0  0  0  0  0  0  0  0  0  0  0  0
  -33.3310   10.8050  -21.4760 O   0  0  0  0  0  0  0  0  0  0  0  0
  -31.9160   10.8410  -21.5550 N   0  0  0  0  0  0  0  0  0  0  0  0
  -32.7240   14.2050  -20.6280 N   0  0  0  0  0  0  0  0  0  0  0  0
  -32.6440   14.8950  -21.3250 H   0  0  0  0  0  0  0  0  0  0  0  0
  -32.8070   14.4670  -19.6820 H   0  0  0  0  0  0  0  0  0  0  0  0
  -26.9300   13.0230  -19.7870 C   0  0  0  0  0  0  0  0  0  0  0  0
  -25.9020   12.5250  -20.2010 O   0  0  0  0  0  0  0  0  0  0  0  0
  -26.9420   13.6490  -18.5940 O   0  0  0  0  0  0  0  0  0  0  0  0
  -27.4600   15.0050  -18.5670 C   0  0  0  0  0  0  0  0  0  0  0  0
  -28.3710   15.1790  -17.3490 C   0  0  0  0  0  0  0  0  0  0  0  0
  -29.6030   11.6790  -18.8770 C   0  0  0  0  0  0  0  0  0  0  0  0
  -33.0260   12.2200  -16.4650 N   0  0  0  0  0  0  0  0  0  0  0  0
  -32.5040   11.8490  -15.6710 H   0  0  0  0  0  0  0  0  0  0  0  0
  -32.3400   13.4270  -16.9710 C   0  0  0  0  0  0  0  0  0  0  0  0
  -30.9110   13.0510  -17.3710 C   0  0  0  0  0  0  0  0  0  0  0  0
  -30.9690   12.0240  -18.4320 N   0  0  0  0  0  0  0  0  0  0  0  0
  -31.4920   12.3940  -19.2260 H   0  0  0  0  0  0  0  0  0  0  0  0
  -31.6560   10.8160  -17.9260 C   0  0  0  0  0  0  0  0  0  0  0  0
  -33.0840   11.1920  -17.5250 C   0  0  0  0  0  0  0  0  0  0  0  0
  -34.5870   12.0660  -14.5880 C   0  0  0  0  0  0  0  0  0  0  0  0
  -34.3940   12.5650  -16.0200 C   0  0  0  0  0  0  0  0  0  0  0  0
  1 19  1  0  0  0  0
  2  1  2  0  0  0  0
  2 14  1  0  0  0  0
  3  2  1  0  0  0  0
  4  3  2  0  0  0  0
  4  5  1  0  0  0  0
  5  1  1  0  0  0  0
  6  5  1  0  0  0  0
  6  7  1  0  0  0  0
  7 11  1  0  0  0  0
  8  7  2  0  0  0  0
  9  8  1  0  0  0  0
 10  9  1  0  0  0  0
 10  6  2  0  0  0  0
 11 13  1  0  0  0  0
 12 11  1  0  0  0  0
 14 16  1  0  0  0  0
 15 14  2  0  0  0  0
 16 17  1  0  0  0  0
 17 18  1  0  0  0  0
 19 24  1  0  0  0  0
 20 29  1  0  0  0  0
 20 21  1  0  0  0  0
 22 20  1  0  0  0  0
 23 22  1  0  0  0  0
 24 26  1  0  0  0  0
 24 23  1  0  0  0  0
 25 24  1  0  0  0  0
 26 27  1  0  0  0  0
 27 20  1  0  0  0  0
 29 28  1  0  0  0  0
M  END
>  <MODEL>
1

>  <REMARK>
 VINA RESULT:      -5.8      0.000      0.000
  Name = ZINC09546414
                            x       y       z     vdW  Elec       q    Type
                         _______ _______ _______ _____ _____    ______ ____

>  <TORSDO>
F 8

>  <vina_score>
-5.8

$$$$
ZINC04727049
 OpenBabel01081722123D

 18 17  0  0  0  0  0  0  0  0999 V2000
  -31.6120   14.1030  -19.6570 N   0  0  0  0  0  0  0  0  0  0  0  0
  -30.8690   13.5520  -19.3190 H   0  0  0  0  0  0  0  0  0  0  0  0
  -31.4000   15.3930  -19.9850 C   0  0  0  0  0  0  0  0  0  0  0  0
  -32.3140   16.0710  -20.4020 O   0  0  0  0  0  0  0  0  0  0  0  0
  -32.9490   13.5200  -19.8050 C   0  0  0  0  0  0  0  0  0  0  0  0
  -32.9550   12.5690  -20.9730 C   0  0  0  0  0  0  0  0  0  0  0  0
  -33.8300   11.7420  -21.0740 O   0  0  0  0  0  0  0  0  0  0  0  0
  -31.9930   12.6450  -21.9060 O   0  0  0  0  0  0  0  0  0  0  0  0
  -29.9290   11.4400  -21.4410 C   0  0  0  0  0  0  0  0  0  0  0  0
  -31.2590   11.4270  -22.1970 C   0  0  0  0  0  0  0  0  0  0  0  0
  -30.0250   15.9930  -19.8330 C   0  0  0  0  0  0  0  0  0  0  0  0
  -29.1020   15.3360  -20.7610 N   0  0  0  0  0  0  0  0  0  0  0  0
  -29.2290   15.4310  -21.7330 H   0  0  0  0  0  0  0  0  0  0  0  0
  -28.0770   14.6010  -20.2850 C   0  0  0  0  0  0  0  0  0  0  0  0
  -27.9180   14.4830  -19.0830 O   0  0  0  0  0  0  0  0  0  0  0  0
  -27.1920   13.9730  -21.1740 C   0  0  0  0  0  0  0  0  0  0  0  0
  -26.2540   13.2760  -20.7320 N   0  0  0  0  0  0  0  0  0  0  0  0
  -25.4100   12.6490  -20.3350 N   0  0  0  0  0  0  0  0  0  0  0  0
  1  2  1  0  0  0  0
  3 11  1  0  0  0  0
  3  1  1  0  0  0  0
  4  3  2  0  0  0  0
  5  1  1  0  0  0  0
  6  5  1  0  0  0  0
  7  6  2  0  0  0  0
  8  6  1  0  0  0  0
 10  8  1  0  0  0  0
 10  9  1  0  0  0  0
 12 14  1  0  0  0  0
 12 11  1  0  0  0  0
 13 12  1  0  0  0  0
 14 15  2  0  0  0  0
 16 17  1  0  0  0  0
 16 14  1  0  0  0  0
 17 18  1  0  0  0  0
M  END
>  <MODEL>
1

>  <REMARK>
 VINA RESULT:      -5.8      0.000      0.000
  Name = ZINC04727049
                            x       y       z     vdW  Elec       q    Type
                         _______ _______ _______ _____ _____    ______ ____

>  <TORSDO>
F 7

>  <vina_score>
-5.8

$$$$
ZINC08652693
 OpenBabel01081722163D

 23 24  0  0  1  0  0  0  0  0999 V2000
  -32.3680   12.4010  -17.2800 C   0  0  2  0  0  0  0  0  0  0  0  0
  -33.8260   12.8950  -17.4060 C   0  0  0  0  0  0  0  0  0  0  0  0
  -34.1740   12.5910  -18.7920 O   0  0  0  0  0  0  0  0  0  0  0  0
  -33.0450   12.3790  -19.4890 C   0  0  0  0  0  0  0  0  0  0  0  0
  -32.9270   12.4170  -20.8080 N   0  0  0  0  0  0  0  0  0  0  0  0
  -31.7360   12.2030  -21.3960 C   0  0  0  0  0  0  0  0  0  0  0  0
  -30.5290   12.0290  -20.5580 C   0  0  2  0  0  0  0  0  0  0  0  0
  -30.7850   11.6090  -19.1460 C   0  0  0  0  0  0  0  0  0  0  0  0
  -29.9980   10.8540  -18.3880 N   0  0  0  0  0  0  0  0  0  0  0  0
  -29.1480   10.5120  -18.7470 H   0  0  0  0  0  0  0  0  0  0  0  0
  -31.6510   12.1500  -22.6120 O   0  0  0  0  0  0  0  0  0  0  0  0
  -31.9920   12.1010  -18.6560 N   0  0  0  0  0  0  0  0  0  0  0  0
  -33.6970   10.8040  -15.8920 C   0  0  0  0  0  0  0  0  0  0  0  0
  -32.2980   11.1440  -16.4120 C   0  0  0  0  0  0  0  0  0  0  0  0
  -29.2570   12.2410  -21.0440 C   0  0  0  0  0  0  0  0  0  0  0  0
  -28.7930   13.5070  -21.2010 N   0  0  0  0  0  0  0  0  0  0  0  0
  -27.4410   13.7310  -21.7180 C   0  0  0  0  0  0  0  0  0  0  0  0
  -26.5270   14.1850  -20.5770 C   0  0  0  0  0  0  0  0  0  0  0  0
  -27.3360   15.0060  -19.5730 C   0  0  0  0  0  0  0  0  0  0  0  0
  -27.2580   14.3530  -18.2490 N   0  0  0  0  0  0  0  0  0  0  0  0
  -26.6400   14.8980  -17.6460 H   0  0  0  0  0  0  0  0  0  0  0  0
  -26.7090   12.9880  -18.3910 C   0  0  0  0  0  0  0  0  0  0  0  0
  -28.6000   14.2970  -17.6330 C   0  0  0  0  0  0  0  0  0  0  0  0
  1 14  1  1  0  0  0
  2  1  1  0  0  0  0
  3  2  1  0  0  0  0
  4  3  1  0  0  0  0
  4 12  1  0  0  0  0
  5  4  2  0  0  0  0
  6  5  1  0  0  0  0
  6  7  1  0  0  0  0
  7 15  1  1  0  0  0
  7  8  1  0  0  0  0
  8 12  1  0  0  0  0
  8  9  2  0  0  0  0
 10  9  1  0  0  0  0
 11  6  2  0  0  0  0
 12  1  1  0  0  0  0
 14 13  1  0  0  0  0
 16 15  2  0  0  0  0
 17 16  1  0  0  0  0
 17 18  1  0  0  0  0
 18 19  1  0  0  0  0
 19 20  1  0  0  0  0
 20 21  1  0  0  0  0
 20 23  1  0  0  0  0
 22 20  1  0  0  0  0
M  END
>  <MODEL>
1

>  <REMARK>
 VINA RESULT:      -5.7      0.000      0.000
  Name = ZINC08652693
                            x       y       z     vdW  Elec       q    Type
                         _______ _______ _______ _____ _____    ______ ____

>  <TORSDO>
F 6

>  <vina_score>
-5.7

$$$$
ZINC05840091
 OpenBabel01081722173D

 26 28  0  0  1  0  0  0  0  0999 V2000
  -28.1020   13.3980  -20.1430 C   0  0  0  0  0  0  0  0  0  0  0  0
  -29.0970   12.5150  -19.7710 C   0  0  0  0  0  0  0  0  0  0  0  0
  -29.6900   11.6980  -20.7230 C   0  0  0  0  0  0  0  0  0  0  0  0
  -29.2840   11.7690  -22.0500 C   0  0  0  0  0  0  0  0  0  0  0  0
  -28.2900   12.6510  -22.4200 C   0  0  0  0  0  0  0  0  0  0  0  0
  -27.7010   13.4720  -21.4690 C   0  0  0  0  0  0  0  0  0  0  0  0
  -30.6990   10.8030  -20.3470 N   0  0  0  0  0  0  0  0  0  0  0  0
  -30.5080    9.8390  -20.2960 H   0  0  0  0  0  0  0  0  0  0  0  0
  -31.9330   11.2630  -20.0510 C   0  0  0  0  0  0  0  0  0  0  0  0
  -32.7330   11.7350  -20.9900 N   0  0  0  0  0  0  0  0  0  0  0  0
  -33.9380   12.2390  -20.7480 C   0  0  0  0  0  0  0  0  0  0  0  0
  -34.3210   12.6160  -19.5320 N   0  0  0  0  0  0  0  0  0  0  0  0
  -33.4270   12.4360  -18.5620 C   0  0  2  0  0  0  0  0  0  0  0  0
  -33.1170   13.0490  -17.4640 N   0  0  0  0  0  0  0  0  0  0  0  0
  -31.9280   12.6450  -16.9960 C   0  0  0  0  0  0  0  0  0  0  0  0
  -31.4480   11.6190  -17.6400 N   0  0  0  0  0  0  0  0  0  0  0  0
  -32.4550   11.2500  -18.6370 C   0  0  2  0  0  0  0  0  0  0  0  0
  -26.7250   14.3460  -21.8360 O   0  0  0  0  0  0  0  0  0  0  0  0
  -26.9530   15.1520  -22.2570 H   0  0  0  0  0  0  0  0  0  0  0  0
  -27.4570   14.2850  -19.1100 C   0  0  0  0  0  0  0  0  0  0  0  0
  -28.2390   15.5350  -19.0070 N   0  0  0  0  0  0  0  0  0  0  0  0
  -27.6990   16.2990  -19.4130 H   0  0  0  0  0  0  0  0  0  0  0  0
  -28.6160   14.5300  -16.8080 C   0  0  0  0  0  0  0  0  0  0  0  0
  -28.5150   15.8430  -17.5890 C   0  0  0  0  0  0  0  0  0  0  0  0
  -29.5100   15.4000  -19.7500 C   0  0  0  0  0  0  0  0  0  0  0  0
  -30.0830   16.7960  -20.0030 C   0  0  0  0  0  0  0  0  0  0  0  0
  1  2  1  0  0  0  0
  1 20  1  0  0  0  0
  3  7  1  0  0  0  0
  3  2  2  0  0  0  0
  4  3  1  0  0  0  0
  5  4  2  0  0  0  0
  5  6  1  0  0  0  0
  6  1  2  0  0  0  0
  7  8  1  0  0  0  0
  7  9  1  0  0  0  0
 10 11  1  0  0  0  0
 10  9  2  0  0  0  0
 11 12  2  0  0  0  0
 13 12  1  6  0  0  0
 13 14  1  0  0  0  0
 14 15  1  0  0  0  0
 16 15  1  0  0  0  0
 17  9  1  6  0  0  0
 17 13  1  0  0  0  0
 17 16  1  0  0  0  0
 18  6  1  0  0  0  0
 19 18  1  0  0  0  0
 20 21  1  0  0  0  0
 21 24  1  0  0  0  0
 22 21  1  0  0  0  0
 24 23  1  0  0  0  0
 25 21  1  0  0  0  0
 26 25  1  0  0  0  0
M  END
>  <MODEL>
1

>  <REMARK>
 VINA RESULT:      -5.7      0.000      0.000
  Name = ZINC05840091
                            x       y       z     vdW  Elec       q    Type
                         _______ _______ _______ _____ _____    ______ ____

>  <TORSDO>
F 7

>  <vina_score>
-5.7

$$$$
ZINC04535632
 OpenBabel01081722183D

 26 27  0  0  1  0  0  0  0  0999 V2000
  -31.2400   13.1590  -19.4640 C   0  0  2  0  0  0  0  0  0  0  0  0
  -31.2410   12.1910  -20.6260 C   0  0  0  0  0  0  0  0  0  0  0  0
  -32.3750   11.6990  -21.3140 C   0  0  0  0  0  0  0  0  0  0  0  0
  -33.7450   12.2340  -20.9880 C   0  0  0  0  0  0  0  0  0  0  0  0
  -32.2440   10.8470  -22.1680 O   0  0  0  0  0  0  0  0  0  0  0  0
  -29.9440   11.8870  -20.8810 C   0  0  0  0  0  0  0  0  0  0  0  0
  -29.5110   11.0490  -21.8500 O   0  0  0  0  0  0  0  0  0  0  0  0
  -29.0790   12.6180  -19.9300 C   0  0  0  0  0  0  0  0  0  0  0  0
  -27.8660   12.5560  -19.9010 O   0  0  0  0  0  0  0  0  0  0  0  0
  -29.8330   13.3620  -19.1010 N   0  0  0  0  0  0  0  0  0  0  0  0
  -34.1410   10.9050  -15.0030 C   0  0  0  0  0  0  0  0  0  0  0  0
  -33.3840   11.4930  -16.1660 C   0  0  0  0  0  0  0  0  0  0  0  0
  -32.3190   10.8050  -16.7170 C   0  0  0  0  0  0  0  0  0  0  0  0
  -31.6220   11.3460  -17.7810 C   0  0  0  0  0  0  0  0  0  0  0  0
  -31.9970   12.5710  -18.3010 C   0  0  0  0  0  0  0  0  0  0  0  0
  -33.0650   13.2560  -17.7540 C   0  0  0  0  0  0  0  0  0  0  0  0
  -33.7590   12.7170  -16.6870 C   0  0  0  0  0  0  0  0  0  0  0  0
  -29.3380   14.2230  -18.0240 C   0  0  0  0  0  0  0  0  0  0  0  0
  -28.2970   15.1950  -18.5860 C   0  0  0  0  0  0  0  0  0  0  0  0
  -28.9630   16.4620  -18.9420 N   0  0  0  0  0  0  0  0  0  0  0  0
  -29.6110   16.7170  -18.1960 H   0  0  0  0  0  0  0  0  0  0  0  0
  -28.2590   17.1900  -19.0580 H   0  0  0  0  0  0  0  0  0  0  0  0
  -29.7160   16.3090  -20.2010 C   0  0  0  0  0  0  0  0  0  0  0  0
  -30.9880   17.1560  -20.1300 C   0  0  0  0  0  0  0  0  0  0  0  0
  -32.1280   16.3210  -20.3390 O   0  0  0  0  0  0  0  0  0  0  0  0
  -32.7970   16.8070  -20.8460 H   0  0  0  0  0  0  0  0  0  0  0  0
  1 10  1  0  0  0  0
  1 15  1  1  0  0  0
  2  1  1  0  0  0  0
  3  4  1  0  0  0  0
  3  2  1  0  0  0  0
  5  3  2  0  0  0  0
  6  2  2  0  0  0  0
  6  8  1  0  0  0  0
  7  6  1  0  0  0  0
  8  9  2  0  0  0  0
  8 10  1  0  0  0  0
 10 18  1  0  0  0  0
 12 11  1  0  0  0  0
 13 12  2  0  0  0  0
 14 13  1  0  0  0  0
 15 14  2  0  0  0  0
 15 16  1  0  0  0  0
 16 17  2  0  0  0  0
 17 12  1  0  0  0  0
 19 18  1  0  0  0  0
 20 19  1  0  0  0  0
 20 21  1  0  0  0  0
 22 20  1  0  0  0  0
 23 24  1  0  0  0  0
 23 20  1  0  0  0  0
 25 24  1  0  0  0  0
 26 25  1  0  0  0  0
M  END
>  <MODEL>
1

>  <REMARK>
 VINA RESULT:      -5.7      0.000      0.000
  Name = ZINC04535632
                            x       y       z     vdW  Elec       q    Type
                         _______ _______ _______ _____ _____    ______ ____

>  <TORSDO>
F 7

>  <vina_score>
-5.7

$$$$
ZINC05114539
 OpenBabel01081722213D

 30 32  0  0  1  0  0  0  0  0999 V2000
  -27.2890   15.2900  -19.7250 C   0  0  0  0  0  0  0  0  0  0  0  0
  -26.9750   13.8920  -19.1900 C   0  0  1  0  0  0  0  0  0  0  0  0
  -28.0330   13.4830  -18.1800 C   0  0  0  0  0  0  0  0  0  0  0  0
  -29.3070   12.9880  -18.7070 C   0  0  0  0  0  0  0  0  0  0  0  0
  -29.4490   12.5640  -20.0410 C   0  0  0  0  0  0  0  0  0  0  0  0
  -28.3060   12.6060  -20.9830 C   0  0  0  0  0  0  0  0  0  0  0  0
  -28.4300   12.4240  -22.1780 O   0  0  0  0  0  0  0  0  0  0  0  0
  -30.7690   12.1580  -20.2010 C   0  0  0  0  0  0  0  0  0  0  0  0
  -31.3980   12.3430  -19.0070 C   0  0  0  0  0  0  0  0  0  0  0  0
  -32.7620   12.1750  -18.3660 C   0  0  2  0  0  0  0  0  0  0  0  0
  -32.6880   13.0330  -17.0830 C   0  0  2  0  0  0  0  0  0  0  0  0
  -31.1700   13.0310  -16.7920 C   0  0  0  0  0  0  0  0  0  0  0  0
  -30.5160   12.8360  -18.0980 N   0  0  0  0  0  0  0  0  0  0  0  0
  -27.8320   13.5640  -16.9860 O   0  0  0  0  0  0  0  0  0  0  0  0
  -26.9820   12.8950  -20.3340 C   0  0  0  0  0  0  0  0  0  0  0  0
  -25.9070   12.3260  -20.7310 N   0  0  0  0  0  0  0  0  0  0  0  0
  -25.0500   12.5310  -20.2910 H   0  0  0  0  0  0  0  0  0  0  0  0
  -33.4160   12.3780  -15.9820 N   0  0  0  0  0  0  0  0  0  0  0  0
  -32.7590   12.1210  -15.2450 H   0  0  0  0  0  0  0  0  0  0  0  0
  -34.1150   13.0190  -15.6070 H   0  0  0  0  0  0  0  0  0  0  0  0
  -33.8790   11.5390  -16.3330 H   0  0  0  0  0  0  0  0  0  0  0  0
  -32.9950   10.8030  -18.0400 O   0  0  0  0  0  0  0  0  0  0  0  0
  -32.3580   10.2450  -18.5130 H   0  0  0  0  0  0  0  0  0  0  0  0
  -31.3910   11.6210  -21.4640 C   0  0  0  0  0  0  0  0  0  0  0  0
  -31.9610   12.7170  -22.2280 O   0  0  0  0  0  0  0  0  0  0  0  0
  -32.9260   13.4410  -21.6310 C   0  0  0  0  0  0  0  0  0  0  0  0
  -32.7170   14.7440  -21.3550 N   0  0  0  0  0  0  0  0  0  0  0  0
  -33.4240   15.2750  -20.9230 H   0  0  0  0  0  0  0  0  0  0  0  0
  -31.8570   15.1640  -21.5870 H   0  0  0  0  0  0  0  0  0  0  0  0
  -33.9870   12.9230  -21.3450 O   0  0  0  0  0  0  0  0  0  0  0  0
  2  1  1  6  0  0  0
  2  3  1  0  0  0  0
  3 14  2  0  0  0  0
  4  3  1  0  0  0  0
  4 13  1  0  0  0  0
  5  4  2  0  0  0  0
  6 15  1  0  0  0  0
  6  5  1  0  0  0  0
  7  6  2  0  0  0  0
  8  5  1  0  0  0  0
  8  9  2  0  0  0  0
  9 10  1  0  0  0  0
  9 13  1  0  0  0  0
 10 22  1  1  0  0  0
 10 11  1  0  0  0  0
 11 12  1  0  0  0  0
 11 18  1  1  0  0  0
 13 12  1  0  0  0  0
 15  2  1  0  0  0  0
 16 15  2  0  0  0  0
 16 17  1  0  0  0  0
 18 20  1  0  0  0  0
 18 19  1  0  0  0  0
 21 18  1  0  0  0  0
 23 22  1  0  0  0  0
 24  8  1  0  0  0  0
 25 26  1  0  0  0  0
 25 24  1  0  0  0  0
 26 27  1  0  0  0  0
 26 30  2  0  0  0  0
 27 28  1  0  0  0  0
 29 27  1  0  0  0  0
M  END
>  <MODEL>
1

>  <REMARK>
 VINA RESULT:      -5.7      0.000      0.000
  Name = ZINC05114539
                            x       y       z     vdW  Elec       q    Type
                         _______ _______ _______ _____ _____    ______ ____

>  <TORSDO>
F 5

>  <vina_score>
-5.7

$$$$
ZINC20843205
 OpenBabel01081722223D

 20 21  0  0  0  0  0  0  0  0999 V2000
  -27.6900   14.2540  -19.3560 C   0  0  0  0  0  0  0  0  0  0  0  0
  -26.6710   13.4530  -19.4790 N   0  0  0  0  0  0  0  0  0  0  0  0
  -26.8100   12.7170  -20.5230 N   0  0  0  0  0  0  0  0  0  0  0  0
  -27.9370   13.0130  -21.1300 C   0  0  0  0  0  0  0  0  0  0  0  0
  -28.5300   14.0070  -20.4070 N   0  0  0  0  0  0  0  0  0  0  0  0
  -29.7190   14.6260  -20.6750 N   0  0  0  0  0  0  0  0  0  0  0  0
  -30.5530   14.2810  -20.2810 H   0  0  0  0  0  0  0  0  0  0  0  0
  -29.7420   15.4160  -21.2620 H   0  0  0  0  0  0  0  0  0  0  0  0
  -28.6620   14.6250  -17.1050 C   0  0  0  0  0  0  0  0  0  0  0  0
  -27.9010   15.2710  -18.2640 C   0  0  0  0  0  0  0  0  0  0  0  0
  -28.5610   12.2720  -22.6020 S   0  0  0  0  0  0  0  0  0  0  0  0
  -29.7060   11.0660  -21.8860 C   0  0  0  0  0  0  0  0  0  0  0  0
  -30.9810   11.7610  -21.4860 C   0  0  0  0  0  0  0  0  0  0  0  0
  -31.6400   12.6330  -22.1960 N   0  0  0  0  0  0  0  0  0  0  0  0
  -32.6800   13.0190  -21.5430 N   0  0  0  0  0  0  0  0  0  0  0  0
  -32.7200   12.4050  -20.3950 C   0  0  0  0  0  0  0  0  0  0  0  0
  -31.6490   11.5970  -20.3320 O   0  0  0  0  0  0  0  0  0  0  0  0
  -33.7760   12.5710  -19.3330 C   0  0  0  0  0  0  0  0  0  0  0  0
  -33.2980   13.4600  -18.3200 O   0  0  0  0  0  0  0  0  0  0  0  0
  -32.8700   12.8040  -17.1240 C   0  0  0  0  0  0  0  0  0  0  0  0
  1 10  1  0  0  0  0
  2  1  2  0  0  0  0
  3  2  1  0  0  0  0
  4  3  2  0  0  0  0
  4  5  1  0  0  0  0
  5  1  1  0  0  0  0
  6  5  1  0  0  0  0
  6  7  1  0  0  0  0
  8  6  1  0  0  0  0
 10  9  1  0  0  0  0
 11 12  1  0  0  0  0
 11  4  1  0  0  0  0
 12 13  1  0  0  0  0
 13 17  1  0  0  0  0
 14 15  1  0  0  0  0
 14 13  2  0  0  0  0
 15 16  2  0  0  0  0
 16 17  1  0  0  0  0
 16 18  1  0  0  0  0
 18 19  1  0  0  0  0
 19 20  1  0  0  0  0
M  END
>  <MODEL>
1

>  <REMARK>
 VINA RESULT:      -5.7      0.000      0.000
  Name = ZINC20843205
                            x       y       z     vdW  Elec       q    Type
                         _______ _______ _______ _____ _____    ______ ____

>  <TORSDO>
F 7

>  <vina_score>
-5.7

$$$$
ZINC20313019
 OpenBabel01081722223D

 19 19  0  0  0  0  0  0  0  0999 V2000
  -28.7990   14.6640  -19.9330 C   0  0  0  0  0  0  0  0  0  0  0  0
  -28.0700   14.2810  -21.0000 N   0  0  0  0  0  0  0  0  0  0  0  0
  -28.5200   13.9770  -21.8200 H   0  0  0  0  0  0  0  0  0  0  0  0
  -28.2470   15.1280  -18.9540 O   0  0  0  0  0  0  0  0  0  0  0  0
  -30.8560   16.9570  -20.1470 C   0  0  0  0  0  0  0  0  0  0  0  0
  -31.1810   15.5320  -20.0470 N   0  0  0  0  0  0  0  0  0  0  0  0
  -30.2650   14.5220  -19.9530 C   0  0  0  0  0  0  0  0  0  0  0  0
  -30.9730   13.3520  -19.8800 C   0  0  0  0  0  0  0  0  0  0  0  0
  -32.3300   13.7300  -19.9360 C   0  0  0  0  0  0  0  0  0  0  0  0
  -32.3700   15.0450  -20.0410 N   0  0  0  0  0  0  0  0  0  0  0  0
  -33.4930   12.8210  -19.8930 C   0  0  0  0  0  0  0  0  0  0  0  0
  -34.0220   12.3500  -21.0380 O   0  0  0  0  0  0  0  0  0  0  0  0
  -33.9730   12.5000  -18.8240 O   0  0  0  0  0  0  0  0  0  0  0  0
  -26.6070   14.3170  -20.9380 C   0  0  0  0  0  0  0  0  0  0  0  0
  -26.0840   12.9730  -20.4280 C   0  0  0  0  0  0  0  0  0  0  0  0
  -25.7960   13.0720  -18.9910 N   0  0  0  0  0  0  0  0  0  0  0  0
  -24.9490   13.6260  -18.8520 H   0  0  0  0  0  0  0  0  0  0  0  0
  -26.5780   13.5230  -18.5180 H   0  0  0  0  0  0  0  0  0  0  0  0
  -25.6570   12.1380  -18.6070 H   0  0  0  0  0  0  0  0  0  0  0  0
  1  4  2  0  0  0  0
  2 14  1  0  0  0  0
  2  1  1  0  0  0  0
  3  2  1  0  0  0  0
  5  6  1  0  0  0  0
  6 10  1  0  0  0  0
  6  7  1  0  0  0  0
  7  1  1  0  0  0  0
  7  8  2  0  0  0  0
  9 11  1  0  0  0  0
  9  8  1  0  0  0  0
 10  9  2  0  0  0  0
 11 13  1  0  0  0  0
 12 11  2  0  0  0  0
 14 15  1  0  0  0  0
 15 16  1  0  0  0  0
 16 17  1  0  0  0  0
 16 19  1  0  0  0  0
 16 18  1  0  0  0  0
M  END
>  <MODEL>
1

>  <REMARK>
 VINA RESULT:      -5.7      0.000      0.000
  Name = ZINC20313019
                            x       y       z     vdW  Elec       q    Type
                         _______ _______ _______ _____ _____    ______ ____

>  <TORSDO>
F 5

>  <vina_score>
-5.7

$$$$
ZINC32067408
 OpenBabel01081722263D

 30 32  0  0  1  0  0  0  0  0999 V2000
  -31.1180   13.2540  -17.3650 C   0  0  0  0  0  0  0  0  0  0  0  0
  -32.3520   12.6680  -17.4040 C   0  0  0  0  0  0  0  0  0  0  0  0
  -32.5720   12.2780  -18.8020 C   0  0  0  0  0  0  0  0  0  0  0  0
  -33.6590   11.6250  -19.5340 C   0  0  0  0  0  0  0  0  0  0  0  0
  -33.4770   11.4300  -20.8920 N   0  0  0  0  0  0  0  0  0  0  0  0
  -32.3230   11.8420  -21.4790 C   0  0  0  0  0  0  0  0  0  0  0  0
  -31.3620   12.4220  -20.8250 N   0  0  0  0  0  0  0  0  0  0  0  0
  -34.7570   11.2400  -18.9290 N   0  0  0  0  0  0  0  0  0  0  0  0
  -34.8640   11.3890  -17.9600 H   0  0  0  0  0  0  0  0  0  0  0  0
  -31.4300   12.6630  -19.5030 C   0  0  2  0  0  0  0  0  0  0  0  0
  -30.5740   13.2430  -18.6080 N   0  0  0  0  0  0  0  0  0  0  0  0
  -33.2750   12.4730  -16.2760 C   0  0  0  0  0  0  0  0  0  0  0  0
  -33.7030   11.2340  -15.9620 N   0  0  0  0  0  0  0  0  0  0  0  0
  -34.3230   11.1040  -15.2080 H   0  0  0  0  0  0  0  0  0  0  0  0
  -33.3940   10.4590  -16.4850 H   0  0  0  0  0  0  0  0  0  0  0  0
  -33.6560   13.4300  -15.6300 O   0  0  0  0  0  0  0  0  0  0  0  0
  -29.2550   13.7840  -18.9450 C   0  0  1  0  0  0  0  0  0  0  0  0
  -28.2030   12.6480  -19.0230 C   0  0  1  0  0  0  0  0  0  0  0  0
  -27.1350   13.2610  -19.9620 C   0  0  1  0  0  0  0  0  0  0  0  0
  -27.8900   14.3690  -20.7220 C   0  0  2  0  0  0  0  0  0  0  0  0
  -29.2580   14.3380  -20.2780 O   0  0  0  0  0  0  0  0  0  0  0  0
  -27.6510   12.3740  -17.7340 O   0  0  0  0  0  0  0  0  0  0  0  0
  -26.6840   12.4140  -17.7820 H   0  0  0  0  0  0  0  0  0  0  0  0
  -26.0610   13.8180  -19.2020 O   0  0  0  0  0  0  0  0  0  0  0  0
  -25.5810   13.1060  -18.7510 H   0  0  0  0  0  0  0  0  0  0  0  0
  -27.8220   14.1070  -22.2270 C   0  0  0  0  0  0  0  0  0  0  0  0
  -28.6190   12.9640  -22.5480 O   0  0  0  0  0  0  0  0  0  0  0  0
  -28.5880   12.3310  -21.8130 H   0  0  0  0  0  0  0  0  0  0  0  0
  -34.4860   10.8040  -21.6640 O   0  0  0  0  0  0  0  0  0  0  0  0
  -34.7530   11.1820  -22.4800 H   0  0  0  0  0  0  0  0  0  0  0  0
  2  1  2  0  0  0  0
  2 12  1  0  0  0  0
  3  2  1  0  0  0  0
  4  8  1  0  0  0  0
  4  3  2  0  0  0  0
  5  4  1  0  0  0  0
  6  5  1  0  0  0  0
  6  7  2  0  0  0  0
  8  9  1  0  0  0  0
 10  7  1  1  0  0  0
 10  3  1  0  0  0  0
 10 11  1  0  0  0  0
 11  1  1  0  0  0  0
 12 13  1  0  0  0  0
 12 16  2  0  0  0  0
 13 14  1  0  0  0  0
 15 13  1  0  0  0  0
 17 11  1  6  0  0  0
 18 17  1  0  0  0  0
 18 22  1  1  0  0  0
 19 24  1  1  0  0  0
 19 18  1  0  0  0  0
 20 26  1  6  0  0  0
 20 21  1  0  0  0  0
 20 19  1  0  0  0  0
 21 17  1  0  0  0  0
 23 22  1  0  0  0  0
 24 25  1  0  0  0  0
 27 26  1  0  0  0  0
 27 28  1  0  0  0  0
 29  5  1  0  0  0  0
 30 29  1  0  0  0  0
M  END
>  <MODEL>
1

>  <REMARK>
 VINA RESULT:      -5.7      0.000      0.000
  Name = ZINC32067408
                            x       y       z     vdW  Elec       q    Type
                         _______ _______ _______ _____ _____    ______ ____

>  <TORSDO>
F 7

>  <vina_score>
-5.7

$$$$
ZINC04972884
 OpenBabel01081722273D

 23 23  0  0  1  0  0  0  0  0999 V2000
  -31.3290   13.4890  -18.4280 C   0  0  1  0  0  0  0  0  0  0  0  0
  -29.9130   13.9700  -18.0550 C   0  0  0  0  0  0  0  0  0  0  0  0
  -29.1480   13.9840  -19.3090 N   0  0  0  0  0  0  0  0  0  0  0  0
  -27.9920   14.6450  -19.5170 C   0  0  0  0  0  0  0  0  0  0  0  0
  -27.4970   15.3000  -18.6210 O   0  0  0  0  0  0  0  0  0  0  0  0
  -29.8500   13.1580  -20.2990 C   0  0  0  0  0  0  0  0  0  0  0  0
  -31.1050   12.6140  -19.6500 C   0  0  0  0  0  0  0  0  0  0  0  0
  -31.8220   11.6300  -20.0460 N   0  0  0  0  0  0  0  0  0  0  0  0
  -33.0350   11.3470  -19.4050 N   0  0  0  0  0  0  0  0  0  0  0  0
  -33.0420   10.8200  -18.5730 H   0  0  0  0  0  0  0  0  0  0  0  0
  -34.1940   11.7960  -19.9270 C   0  0  0  0  0  0  0  0  0  0  0  0
  -34.1780   12.6020  -21.0080 N   0  0  0  0  0  0  0  0  0  0  0  0
  -35.0250   12.9290  -21.3900 H   0  0  0  0  0  0  0  0  0  0  0  0
  -33.3210   12.8620  -21.4150 H   0  0  0  0  0  0  0  0  0  0  0  0
  -35.2530   11.4740  -19.4240 O   0  0  0  0  0  0  0  0  0  0  0  0
  -31.9270   12.6830  -17.3030 C   0  0  0  0  0  0  0  0  0  0  0  0
  -31.3330   11.7280  -16.8620 O   0  0  0  0  0  0  0  0  0  0  0  0
  -33.1200   13.0260  -16.7930 O   0  0  0  0  0  0  0  0  0  0  0  0
  -34.6130   12.7550  -14.8880 C   0  0  0  0  0  0  0  0  0  0  0  0
  -33.7890   12.0420  -15.9620 C   0  0  0  0  0  0  0  0  0  0  0  0
  -27.3850   14.5790  -20.7170 O   0  0  0  0  0  0  0  0  0  0  0  0
  -25.9710   14.2480  -20.7230 C   0  0  0  0  0  0  0  0  0  0  0  0
  -25.7910   12.7750  -20.3460 C   0  0  0  0  0  0  0  0  0  0  0  0
  1  2  1  0  0  0  0
  1 16  1  1  0  0  0
  3  2  1  0  0  0  0
  4  3  1  0  0  0  0
  4  5  2  0  0  0  0
  6  7  1  0  0  0  0
  6  3  1  0  0  0  0
  7  1  1  0  0  0  0
  8  7  2  0  0  0  0
  8  9  1  0  0  0  0
  9 10  1  0  0  0  0
 11 15  2  0  0  0  0
 11  9  1  0  0  0  0
 12 11  1  0  0  0  0
 13 12  1  0  0  0  0
 14 12  1  0  0  0  0
 16 17  2  0  0  0  0
 16 18  1  0  0  0  0
 18 20  1  0  0  0  0
 20 19  1  0  0  0  0
 21  4  1  0  0  0  0
 22 21  1  0  0  0  0
 22 23  1  0  0  0  0
M  END
>  <MODEL>
1

>  <REMARK>
 VINA RESULT:      -5.7      0.000      0.000
  Name = ZINC04972884
                            x       y       z     vdW  Elec       q    Type
                         _______ _______ _______ _____ _____    ______ ____

>  <TORSDO>
F 6

>  <vina_score>
-5.7

$$$$
ZINC11804938
 OpenBabel01081722023D

 21 21  0  0  0  0  0  0  0  0999 V2000
  -30.7270   11.5090  -19.2650 S   0  0  0  0  0  0  0  0  0  0  0  0
  -30.3790   10.8040  -18.0820 O   0  0  0  0  0  0  0  0  0  0  0  0
  -31.1580   10.8480  -20.4470 O   0  0  0  0  0  0  0  0  0  0  0  0
  -29.3180   12.4690  -19.7120 C   0  0  0  0  0  0  0  0  0  0  0  0
  -28.6750   13.2360  -18.7570 C   0  0  0  0  0  0  0  0  0  0  0  0
  -27.5700   13.9890  -19.1030 C   0  0  0  0  0  0  0  0  0  0  0  0
  -27.1060   13.9770  -20.4120 C   0  0  0  0  0  0  0  0  0  0  0  0
  -27.7540   13.2050  -21.3680 C   0  0  0  0  0  0  0  0  0  0  0  0
  -28.8580   12.4540  -21.0160 C   0  0  0  0  0  0  0  0  0  0  0  0
  -25.9890   14.7380  -20.7650 N   0  0  0  0  0  0  0  0  0  0  0  0
  -25.2250   14.8050  -20.1470 H   0  0  0  0  0  0  0  0  0  0  0  0
  -25.9660   15.2070  -21.6310 H   0  0  0  0  0  0  0  0  0  0  0  0
  -31.9300   12.5680  -18.8510 N   0  0  0  0  0  0  0  0  0  0  0  0
  -32.8720   13.0420  -19.8670 C   0  0  0  0  0  0  0  0  0  0  0  0
  -32.1570   14.0070  -20.8140 C   0  0  0  0  0  0  0  0  0  0  0  0
  -32.2100   16.3370  -20.2540 C   0  0  0  0  0  0  0  0  0  0  0  0
  -31.5740   15.0710  -20.0610 O   0  0  0  0  0  0  0  0  0  0  0  0
  -32.0510   13.0310  -17.4660 C   0  0  0  0  0  0  0  0  0  0  0  0
  -33.3100   12.4330  -16.8360 C   0  0  0  0  0  0  0  0  0  0  0  0
  -33.8540   13.3560  -15.8910 O   0  0  0  0  0  0  0  0  0  0  0  0
  -34.6110   12.7400  -14.8460 C   0  0  0  0  0  0  0  0  0  0  0  0
  1 13  1  0  0  0  0
  1  2  2  0  0  0  0
  3  1  2  0  0  0  0
  4  1  1  0  0  0  0
  4  5  2  0  0  0  0
  6  5  1  0  0  0  0
  7  6  2  0  0  0  0
  8  9  2  0  0  0  0
  8  7  1  0  0  0  0
  9  4  1  0  0  0  0
 10  7  1  0  0  0  0
 10 11  1  0  0  0  0
 12 10  1  0  0  0  0
 13 18  1  0  0  0  0
 14 13  1  0  0  0  0
 15 17  1  0  0  0  0
 15 14  1  0  0  0  0
 16 17  1  0  0  0  0
 18 19  1  0  0  0  0
 19 20  1  0  0  0  0
 20 21  1  0  0  0  0
M  END
>  <MODEL>
1

>  <REMARK>
 VINA RESULT:      -5.7      0.000      0.000
  Name = ZINC11804938
                            x       y       z     vdW  Elec       q    Type
                         _______ _______ _______ _____ _____    ______ ____

>  <TORSDO>
F 9

>  <vina_score>
-5.7

$$$$
ZINC04039469
 OpenBabel01081722063D

 24 25  0  0  1  0  0  0  0  0999 V2000
  -32.3530   12.1290  -18.0540 C   0  0  0  0  0  0  0  0  0  0  0  0
  -32.8840   11.7810  -19.2560 C   0  0  0  0  0  0  0  0  0  0  0  0
  -32.3060   12.2680  -20.4450 C   0  0  0  0  0  0  0  0  0  0  0  0
  -31.2410   13.0850  -20.4300 O   0  0  0  0  0  0  0  0  0  0  0  0
  -30.6730   13.4790  -19.2700 C   0  0  0  0  0  0  0  0  0  0  0  0
  -29.5730   14.3230  -19.2710 C   0  0  0  0  0  0  0  0  0  0  0  0
  -29.0080   14.7200  -18.0690 C   0  0  0  0  0  0  0  0  0  0  0  0
  -27.9340   15.5500  -18.0710 O   0  0  0  0  0  0  0  0  0  0  0  0
  -29.5330   14.2720  -16.8580 C   0  0  0  0  0  0  0  0  0  0  0  0
  -30.6120   13.4360  -16.8400 C   0  0  0  0  0  0  0  0  0  0  0  0
  -32.7850   11.9380  -21.5160 O   0  0  0  0  0  0  0  0  0  0  0  0
  -31.1950   13.0260  -18.0440 C   0  0  0  0  0  0  0  0  0  0  0  0
  -32.9510   11.6230  -16.7680 C   0  0  0  0  0  0  0  0  0  0  0  0
  -34.5200   12.1600  -14.8990 C   0  0  0  0  0  0  0  0  0  0  0  0
  -33.8570   12.6990  -16.1680 C   0  0  0  0  0  0  0  0  0  0  0  0
  -28.9960   14.8120  -20.5740 C   0  0  0  0  0  0  0  0  0  0  0  0
  -27.5270   14.8740  -20.4610 N   0  0  0  0  0  0  0  0  0  0  0  0
  -27.2020   15.7600  -20.8480 H   0  0  0  0  0  0  0  0  0  0  0  0
  -27.2620   14.8020  -19.4790 H   0  0  0  0  0  0  0  0  0  0  0  0
  -26.9080   13.7670  -21.2150 C   0  0  2  0  0  0  0  0  0  0  0  0
  -28.0020   12.9040  -21.8450 C   0  0  0  0  0  0  0  0  0  0  0  0
  -26.0850   12.9260  -20.2730 C   0  0  0  0  0  0  0  0  0  0  0  0
  -26.3190   12.9730  -18.9520 O   0  0  0  0  0  0  0  0  0  0  0  0
  -25.2130   12.2110  -20.7080 O   0  0  0  0  0  0  0  0  0  0  0  0
  1 12  1  0  0  0  0
  1 13  1  0  0  0  0
  2  1  2  0  0  0  0
  3  4  1  0  0  0  0
  3  2  1  0  0  0  0
  4  5  1  0  0  0  0
  5 12  1  0  0  0  0
  6  5  2  0  0  0  0
  6  7  1  0  0  0  0
  7  9  2  0  0  0  0
  8  7  1  0  0  0  0
  9 10  1  0  0  0  0
 11  3  2  0  0  0  0
 12 10  2  0  0  0  0
 13 15  1  0  0  0  0
 15 14  1  0  0  0  0
 16 17  1  0  0  0  0
 16  6  1  0  0  0  0
 17 19  1  0  0  0  0
 18 17  1  0  0  0  0
 20 21  1  1  0  0  0
 20 17  1  0  0  0  0
 20 22  1  0  0  0  0
 22 23  1  0  0  0  0
 24 22  2  0  0  0  0
M  END
>  <MODEL>
1

>  <REMARK>
 VINA RESULT:      -5.7      0.000      0.000
  Name = ZINC04039469
                            x       y       z     vdW  Elec       q    Type
                         _______ _______ _______ _____ _____    ______ ____

>  <TORSDO>
F 6

>  <vina_score>
-5.7

$$$$
ZINC18086138
 OpenBabel01081722113D

 25 26  0  0  0  0  0  0  0  0999 V2000
  -32.6990   12.7290  -19.0880 C   0  0  0  0  0  0  0  0  0  0  0  0
  -32.5570   11.5840  -19.6820 N   0  0  0  0  0  0  0  0  0  0  0  0
  -30.2120   16.8070  -20.3260 C   0  0  0  0  0  0  0  0  0  0  0  0
  -30.3400   15.5880  -19.5260 N   0  0  0  0  0  0  0  0  0  0  0  0
  -31.4300   14.7840  -19.7000 C   0  0  0  0  0  0  0  0  0  0  0  0
  -32.3790   15.1060  -20.6000 O   0  0  0  0  0  0  0  0  0  0  0  0
  -31.5470   13.6230  -18.9340 C   0  0  0  0  0  0  0  0  0  0  0  0
  -30.4790   13.3220  -17.9750 C   0  0  0  0  0  0  0  0  0  0  0  0
  -29.4430   14.1790  -17.8700 N   0  0  0  0  0  0  0  0  0  0  0  0
  -28.3660   13.9000  -16.9150 C   0  0  0  0  0  0  0  0  0  0  0  0
  -30.5280   12.3200  -17.2860 O   0  0  0  0  0  0  0  0  0  0  0  0
  -29.3840   15.2830  -18.6340 C   0  0  0  0  0  0  0  0  0  0  0  0
  -28.4330   16.0300  -18.5140 O   0  0  0  0  0  0  0  0  0  0  0  0
  -31.2320   11.1530  -20.1360 C   0  0  0  0  0  0  0  0  0  0  0  0
  -31.2160   11.0770  -21.6630 C   0  0  0  0  0  0  0  0  0  0  0  0
  -29.7960   11.3340  -22.1720 C   0  0  0  0  0  0  0  0  0  0  0  0
  -29.5110   12.7800  -22.1010 N   0  0  0  0  0  0  0  0  0  0  0  0
  -29.7040   13.2010  -23.0110 H   0  0  0  0  0  0  0  0  0  0  0  0
  -30.1030   13.2050  -21.3870 H   0  0  0  0  0  0  0  0  0  0  0  0
  -28.0940   13.0060  -21.7590 C   0  0  0  0  0  0  0  0  0  0  0  0
  -27.8370   12.5490  -20.3200 C   0  0  0  0  0  0  0  0  0  0  0  0
  -26.3710   12.7930  -19.9630 C   0  0  0  0  0  0  0  0  0  0  0  0
  -26.0550   14.2850  -20.0870 C   0  0  0  0  0  0  0  0  0  0  0  0
  -26.3120   14.7420  -21.5250 C   0  0  0  0  0  0  0  0  0  0  0  0
  -27.7800   14.4980  -21.8830 C   0  0  0  0  0  0  0  0  0  0  0  0
  1  7  1  0  0  0  0
  2  1  2  0  0  0  0
  3  4  1  0  0  0  0
  4 12  1  0  0  0  0
  5  4  1  0  0  0  0
  5  7  1  0  0  0  0
  6  5  2  0  0  0  0
  7  8  1  0  0  0  0
  8  9  1  0  0  0  0
  8 11  2  0  0  0  0
  9 10  1  0  0  0  0
 12 13  2  0  0  0  0
 12  9  1  0  0  0  0
 14  2  1  0  0  0  0
 15 14  1  0  0  0  0
 16 17  1  0  0  0  0
 16 15  1  0  0  0  0
 17 20  1  0  0  0  0
 17 19  1  0  0  0  0
 18 17  1  0  0  0  0
 20 21  1  0  0  0  0
 21 22  1  0  0  0  0
 23 22  1  0  0  0  0
 24 23  1  0  0  0  0
 25 20  1  0  0  0  0
 25 24  1  0  0  0  0
M  END
>  <MODEL>
1

>  <REMARK>
 VINA RESULT:      -5.7      0.000      0.000
  Name = ZINC18086138
                            x       y       z     vdW  Elec       q    Type
                         _______ _______ _______ _____ _____    ______ ____

>  <TORSDO>
F 6

>  <vina_score>
-5.7

$$$$
ZINC19483528
 OpenBabel01081722023D

 21 21  0  0  1  0  0  0  0  0999 V2000
  -29.6970   11.6640  -21.5730 C   0  0  0  0  0  0  0  0  0  0  0  0
  -32.5270   12.8750  -18.6060 C   0  0  0  0  0  0  0  0  0  0  0  0
  -31.9370   11.6240  -18.5340 C   0  0  0  0  0  0  0  0  0  0  0  0
  -31.0250   11.2340  -19.4980 C   0  0  0  0  0  0  0  0  0  0  0  0
  -30.6950   12.0920  -20.5290 C   0  0  0  0  0  0  0  0  0  0  0  0
  -31.2820   13.3410  -20.6070 C   0  0  0  0  0  0  0  0  0  0  0  0
  -32.1990   13.7380  -19.6470 C   0  0  0  0  0  0  0  0  0  0  0  0
  -33.1960   12.8100  -16.3240 C   0  0  0  0  0  0  0  0  0  0  0  0
  -33.4280   13.2590  -17.6610 O   0  0  0  0  0  0  0  0  0  0  0  0
  -32.7770   14.9660  -19.7230 O   0  0  0  0  0  0  0  0  0  0  0  0
  -31.9780   16.0270  -20.2520 C   0  0  0  0  0  0  0  0  0  0  0  0
  -28.3230   12.8480  -21.6200 S   0  0  0  0  0  0  0  0  0  0  0  0
  -27.7590   12.9350  -19.8990 C   0  0  0  0  0  0  0  0  0  0  0  0
  -28.0690   14.3200  -19.3300 C   0  0  2  0  0  0  0  0  0  0  0  0
  -26.8700   15.1640  -19.4130 N   0  0  0  0  0  0  0  0  0  0  0  0
  -26.7170   15.4420  -20.3830 H   0  0  0  0  0  0  0  0  0  0  0  0
  -26.9990   15.9960  -18.8380 H   0  0  0  0  0  0  0  0  0  0  0  0
  -26.0620   14.6400  -19.0780 H   0  0  0  0  0  0  0  0  0  0  0  0
  -28.4920   14.1880  -17.8890 C   0  0  0  0  0  0  0  0  0  0  0  0
  -28.9130   13.0040  -17.4180 O   0  0  0  0  0  0  0  0  0  0  0  0
  -28.4500   15.1500  -17.1580 O   0  0  0  0  0  0  0  0  0  0  0  0
  1  5  1  0  0  0  0
  2  3  1  0  0  0  0
  2  9  1  0  0  0  0
  4  3  2  0  0  0  0
  5  4  1  0  0  0  0
  6  5  2  0  0  0  0
  6  7  1  0  0  0  0
  7  2  2  0  0  0  0
  9  8  1  0  0  0  0
 10  7  1  0  0  0  0
 11 10  1  0  0  0  0
 12  1  1  0  0  0  0
 12 13  1  0  0  0  0
 14 13  1  1  0  0  0
 14 19  1  0  0  0  0
 15 14  1  0  0  0  0
 15 18  1  0  0  0  0
 15 17  1  0  0  0  0
 16 15  1  0  0  0  0
 19 20  2  0  0  0  0
 19 21  1  0  0  0  0
M  END
>  <MODEL>
1

>  <REMARK>
 VINA RESULT:      -5.6      0.000      0.000
  Name = ZINC19483528
                            x       y       z     vdW  Elec       q    Type
                         _______ _______ _______ _____ _____    ______ ____

>  <TORSDO>
F 8

>  <vina_score>
-5.6

$$$$
ZINC04992018
 OpenBabel01081722143D

 22 23  0  0  0  0  0  0  0  0999 V2000
  -29.4240   12.5040  -19.5320 C   0  0  0  0  0  0  0  0  0  0  0  0
  -29.4280   12.2060  -20.7960 N   0  0  0  0  0  0  0  0  0  0  0  0
  -33.0930   12.9360  -17.4340 C   0  0  0  0  0  0  0  0  0  0  0  0
  -31.8880   13.0760  -16.7600 C   0  0  0  0  0  0  0  0  0  0  0  0
  -30.6950   12.9320  -17.4370 C   0  0  0  0  0  0  0  0  0  0  0  0
  -30.6980   12.6540  -18.8060 C   0  0  0  0  0  0  0  0  0  0  0  0
  -31.9110   12.5120  -19.4840 C   0  0  0  0  0  0  0  0  0  0  0  0
  -33.1030   12.6530  -18.7980 C   0  0  0  0  0  0  0  0  0  0  0  0
  -34.2680   12.7140  -15.3790 C   0  0  0  0  0  0  0  0  0  0  0  0
  -34.2660   13.0740  -16.7610 O   0  0  0  0  0  0  0  0  0  0  0  0
  -34.2860   12.5160  -19.4560 O   0  0  0  0  0  0  0  0  0  0  0  0
  -34.2290   12.0310  -20.7980 C   0  0  0  0  0  0  0  0  0  0  0  0
  -28.2170   12.0640  -21.4860 N   0  0  0  0  0  0  0  0  0  0  0  0
  -28.1380   11.4030  -22.2110 H   0  0  0  0  0  0  0  0  0  0  0  0
  -27.1300   12.8530  -21.1460 C   0  0  0  0  0  0  0  0  0  0  0  0
  -26.0000   12.4420  -20.6200 N   0  0  0  0  0  0  0  0  0  0  0  0
  -25.2130   13.4410  -20.4400 N   0  0  0  0  0  0  0  0  0  0  0  0
  -25.7920   14.5420  -20.8290 C   0  0  0  0  0  0  0  0  0  0  0  0
  -27.0320   14.2070  -21.2970 N   0  0  0  0  0  0  0  0  0  0  0  0
  -27.9770   15.0500  -21.8080 N   0  0  0  0  0  0  0  0  0  0  0  0
  -27.7010   15.8710  -22.2790 H   0  0  0  0  0  0  0  0  0  0  0  0
  -28.9330   14.8390  -21.7050 H   0  0  0  0  0  0  0  0  0  0  0  0
  1  6  1  0  0  0  0
  2  1  2  0  0  0  0
  3 10  1  0  0  0  0
  3  4  1  0  0  0  0
  5  4  2  0  0  0  0
  6  5  1  0  0  0  0
  7  6  2  0  0  0  0
  7  8  1  0  0  0  0
  8  3  2  0  0  0  0
 10  9  1  0  0  0  0
 11  8  1  0  0  0  0
 12 11  1  0  0  0  0
 13 15  1  0  0  0  0
 13  2  1  0  0  0  0
 14 13  1  0  0  0  0
 15 16  2  0  0  0  0
 16 17  1  0  0  0  0
 18 17  2  0  0  0  0
 19 15  1  0  0  0  0
 19 18  1  0  0  0  0
 20 22  1  0  0  0  0
 20 19  1  0  0  0  0
 21 20  1  0  0  0  0
M  END
>  <MODEL>
1

>  <REMARK>
 VINA RESULT:      -5.6      0.000      0.000
  Name = ZINC04992018
                            x       y       z     vdW  Elec       q    Type
                         _______ _______ _______ _____ _____    ______ ____

>  <TORSDO>
F 6

>  <vina_score>
-5.6

$$$$
ZINC31820560
 OpenBabel01081722163D

 20 20  0  0  1  0  0  0  0  0999 V2000
  -29.8260   12.8950  -21.0180 C   0  0  0  0  0  0  0  0  0  0  0  0
  -30.0180   14.0930  -20.4840 N   0  0  0  0  0  0  0  0  0  0  0  0
  -30.9310   14.4520  -20.4090 H   0  0  0  0  0  0  0  0  0  0  0  0
  -28.9890   14.8180  -20.0480 C   0  0  1  0  0  0  0  0  0  0  0  0
  -27.7000   14.3070  -20.1690 C   0  0  0  0  0  0  0  0  0  0  0  0
  -27.5380   13.0470  -20.7410 C   0  0  0  0  0  0  0  0  0  0  0  0
  -28.6140   12.3780  -21.1500 N   0  0  0  0  0  0  0  0  0  0  0  0
  -29.1990   16.0670  -19.4860 N   0  0  0  0  0  0  0  0  0  0  0  0
  -28.6240   16.3790  -18.7500 H   0  0  0  0  0  0  0  0  0  0  0  0
  -29.9250   16.6430  -19.8210 H   0  0  0  0  0  0  0  0  0  0  0  0
  -26.2740   12.4990  -20.8820 N   0  0  0  0  0  0  0  0  0  0  0  0
  -26.0080   11.7260  -20.3310 H   0  0  0  0  0  0  0  0  0  0  0  0
  -25.6400   12.8800  -21.5320 H   0  0  0  0  0  0  0  0  0  0  0  0
  -31.2180   11.9710  -21.5740 S   0  0  0  0  0  0  0  0  0  0  0  0
  -32.5310   13.1890  -21.3070 C   0  0  0  0  0  0  0  0  0  0  0  0
  -33.6000   12.5900  -20.4290 C   0  0  0  0  0  0  0  0  0  0  0  0
  -34.5050   11.9530  -20.9250 O   0  0  0  0  0  0  0  0  0  0  0  0
  -33.5540   12.7680  -19.0950 N   0  0  0  0  0  0  0  0  0  0  0  0
  -31.7490   12.9200  -17.5410 C   0  0  0  0  0  0  0  0  0  0  0  0
  -32.5470   13.5840  -18.5240 O   0  0  0  0  0  0  0  0  0  0  0  0
  1  2  1  0  0  0  0
  2  3  1  0  0  0  0
  2  4  1  0  0  0  0
  4  8  1  6  0  0  0
  5  4  1  0  0  0  0
  6  5  2  0  0  0  0
  7  1  2  0  0  0  0
  7  6  1  0  0  0  0
  8  9  1  0  0  0  0
 10  8  1  0  0  0  0
 11  6  1  0  0  0  0
 11 12  1  0  0  0  0
 13 11  1  0  0  0  0
 14 15  1  0  0  0  0
 14  1  1  0  0  0  0
 15 16  1  0  0  0  0
 16 18  1  0  0  0  0
 17 16  2  0  0  0  0
 18 20  1  0  0  0  0
 20 19  1  0  0  0  0
M  END
>  <MODEL>
1

>  <REMARK>
 VINA RESULT:      -5.6      0.000      0.000
  Name = ZINC31820560
                            x       y       z     vdW  Elec       q    Type
                         _______ _______ _______ _____ _____    ______ ____

>  <TORSDO>
F 7

>  <vina_score>
-5.6

$$$$
ZINC20306534
 OpenBabel01081722033D

 21 21  0  0  1  0  0  0  0  0999 V2000
  -31.2440   12.8850  -16.9350 C   0  0  0  0  0  0  0  0  0  0  0  0
  -28.5580   13.4980  -20.2060 C   0  0  0  0  0  0  0  0  0  0  0  0
  -29.0270   12.2150  -19.9150 C   0  0  0  0  0  0  0  0  0  0  0  0
  -29.8930   12.0250  -18.8580 C   0  0  0  0  0  0  0  0  0  0  0  0
  -30.2970   13.1010  -18.0880 C   0  0  0  0  0  0  0  0  0  0  0  0
  -29.8410   14.3750  -18.3750 C   0  0  0  0  0  0  0  0  0  0  0  0
  -28.9700   14.5790  -19.4250 C   0  0  0  0  0  0  0  0  0  0  0  0
  -27.6310   13.7090  -21.3360 C   0  0  0  0  0  0  0  0  0  0  0  0
  -28.0340   13.6220  -22.4790 O   0  0  0  0  0  0  0  0  0  0  0  0
  -25.5770   13.0360  -20.3200 C   0  0  0  0  0  0  0  0  0  0  0  0
  -26.3360   13.9980  -21.1000 O   0  0  0  0  0  0  0  0  0  0  0  0
  -32.7480   12.0680  -17.5330 S   0  0  0  0  0  0  0  0  0  0  0  0
  -33.3850   13.1950  -18.8040 C   0  0  0  0  0  0  0  0  0  0  0  0
  -33.2900   12.5230  -20.1760 C   0  0  1  0  0  0  0  0  0  0  0  0
  -34.6380   12.3730  -20.7420 N   0  0  0  0  0  0  0  0  0  0  0  0
  -35.3260   12.7300  -20.0790 H   0  0  0  0  0  0  0  0  0  0  0  0
  -34.7020   12.8980  -21.6140 H   0  0  0  0  0  0  0  0  0  0  0  0
  -34.8220   11.3860  -20.9250 H   0  0  0  0  0  0  0  0  0  0  0  0
  -32.4520   13.3730  -21.0960 C   0  0  0  0  0  0  0  0  0  0  0  0
  -31.8430   12.8160  -22.1540 O   0  0  0  0  0  0  0  0  0  0  0  0
  -32.3230   14.5540  -20.8760 O   0  0  0  0  0  0  0  0  0  0  0  0
  2  3  2  0  0  0  0
  2  7  1  0  0  0  0
  3  4  1  0  0  0  0
  4  5  2  0  0  0  0
  5  1  1  0  0  0  0
  6  5  1  0  0  0  0
  7  6  2  0  0  0  0
  8 11  1  0  0  0  0
  8  2  1  0  0  0  0
  9  8  2  0  0  0  0
 11 10  1  0  0  0  0
 12  1  1  0  0  0  0
 13 12  1  0  0  0  0
 14 19  1  6  0  0  0
 14 13  1  0  0  0  0
 15 14  1  0  0  0  0
 15 16  1  0  0  0  0
 17 15  1  0  0  0  0
 18 15  1  0  0  0  0
 19 21  1  0  0  0  0
 20 19  2  0  0  0  0
M  END
>  <MODEL>
1

>  <REMARK>
 VINA RESULT:      -5.6      0.000      0.000
  Name = ZINC20306534
                            x       y       z     vdW  Elec       q    Type
                         _______ _______ _______ _____ _____    ______ ____

>  <TORSDO>
F 8

>  <vina_score>
-5.6

$$$$
ZINC19366398
 OpenBabel01081722213D

 28 28  0  0  0  0  0  0  0  0999 V2000
  -29.8580   11.9200  -20.8700 C   0  0  0  0  0  0  0  0  0  0  0  0
  -31.6420   12.1890  -21.0600 S   0  0  0  0  0  0  0  0  0  0  0  0
  -31.9040   13.5560  -21.3450 O   0  0  0  0  0  0  0  0  0  0  0  0
  -32.2090   11.1600  -21.8610 O   0  0  0  0  0  0  0  0  0  0  0  0
  -32.3130   11.9270  -19.4520 C   0  0  0  0  0  0  0  0  0  0  0  0
  -31.8110   12.6310  -18.3730 C   0  0  0  0  0  0  0  0  0  0  0  0
  -32.3340   12.4280  -17.1110 C   0  0  0  0  0  0  0  0  0  0  0  0
  -33.3660   11.5170  -16.9270 C   0  0  0  0  0  0  0  0  0  0  0  0
  -33.8640   10.8080  -18.0120 C   0  0  0  0  0  0  0  0  0  0  0  0
  -33.3400   11.0190  -19.2730 C   0  0  0  0  0  0  0  0  0  0  0  0
  -33.8990   11.3090  -15.6500 N   0  0  0  0  0  0  0  0  0  0  0  0
  -33.6870   10.4850  -15.1560 H   0  0  0  0  0  0  0  0  0  0  0  0
  -34.7030   12.2390  -15.0960 C   0  0  0  0  0  0  0  0  0  0  0  0
  -35.3510   11.9760  -13.7610 C   0  0  0  0  0  0  0  0  0  0  0  0
  -34.9010   13.2890  -15.6690 O   0  0  0  0  0  0  0  0  0  0  0  0
  -29.2520   11.5420  -22.2230 C   0  0  0  0  0  0  0  0  0  0  0  0
  -28.1330   12.5250  -22.5740 C   0  0  0  0  0  0  0  0  0  0  0  0
  -27.1720   12.5890  -21.4640 N   0  0  0  0  0  0  0  0  0  0  0  0
  -26.3060   12.1370  -21.7580 H   0  0  0  0  0  0  0  0  0  0  0  0
  -27.5660   12.1130  -20.6530 H   0  0  0  0  0  0  0  0  0  0  0  0
  -26.8740   13.9820  -21.1060 C   0  0  0  0  0  0  0  0  0  0  0  0
  -27.0560   14.1710  -19.5990 C   0  0  0  0  0  0  0  0  0  0  0  0
  -27.9260   15.3290  -19.3520 N   0  0  0  0  0  0  0  0  0  0  0  0
  -27.3980   16.1720  -19.5780 H   0  0  0  0  0  0  0  0  0  0  0  0
  -30.0930   16.3830  -19.7890 C   0  0  0  0  0  0  0  0  0  0  0  0
  -29.1100   15.2920  -20.2200 C   0  0  0  0  0  0  0  0  0  0  0  0
  -28.3120   15.4060  -17.9370 C   0  0  0  0  0  0  0  0  0  0  0  0
  -28.5820   13.9990  -17.4040 C   0  0  0  0  0  0  0  0  0  0  0  0
  2  1  1  0  0  0  0
  2  5  1  0  0  0  0
  3  2  2  0  0  0  0
  4  2  2  0  0  0  0
  5 10  2  0  0  0  0
  5  6  1  0  0  0  0
  6  7  2  0  0  0  0
  7  8  1  0  0  0  0
  8 11  1  0  0  0  0
  9  8  2  0  0  0  0
 10  9  1  0  0  0  0
 11 12  1  0  0  0  0
 11 13  1  0  0  0  0
 13 14  1  0  0  0  0
 15 13  2  0  0  0  0
 16  1  1  0  0  0  0
 17 16  1  0  0  0  0
 17 18  1  0  0  0  0
 18 21  1  0  0  0  0
 18 20  1  0  0  0  0
 19 18  1  0  0  0  0
 21 22  1  0  0  0  0
 22 23  1  0  0  0  0
 23 27  1  0  0  0  0
 24 23  1  0  0  0  0
 26 25  1  0  0  0  0
 26 23  1  0  0  0  0
 27 28  1  0  0  0  0
M  END
>  <MODEL>
1

>  <REMARK>
 VINA RESULT:      -5.6      0.000      0.000
  Name = ZINC19366398
                            x       y       z     vdW  Elec       q    Type
                         _______ _______ _______ _____ _____    ______ ____

>  <TORSDO>
F 11

>  <vina_score>
-5.6

$$$$
ZINC20341969
 OpenBabel01081722203D

 23 23  0  0  0  0  0  0  0  0999 V2000
  -29.1800   13.3380  -20.6120 C   0  0  0  0  0  0  0  0  0  0  0  0
  -30.2020   13.8880  -19.9280 N   0  0  0  0  0  0  0  0  0  0  0  0
  -30.2920   14.8670  -19.8790 H   0  0  0  0  0  0  0  0  0  0  0  0
  -29.0700   12.1320  -20.6730 O   0  0  0  0  0  0  0  0  0  0  0  0
  -31.1280   13.0750  -19.2920 C   0  0  0  0  0  0  0  0  0  0  0  0
  -32.1970   12.3830  -19.8500 C   0  0  0  0  0  0  0  0  0  0  0  0
  -33.0060   11.5990  -18.9460 C   0  0  0  0  0  0  0  0  0  0  0  0
  -34.1860   10.8030  -19.4380 C   0  0  0  0  0  0  0  0  0  0  0  0
  -32.6590   11.6100  -17.6460 C   0  0  0  0  0  0  0  0  0  0  0  0
  -33.3180   10.8910  -16.4970 C   0  0  0  0  0  0  0  0  0  0  0  0
  -31.2350   12.6770  -17.6100 S   0  0  0  0  0  0  0  0  0  0  0  0
  -32.4870   12.4420  -21.2850 C   0  0  0  0  0  0  0  0  0  0  0  0
  -32.3170   11.3450  -22.0520 O   0  0  0  0  0  0  0  0  0  0  0  0
  -32.8790   13.4790  -21.7840 O   0  0  0  0  0  0  0  0  0  0  0  0
  -28.1740   14.2210  -21.3040 C   0  0  0  0  0  0  0  0  0  0  0  0
  -27.1710   14.6750  -20.3320 N   0  0  0  0  0  0  0  0  0  0  0  0
  -27.1920   15.6950  -20.3130 H   0  0  0  0  0  0  0  0  0  0  0  0
  -25.5940   12.8020  -20.3320 C   0  0  0  0  0  0  0  0  0  0  0  0
  -25.8200   14.2600  -20.7360 C   0  0  0  0  0  0  0  0  0  0  0  0
  -27.4890   14.1920  -18.9820 C   0  0  0  0  0  0  0  0  0  0  0  0
  -27.7240   15.3860  -18.0550 C   0  0  0  0  0  0  0  0  0  0  0  0
  -28.6230   16.3050  -18.6800 O   0  0  0  0  0  0  0  0  0  0  0  0
  -28.1710   17.1500  -18.8270 H   0  0  0  0  0  0  0  0  0  0  0  0
  1  2  1  0  0  0  0
  2  3  1  0  0  0  0
  2  5  1  0  0  0  0
  4  1  2  0  0  0  0
  5 11  1  0  0  0  0
  6  5  2  0  0  0  0
  6  7  1  0  0  0  0
  7  9  2  0  0  0  0
  8  7  1  0  0  0  0
  9 11  1  0  0  0  0
  9 10  1  0  0  0  0
 12  6  1  0  0  0  0
 13 12  2  0  0  0  0
 14 12  1  0  0  0  0
 15  1  1  0  0  0  0
 15 16  1  0  0  0  0
 16 17  1  0  0  0  0
 16 20  1  0  0  0  0
 19 18  1  0  0  0  0
 19 16  1  0  0  0  0
 20 21  1  0  0  0  0
 22 21  1  0  0  0  0
 23 22  1  0  0  0  0
M  END
>  <MODEL>
1

>  <REMARK>
 VINA RESULT:      -5.6      0.000      0.000
  Name = ZINC20341969
                            x       y       z     vdW  Elec       q    Type
                         _______ _______ _______ _____ _____    ______ ____

>  <TORSDO>
F 8

>  <vina_score>
-5.6

$$$$
ZINC20236119
 OpenBabel01081722263D

 22 22  0  0  0  0  0  0  0  0999 V2000
  -28.2330   13.0220  -20.1460 N   0  0  0  0  0  0  0  0  0  0  0  0
  -29.5970   12.8360  -20.3930 C   0  0  0  0  0  0  0  0  0  0  0  0
  -30.0740   11.5800  -20.7490 C   0  0  0  0  0  0  0  0  0  0  0  0
  -31.4210   11.3940  -20.9880 C   0  0  0  0  0  0  0  0  0  0  0  0
  -32.3000   12.4600  -20.8850 C   0  0  0  0  0  0  0  0  0  0  0  0
  -31.8250   13.7200  -20.5340 C   0  0  0  0  0  0  0  0  0  0  0  0
  -30.4750   13.9070  -20.2880 C   0  0  0  0  0  0  0  0  0  0  0  0
  -33.6260   12.2760  -21.1260 O   0  0  0  0  0  0  0  0  0  0  0  0
  -34.3500   11.4700  -20.1920 C   0  0  0  0  0  0  0  0  0  0  0  0
  -32.6870   14.7680  -20.4310 O   0  0  0  0  0  0  0  0  0  0  0  0
  -32.1120   16.0650  -20.2680 C   0  0  0  0  0  0  0  0  0  0  0  0
  -27.6900   13.1970  -18.5910 S   0  0  0  0  0  0  0  0  0  0  0  0
  -28.5920   12.4330  -17.8030 O   0  0  0  0  0  0  0  0  0  0  0  0
  -26.3110   12.8550  -18.6480 O   0  0  0  0  0  0  0  0  0  0  0  0
  -28.8670   15.1410  -17.0690 C   0  0  0  0  0  0  0  0  0  0  0  0
  -27.8810   14.9620  -18.2260 C   0  0  0  0  0  0  0  0  0  0  0  0
  -27.2850   13.0630  -21.2620 C   0  0  0  0  0  0  0  0  0  0  0  0
  -26.9880   14.5190  -21.6260 C   0  0  0  0  0  0  0  0  0  0  0  0
  -25.7620   14.9540  -20.9410 N   0  0  0  0  0  0  0  0  0  0  0  0
  -25.9900   15.6880  -20.2700 H   0  0  0  0  0  0  0  0  0  0  0  0
  -25.3470   14.1620  -20.4510 H   0  0  0  0  0  0  0  0  0  0  0  0
  -25.0990   15.3140  -21.6270 H   0  0  0  0  0  0  0  0  0  0  0  0
  1 12  1  0  0  0  0
  2  7  1  0  0  0  0
  2  1  1  0  0  0  0
  3  2  2  0  0  0  0
  4  5  2  0  0  0  0
  4  3  1  0  0  0  0
  5  6  1  0  0  0  0
  6 10  1  0  0  0  0
  6  7  2  0  0  0  0
  8  5  1  0  0  0  0
  8  9  1  0  0  0  0
 10 11  1  0  0  0  0
 12 16  1  0  0  0  0
 12 13  2  0  0  0  0
 14 12  2  0  0  0  0
 16 15  1  0  0  0  0
 17  1  1  0  0  0  0
 18 17  1  0  0  0  0
 18 19  1  0  0  0  0
 19 21  1  0  0  0  0
 19 20  1  0  0  0  0
 22 19  1  0  0  0  0
M  END
>  <MODEL>
1

>  <REMARK>
 VINA RESULT:      -5.6      0.000      0.000
  Name = ZINC20236119
                            x       y       z     vdW  Elec       q    Type
                         _______ _______ _______ _____ _____    ______ ____

>  <TORSDO>
F 8

>  <vina_score>
-5.6

$$$$
ZINC02019924
 OpenBabel01081722273D

 27 27  0  0  0  0  0  0  0  0999 V2000
  -29.7470   11.7100  -20.4090 O   0  0  0  0  0  0  0  0  0  0  0  0
  -29.5020   12.1960  -21.6360 C   0  0  0  0  0  0  0  0  0  0  0  0
  -30.2150   11.8860  -22.5610 O   0  0  0  0  0  0  0  0  0  0  0  0
  -28.3380   13.1270  -21.8610 C   0  0  0  0  0  0  0  0  0  0  0  0
  -27.0500   12.4590  -21.3760 C   0  0  0  0  0  0  0  0  0  0  0  0
  -26.3410   13.3750  -20.4120 C   0  0  0  0  0  0  0  0  0  0  0  0
  -25.8070   14.3810  -20.8160 O   0  0  0  0  0  0  0  0  0  0  0  0
  -26.3030   13.0750  -19.1040 O   0  0  0  0  0  0  0  0  0  0  0  0
  -27.4200   13.5240  -18.2920 C   0  0  0  0  0  0  0  0  0  0  0  0
  -27.6960   15.0010  -18.5780 C   0  0  0  0  0  0  0  0  0  0  0  0
  -29.1320   15.2680  -18.3500 N   0  0  0  0  0  0  0  0  0  0  0  0
  -29.2240   16.0540  -17.7060 H   0  0  0  0  0  0  0  0  0  0  0  0
  -29.7790   14.0800  -17.7540 C   0  0  0  0  0  0  0  0  0  0  0  0
  -29.7900   15.6150  -19.6270 C   0  0  0  0  0  0  0  0  0  0  0  0
  -30.9240   10.8750  -20.2530 C   0  0  0  0  0  0  0  0  0  0  0  0
  -33.8610   12.5420  -15.6160 C   0  0  0  0  0  0  0  0  0  0  0  0
  -33.1020   12.1240  -16.8490 C   0  0  0  0  0  0  0  0  0  0  0  0
  -33.4070   12.7020  -18.0720 C   0  0  0  0  0  0  0  0  0  0  0  0
  -32.6980   12.3070  -19.2020 C   0  0  0  0  0  0  0  0  0  0  0  0
  -31.7150   11.3410  -19.0590 C   0  0  0  0  0  0  0  0  0  0  0  0
  -31.4650   10.8140  -17.8050 C   0  0  0  0  0  0  0  0  0  0  0  0
  -32.1560   11.2120  -16.7540 N   0  0  0  0  0  0  0  0  0  0  0  0
  -34.3840   13.6430  -18.1660 O   0  0  0  0  0  0  0  0  0  0  0  0
  -34.2290   14.4340  -18.6430 H   0  0  0  0  0  0  0  0  0  0  0  0
  -32.9970   12.9100  -20.5510 C   0  0  0  0  0  0  0  0  0  0  0  0
  -34.3180   12.5420  -20.9540 O   0  0  0  0  0  0  0  0  0  0  0  0
  -34.5890   13.0870  -21.7090 H   0  0  0  0  0  0  0  0  0  0  0  0
  1 15  1  0  0  0  0
  2  1  1  0  0  0  0
  3  2  2  0  0  0  0
  4  2  1  0  0  0  0
  4  5  1  0  0  0  0
  5  6  1  0  0  0  0
  6  8  1  0  0  0  0
  7  6  2  0  0  0  0
  8  9  1  0  0  0  0
 10 11  1  0  0  0  0
 10  9  1  0  0  0  0
 11 13  1  0  0  0  0
 11 12  1  0  0  0  0
 14 11  1  0  0  0  0
 15 20  1  0  0  0  0
 17 22  1  0  0  0  0
 17 16  1  0  0  0  0
 18 17  2  0  0  0  0
 19 20  2  0  0  0  0
 19 18  1  0  0  0  0
 20 21  1  0  0  0  0
 21 22  2  0  0  0  0
 23 18  1  0  0  0  0
 24 23  1  0  0  0  0
 25 19  1  0  0  0  0
 26 25  1  0  0  0  0
 27 26  1  0  0  0  0
M  END
>  <MODEL>
1

>  <REMARK>
 VINA RESULT:      -5.6      0.000      0.000
  Name = ZINC02019924
                            x       y       z     vdW  Elec       q    Type
                         _______ _______ _______ _____ _____    ______ ____

>  <TORSDO>
F 13

>  <vina_score>
-5.6

$$$$
ZINC29496759
 OpenBabel01081722283D

 22 22  0  0  1  0  0  0  0  0999 V2000
  -30.1800   13.4020  -19.9600 N   0  0  0  0  0  0  0  0  0  0  0  0
  -31.0470   12.7960  -20.7940 C   0  0  0  0  0  0  0  0  0  0  0  0
  -30.7160   11.7920  -21.3880 O   0  0  0  0  0  0  0  0  0  0  0  0
  -28.8370   12.8490  -19.7700 C   0  0  2  0  0  0  0  0  0  0  0  0
  -28.1660   13.5400  -18.5720 C   0  0  0  0  0  0  0  0  0  0  0  0
  -26.6530   13.1740  -18.5840 C   0  0  0  0  0  0  0  0  0  0  0  0
  -26.2960   13.2820  -20.3880 S   0  0  0  0  0  0  0  0  0  0  0  0
  -25.8340   14.5910  -20.6900 O   0  0  0  0  0  0  0  0  0  0  0  0
  -25.5150   12.1580  -20.7730 O   0  0  0  0  0  0  0  0  0  0  0  0
  -28.0000   13.0810  -21.0510 C   0  0  0  0  0  0  0  0  0  0  0  0
  -30.5800   14.6160  -19.2430 C   0  0  0  0  0  0  0  0  0  0  0  0
  -31.1980   16.8520  -20.1680 C   0  0  0  0  0  0  0  0  0  0  0  0
  -30.0600   15.8450  -19.9910 C   0  0  0  0  0  0  0  0  0  0  0  0
  -32.4280   13.3660  -20.9910 C   0  0  0  0  0  0  0  0  0  0  0  0
  -33.6630   12.1460  -20.4790 S   0  0  0  0  0  0  0  0  0  0  0  0
  -33.2340   11.9710  -18.7790 C   0  0  0  0  0  0  0  0  0  0  0  0
  -33.4600   12.9480  -17.9450 N   0  0  0  0  0  0  0  0  0  0  0  0
  -33.8720   13.7830  -18.2650 H   0  0  0  0  0  0  0  0  0  0  0  0
  -33.1040   12.8010  -16.5320 C   0  0  0  0  0  0  0  0  0  0  0  0
  -32.6600   10.8030  -18.3310 N   0  0  0  0  0  0  0  0  0  0  0  0
  -32.9250   10.4260  -17.4610 H   0  0  0  0  0  0  0  0  0  0  0  0
  -31.9830   10.3450  -18.8810 H   0  0  0  0  0  0  0  0  0  0  0  0
  1 11  1  0  0  0  0
  2  1  1  0  0  0  0
  3  2  2  0  0  0  0
  4  1  1  6  0  0  0
  4  5  1  0  0  0  0
  6  5  1  0  0  0  0
  7  6  1  0  0  0  0
  8  7  2  0  0  0  0
  9  7  2  0  0  0  0
 10  7  1  0  0  0  0
 10  4  1  0  0  0  0
 12 13  1  0  0  0  0
 13 11  1  0  0  0  0
 14  2  1  0  0  0  0
 14 15  1  0  0  0  0
 15 16  1  0  0  0  0
 16 20  2  0  0  0  0
 16 17  1  0  0  0  0
 17 19  1  0  0  0  0
 18 17  1  0  0  0  0
 20 21  1  0  0  0  0
 22 20  1  0  0  0  0
M  END
>  <MODEL>
1

>  <REMARK>
 VINA RESULT:      -5.6      0.000      0.000
  Name = ZINC29496759
                            x       y       z     vdW  Elec       q    Type
                         _______ _______ _______ _____ _____    ______ ____

>  <TORSDO>
F 7

>  <vina_score>
-5.6

$$$$
ZINC19282844
 OpenBabel01081722283D

 22 22  0  0  0  0  0  0  0  0999 V2000
  -28.2370   14.3660  -19.2660 C   0  0  0  0  0  0  0  0  0  0  0  0
  -28.4400   14.2540  -17.8980 C   0  0  0  0  0  0  0  0  0  0  0  0
  -29.6510   13.7990  -17.4110 C   0  0  0  0  0  0  0  0  0  0  0  0
  -30.6660   13.4540  -18.2870 C   0  0  0  0  0  0  0  0  0  0  0  0
  -30.4660   13.5660  -19.6620 C   0  0  0  0  0  0  0  0  0  0  0  0
  -29.2480   14.0180  -20.1480 C   0  0  0  0  0  0  0  0  0  0  0  0
  -27.0440   14.8130  -19.7420 O   0  0  0  0  0  0  0  0  0  0  0  0
  -25.7600   12.8640  -20.3680 C   0  0  0  0  0  0  0  0  0  0  0  0
  -26.4900   14.1160  -20.8590 C   0  0  0  0  0  0  0  0  0  0  0  0
  -31.8580   13.0050  -17.8070 O   0  0  0  0  0  0  0  0  0  0  0  0
  -31.8640   11.7160  -17.1900 C   0  0  0  0  0  0  0  0  0  0  0  0
  -33.2110   11.4870  -16.5000 C   0  0  0  0  0  0  0  0  0  0  0  0
  -31.4900   13.2170  -20.5490 N   0  0  0  0  0  0  0  0  0  0  0  0
  -31.5390   11.6950  -21.2010 S   0  0  0  0  0  0  0  0  0  0  0  0
  -31.5190   11.9010  -22.6060 O   0  0  0  0  0  0  0  0  0  0  0  0
  -30.4850   10.9910  -20.5570 O   0  0  0  0  0  0  0  0  0  0  0  0
  -33.1440   11.0210  -20.6900 C   0  0  0  0  0  0  0  0  0  0  0  0
  -34.2110   12.1140  -20.7910 C   0  0  0  0  0  0  0  0  0  0  0  0
  -34.2360   12.8900  -19.5450 N   0  0  0  0  0  0  0  0  0  0  0  0
  -33.3610   13.4070  -19.4480 H   0  0  0  0  0  0  0  0  0  0  0  0
  -35.0160   13.5460  -19.5680 H   0  0  0  0  0  0  0  0  0  0  0  0
  -34.3460   12.2580  -18.7520 H   0  0  0  0  0  0  0  0  0  0  0  0
  1  2  2  0  0  0  0
  2  3  1  0  0  0  0
  4 10  1  0  0  0  0
  4  3  2  0  0  0  0
  5  4  1  0  0  0  0
  6  5  2  0  0  0  0
  6  1  1  0  0  0  0
  7  1  1  0  0  0  0
  9  8  1  0  0  0  0
  9  7  1  0  0  0  0
 10 11  1  0  0  0  0
 11 12  1  0  0  0  0
 13  5  1  0  0  0  0
 14 17  1  0  0  0  0
 14 16  2  0  0  0  0
 14 13  1  0  0  0  0
 15 14  2  0  0  0  0
 18 17  1  0  0  0  0
 18 19  1  0  0  0  0
 19 20  1  0  0  0  0
 19 22  1  0  0  0  0
 21 19  1  0  0  0  0
M  END
>  <MODEL>
1

>  <REMARK>
 VINA RESULT:      -5.6      0.000      0.000
  Name = ZINC19282844
                            x       y       z     vdW  Elec       q    Type
                         _______ _______ _______ _____ _____    ______ ____

>  <TORSDO>
F 9

>  <vina_score>
-5.6

$$$$
ZINC01771393
 OpenBabel01081722293D

 19 19  0  0  1  0  0  0  0  0999 V2000
  -29.6820   13.3110  -21.5990 N   0  0  0  0  0  0  0  0  0  0  0  0
  -29.2490   13.1160  -22.5010 H   0  0  0  0  0  0  0  0  0  0  0  0
  -30.4610   13.9590  -21.7180 H   0  0  0  0  0  0  0  0  0  0  0  0
  -28.6770   13.9180  -20.7060 C   0  0  1  0  0  0  0  0  0  0  0  0
  -29.4100   14.6910  -19.5910 C   0  0  0  0  0  0  0  0  0  0  0  0
  -28.7060   13.9740  -18.0480 S   0  0  0  0  0  0  0  0  0  0  0  0
  -27.2030   13.1920  -18.7820 C   0  0  0  0  0  0  0  0  0  0  0  0
  -29.5750   12.9580  -17.5660 O   0  0  0  0  0  0  0  0  0  0  0  0
  -28.3080   15.0290  -17.1830 O   0  0  0  0  0  0  0  0  0  0  0  0
  -27.7670   12.8090  -20.1780 C   0  0  2  0  0  0  0  0  0  0  0  0
  -26.6820   12.6160  -21.0900 O   0  0  0  0  0  0  0  0  0  0  0  0
  -26.2850   11.7440  -20.9390 H   0  0  0  0  0  0  0  0  0  0  0  0
  -30.1820   12.0480  -21.0230 C   0  0  0  0  0  0  0  0  0  0  0  0
  -31.6760   11.9160  -21.3280 C   0  0  0  0  0  0  0  0  0  0  0  0
  -32.3300   13.2980  -21.2790 C   0  0  0  0  0  0  0  0  0  0  0  0
  -34.1980   12.0080  -20.4360 C   0  0  0  0  0  0  0  0  0  0  0  0
  -33.4350   13.2670  -20.2970 N   0  0  0  0  0  0  0  0  0  0  0  0
  -34.0590   14.0540  -20.4760 H   0  0  0  0  0  0  0  0  0  0  0  0
  -32.8960   13.3830  -18.9250 C   0  0  0  0  0  0  0  0  0  0  0  0
  1 13  1  0  0  0  0
  2  1  1  0  0  0  0
  3  1  1  0  0  0  0
  4  1  1  6  0  0  0
  4 10  1  0  0  0  0
  4  5  1  0  0  0  0
  5  6  1  0  0  0  0
  6  8  2  0  0  0  0
  6  9  2  0  0  0  0
  7  6  1  0  0  0  0
 10 11  1  6  0  0  0
 10  7  1  0  0  0  0
 11 12  1  0  0  0  0
 14 15  1  0  0  0  0
 14 13  1  0  0  0  0
 15 17  1  0  0  0  0
 16 17  1  0  0  0  0
 17 19  1  0  0  0  0
 18 17  1  0  0  0  0
M  END
>  <MODEL>
1

>  <REMARK>
 VINA RESULT:      -5.6      0.000      0.000
  Name = ZINC01771393
                            x       y       z     vdW  Elec       q    Type
                         _______ _______ _______ _____ _____    ______ ____

>  <TORSDO>
F 6

>  <vina_score>
-5.6

$$$$
ZINC05382434
 OpenBabel01081722063D

 23 23  0  0  1  0  0  0  0  0999 V2000
  -32.4350   13.5740  -21.1670 C   0  0  1  0  0  0  0  0  0  0  0  0
  -31.1750   13.0240  -21.7020 N   0  0  0  0  0  0  0  0  0  0  0  0
  -30.5120   13.7870  -21.8390 H   0  0  0  0  0  0  0  0  0  0  0  0
  -31.3620   12.5590  -22.5900 H   0  0  0  0  0  0  0  0  0  0  0  0
  -30.5980   12.0520  -20.7550 C   0  0  0  0  0  0  0  0  0  0  0  0
  -26.9490   12.9990  -20.9030 C   0  0  0  0  0  0  0  0  0  0  0  0
  -28.3340   12.5540  -21.3520 C   0  0  0  0  0  0  0  0  0  0  0  0
  -29.2410   12.4710  -20.3930 N   0  0  0  0  0  0  0  0  0  0  0  0
  -28.9800   12.7460  -19.1020 C   0  0  0  0  0  0  0  0  0  0  0  0
  -30.0520   12.6740  -17.7700 S   0  0  0  0  0  0  0  0  0  0  0  0
  -28.5880   12.2970  -22.5090 O   0  0  0  0  0  0  0  0  0  0  0  0
  -27.2540   13.2060  -19.1030 S   0  0  0  0  0  0  0  0  0  0  0  0
  -33.2900   12.4510  -20.6400 C   0  0  0  0  0  0  0  0  0  0  0  0
  -33.5750   11.4000  -21.4260 O   0  0  0  0  0  0  0  0  0  0  0  0
  -33.7200   12.4950  -19.5120 O   0  0  0  0  0  0  0  0  0  0  0  0
  -32.1160   14.5480  -20.0310 C   0  0  0  0  0  0  0  0  0  0  0  0
  -32.4320   15.9760  -20.4800 C   0  0  0  0  0  0  0  0  0  0  0  0
  -31.2450   16.8870  -20.1560 C   0  0  0  0  0  0  0  0  0  0  0  0
  -30.0550   16.0340  -19.7100 C   0  0  0  0  0  0  0  0  0  0  0  0
  -29.0930   15.9350  -20.8210 N   0  0  0  0  0  0  0  0  0  0  0  0
  -28.3100   15.3430  -20.5430 H   0  0  0  0  0  0  0  0  0  0  0  0
  -29.5540   15.5290  -21.6350 H   0  0  0  0  0  0  0  0  0  0  0  0
  -28.7480   16.8660  -21.0570 H   0  0  0  0  0  0  0  0  0  0  0  0
  1  2  1  1  0  0  0
  1 13  1  0  0  0  0
  1 16  1  0  0  0  0
  2  5  1  0  0  0  0
  3  2  1  0  0  0  0
  4  2  1  0  0  0  0
  5  8  1  0  0  0  0
  6 12  2  0  0  0  0
  7  6  1  0  0  0  0
  7  8  1  0  0  0  0
  8  9  1  0  0  0  0
  9 10  2  0  0  0  0
 11  7  2  0  0  0  0
 12  9  1  0  0  0  0
 13 15  1  0  0  0  0
 14 13  2  0  0  0  0
 17 18  1  0  0  0  0
 17 16  1  0  0  0  0
 18 19  1  0  0  0  0
 20 21  1  0  0  0  0
 20 19  1  0  0  0  0
 22 20  1  0  0  0  0
 23 20  1  0  0  0  0
M  END
>  <MODEL>
1

>  <REMARK>
 VINA RESULT:      -5.6      0.000      0.000
  Name = ZINC05382434
                            x       y       z     vdW  Elec       q    Type
                         _______ _______ _______ _____ _____    ______ ____

>  <TORSDO>
F 9

>  <vina_score>
-5.6

$$$$
ZINC12503222
 OpenBabel01081722113D

 29 29  0  0  0  0  0  0  0  0999 V2000
  -32.5960   12.9740  -17.6790 C   0  0  0  0  0  0  0  0  0  0  0  0
  -34.1050   11.8430  -19.3040 C   0  0  0  0  0  0  0  0  0  0  0  0
  -32.8500   12.2150  -18.9560 C   0  0  0  0  0  0  0  0  0  0  0  0
  -31.8540   11.9020  -19.7650 N   0  0  0  0  0  0  0  0  0  0  0  0
  -32.0670   11.2330  -20.8820 C   0  0  0  0  0  0  0  0  0  0  0  0
  -33.7880   11.0100  -20.8530 S   0  0  0  0  0  0  0  0  0  0  0  0
  -31.1490   10.8200  -21.8380 N   0  0  0  0  0  0  0  0  0  0  0  0
  -31.2900    9.9760  -22.3250 H   0  0  0  0  0  0  0  0  0  0  0  0
  -30.0390   11.5910  -22.1060 C   0  0  0  0  0  0  0  0  0  0  0  0
  -28.9720   11.0430  -22.6130 N   0  0  0  0  0  0  0  0  0  0  0  0
  -28.1790   11.5940  -22.8040 H   0  0  0  0  0  0  0  0  0  0  0  0
  -28.9580   10.0770  -22.8040 H   0  0  0  0  0  0  0  0  0  0  0  0
  -30.0590   12.9410  -21.8400 N   0  0  0  0  0  0  0  0  0  0  0  0
  -30.1400   13.5860  -22.5780 H   0  0  0  0  0  0  0  0  0  0  0  0
  -29.9920   13.2600  -20.9110 H   0  0  0  0  0  0  0  0  0  0  0  0
  -30.8580   12.7850  -17.1980 S   0  0  0  0  0  0  0  0  0  0  0  0
  -30.0550   14.2710  -17.8600 C   0  0  0  0  0  0  0  0  0  0  0  0
  -28.5980   14.3140  -17.3950 C   0  0  0  0  0  0  0  0  0  0  0  0
  -27.6890   14.0320  -18.5630 C   0  0  0  0  0  0  0  0  0  0  0  0
  -28.0630   14.4000  -19.8280 N   0  0  0  0  0  0  0  0  0  0  0  0
  -27.0630   14.0900  -21.1100 S   0  0  0  0  0  0  0  0  0  0  0  0
  -27.6070   14.7800  -22.2260 O   0  0  0  0  0  0  0  0  0  0  0  0
  -26.8380   12.6870  -21.1180 O   0  0  0  0  0  0  0  0  0  0  0  0
  -25.6050   14.8010  -20.7780 N   0  0  0  0  0  0  0  0  0  0  0  0
  -25.4530   14.8070  -19.7690 H   0  0  0  0  0  0  0  0  0  0  0  0
  -24.8590   14.2740  -21.2310 H   0  0  0  0  0  0  0  0  0  0  0  0
  -26.5530   13.4430  -18.3690 N   0  0  0  0  0  0  0  0  0  0  0  0
  -26.2210   13.3040  -17.4530 H   0  0  0  0  0  0  0  0  0  0  0  0
  -26.0200   13.1360  -19.1390 H   0  0  0  0  0  0  0  0  0  0  0  0
  1 16  1  0  0  0  0
  2  3  2  0  0  0  0
  3  1  1  0  0  0  0
  4  3  1  0  0  0  0
  5  6  1  0  0  0  0
  5  4  2  0  0  0  0
  6  2  1  0  0  0  0
  7  5  1  0  0  0  0
  8  7  1  0  0  0  0
  9 13  1  0  0  0  0
  9  7  1  0  0  0  0
 10  9  2  0  0  0  0
 11 10  1  0  0  0  0
 12 10  1  0  0  0  0
 13 15  1  0  0  0  0
 14 13  1  0  0  0  0
 17 18  1  0  0  0  0
 17 16  1  0  0  0  0
 19 27  1  0  0  0  0
 19 18  1  0  0  0  0
 20 19  2  0  0  0  0
 21 24  1  0  0  0  0
 21 20  1  0  0  0  0
 22 21  2  0  0  0  0
 23 21  2  0  0  0  0
 24 25  1  0  0  0  0
 26 24  1  0  0  0  0
 27 28  1  0  0  0  0
 29 27  1  0  0  0  0
M  END
>  <MODEL>
1

>  <REMARK>
 VINA RESULT:      -5.6      0.000      0.000
  Name = ZINC12503222
                            x       y       z     vdW  Elec       q    Type
                         _______ _______ _______ _____ _____    ______ ____

>  <TORSDO>
F 11

>  <vina_score>
-5.6

$$$$
ZINC07873396
 OpenBabel01081722153D

 25 25  0  0  0  0  0  0  0  0999 V2000
  -33.0330   12.0180  -20.9630 C   0  0  0  0  0  0  0  0  0  0  0  0
  -31.8570   11.3590  -20.9840 N   0  0  0  0  0  0  0  0  0  0  0  0
  -31.7640   10.5030  -20.5090 H   0  0  0  0  0  0  0  0  0  0  0  0
  -30.8090   11.8740  -21.6580 C   0  0  0  0  0  0  0  0  0  0  0  0
  -29.6340   11.2150  -21.6800 N   0  0  0  0  0  0  0  0  0  0  0  0
  -29.5400   10.3580  -21.2040 H   0  0  0  0  0  0  0  0  0  0  0  0
  -30.9240   12.9320  -22.2450 O   0  0  0  0  0  0  0  0  0  0  0  0
  -33.1470   13.0740  -21.5490 O   0  0  0  0  0  0  0  0  0  0  0  0
  -34.2050   11.4430  -20.2100 C   0  0  0  0  0  0  0  0  0  0  0  0
  -33.6400   10.8050  -18.6090 S   0  0  0  0  0  0  0  0  0  0  0  0
  -30.2430   13.5250  -17.7470 C   0  0  0  0  0  0  0  0  0  0  0  0
  -29.9520   12.2430  -17.8330 N   0  0  0  0  0  0  0  0  0  0  0  0
  -30.9460   11.3300  -18.0980 N   0  0  0  0  0  0  0  0  0  0  0  0
  -32.1880   11.7430  -18.2640 C   0  0  0  0  0  0  0  0  0  0  0  0
  -32.0030   13.5070  -18.0540 S   0  0  0  0  0  0  0  0  0  0  0  0
  -29.4050   14.6040  -17.4920 N   0  0  0  0  0  0  0  0  0  0  0  0
  -29.2320   14.8850  -16.5640 H   0  0  0  0  0  0  0  0  0  0  0  0
  -28.7790   15.3240  -18.6040 C   0  0  0  0  0  0  0  0  0  0  0  0
  -30.1170   16.9030  -20.0020 C   0  0  0  0  0  0  0  0  0  0  0  0
  -29.7700   15.4320  -19.7640 C   0  0  0  0  0  0  0  0  0  0  0  0
  -28.4940   11.7740  -22.4120 C   0  0  0  0  0  0  0  0  0  0  0  0
  -27.7030   12.7050  -21.4910 C   0  0  0  0  0  0  0  0  0  0  0  0
  -26.3520   12.3410  -21.5090 F   0  0  0  0  0  0  0  0  0  0  0  0
  -28.1960   12.6010  -20.1870 F   0  0  0  0  0  0  0  0  0  0  0  0
  -27.8360   14.0240  -21.9370 F   0  0  0  0  0  0  0  0  0  0  0  0
  1  9  1  0  0  0  0
  2  1  1  0  0  0  0
  2  3  1  0  0  0  0
  4  2  1  0  0  0  0
  5  4  1  0  0  0  0
  5  6  1  0  0  0  0
  7  4  2  0  0  0  0
  8  1  2  0  0  0  0
  9 10  1  0  0  0  0
 10 14  1  0  0  0  0
 11 16  1  0  0  0  0
 12 11  2  0  0  0  0
 13 12  1  0  0  0  0
 14 13  2  0  0  0  0
 14 15  1  0  0  0  0
 15 11  1  0  0  0  0
 16 17  1  0  0  0  0
 18 16  1  0  0  0  0
 19 20  1  0  0  0  0
 20 18  1  0  0  0  0
 21  5  1  0  0  0  0
 21 22  1  0  0  0  0
 22 24  1  0  0  0  0
 23 22  1  0  0  0  0
 25 22  1  0  0  0  0
M  END
>  <MODEL>
1

>  <REMARK>
 VINA RESULT:      -5.5      0.000      0.000
  Name = ZINC07873396
                            x       y       z     vdW  Elec       q    Type
                         _______ _______ _______ _____ _____    ______ ____

>  <TORSDO>
F 8

>  <vina_score>
-5.5

$$$$
ZINC06413685
 OpenBabel01081722153D

 23 24  0  0  0  0  0  0  0  0999 V2000
  -31.8980   10.8800  -16.5780 C   0  0  0  0  0  0  0  0  0  0  0  0
  -32.0950   11.7520  -17.7390 N   0  0  0  0  0  0  0  0  0  0  0  0
  -31.1370   12.6990  -18.0630 C   0  0  0  0  0  0  0  0  0  0  0  0
  -31.3500   13.5140  -19.1710 C   0  0  0  0  0  0  0  0  0  0  0  0
  -30.2470   14.3540  -19.2570 N   0  0  0  0  0  0  0  0  0  0  0  0
  -29.4250   14.0260  -18.2230 C   0  0  0  0  0  0  0  0  0  0  0  0
  -32.5260   13.3550  -19.9250 C   0  0  0  0  0  0  0  0  0  0  0  0
  -33.4230   12.4150  -19.5600 N   0  0  0  0  0  0  0  0  0  0  0  0
  -34.6490   12.2450  -20.3420 C   0  0  0  0  0  0  0  0  0  0  0  0
  -32.7340   14.0580  -20.8990 O   0  0  0  0  0  0  0  0  0  0  0  0
  -29.9660   13.0450  -17.5270 N   0  0  0  0  0  0  0  0  0  0  0  0
  -33.2100   11.6360  -18.4850 C   0  0  0  0  0  0  0  0  0  0  0  0
  -34.0420   10.8030  -18.1810 O   0  0  0  0  0  0  0  0  0  0  0  0
  -27.8790   14.7930  -17.8690 S   0  0  0  0  0  0  0  0  0  0  0  0
  -26.7610   13.4030  -18.1770 C   0  0  0  0  0  0  0  0  0  0  0  0
  -26.7470   13.0850  -19.6510 C   0  0  0  0  0  0  0  0  0  0  0  0
  -27.9070   12.9300  -20.3180 N   0  0  0  0  0  0  0  0  0  0  0  0
  -28.7640   13.0250  -19.8430 H   0  0  0  0  0  0  0  0  0  0  0  0
  -25.6910   12.9680  -20.2350 O   0  0  0  0  0  0  0  0  0  0  0  0
  -27.8930   12.6200  -21.7500 C   0  0  0  0  0  0  0  0  0  0  0  0
  -29.1600   11.8450  -22.1170 C   0  0  0  0  0  0  0  0  0  0  0  0
  -30.2720   12.7420  -22.1570 O   0  0  0  0  0  0  0  0  0  0  0  0
  -31.0000   12.3790  -21.6280 H   0  0  0  0  0  0  0  0  0  0  0  0
  2  1  1  0  0  0  0
  3  2  1  0  0  0  0
  3 11  1  0  0  0  0
  4  3  2  0  0  0  0
  5  4  1  0  0  0  0
  5  6  1  0  0  0  0
  6 14  1  0  0  0  0
  6 11  2  0  0  0  0
  7  8  1  0  0  0  0
  7  4  1  0  0  0  0
  8 12  1  0  0  0  0
  9  8  1  0  0  0  0
 10  7  2  0  0  0  0
 12 13  2  0  0  0  0
 12  2  1  0  0  0  0
 15 14  1  0  0  0  0
 16 15  1  0  0  0  0
 17 18  1  0  0  0  0
 17 16  1  0  0  0  0
 19 16  2  0  0  0  0
 20 17  1  0  0  0  0
 21 20  1  0  0  0  0
 22 21  1  0  0  0  0
 22 23  1  0  0  0  0
M  END
>  <MODEL>
1

>  <REMARK>
 VINA RESULT:      -5.5      0.000      0.000
  Name = ZINC06413685
                            x       y       z     vdW  Elec       q    Type
                         _______ _______ _______ _____ _____    ______ ____

>  <TORSDO>
F 6

>  <vina_score>
-5.5

$$$$
ZINC02033672
 OpenBabel01081722163D

 22 22  0  0  1  0  0  0  0  0999 V2000
  -31.6280   11.1710  -18.1320 C   0  0  0  0  0  0  0  0  0  0  0  0
  -30.4180   11.0280  -18.9450 N   0  0  0  0  0  0  0  0  0  0  0  0
  -30.1950   10.1570  -19.3480 H   0  0  0  0  0  0  0  0  0  0  0  0
  -27.6410   13.5360  -21.9360 C   0  0  0  0  0  0  0  0  0  0  0  0
  -28.2500   13.3320  -20.5720 C   0  0  0  0  0  0  0  0  0  0  0  0
  -27.9800   14.2200  -19.5440 C   0  0  0  0  0  0  0  0  0  0  0  0
  -28.5610   13.9960  -18.3050 C   0  0  0  0  0  0  0  0  0  0  0  0
  -28.2970   14.9350  -17.1580 C   0  0  0  0  0  0  0  0  0  0  0  0
  -29.3500   12.9470  -18.1440 N   0  0  0  0  0  0  0  0  0  0  0  0
  -29.5870   12.1160  -19.1480 C   0  0  0  0  0  0  0  0  0  0  0  0
  -29.0430   12.2990  -20.3430 N   0  0  0  0  0  0  0  0  0  0  0  0
  -32.8530   10.8060  -18.9720 C   0  0  0  0  0  0  0  0  0  0  0  0
  -32.6210   11.2290  -20.4230 C   0  0  0  0  0  0  0  0  0  0  0  0
  -33.5180   12.4230  -20.7560 C   0  0  0  0  0  0  0  0  0  0  0  0
  -32.6570   13.5870  -21.2490 C   0  0  2  0  0  0  0  0  0  0  0  0
  -31.4530   13.0830  -21.9330 N   0  0  0  0  0  0  0  0  0  0  0  0
  -30.8700   13.8690  -22.2200 H   0  0  0  0  0  0  0  0  0  0  0  0
  -30.9260   12.4840  -21.2970 H   0  0  0  0  0  0  0  0  0  0  0  0
  -31.7280   12.5470  -22.7550 H   0  0  0  0  0  0  0  0  0  0  0  0
  -32.2340   14.4330  -20.0760 C   0  0  0  0  0  0  0  0  0  0  0  0
  -31.2470   15.3310  -20.2180 O   0  0  0  0  0  0  0  0  0  0  0  0
  -32.7840   14.3030  -19.0070 O   0  0  0  0  0  0  0  0  0  0  0  0
  2  1  1  0  0  0  0
  3  2  1  0  0  0  0
  4  5  1  0  0  0  0
  5 11  2  0  0  0  0
  5  6  1  0  0  0  0
  6  7  2  0  0  0  0
  7  9  1  0  0  0  0
  7  8  1  0  0  0  0
 10  2  1  0  0  0  0
 10  9  2  0  0  0  0
 11 10  1  0  0  0  0
 12  1  1  0  0  0  0
 13 12  1  0  0  0  0
 14 13  1  0  0  0  0
 15 16  1  1  0  0  0
 15 14  1  0  0  0  0
 15 20  1  0  0  0  0
 16 18  1  0  0  0  0
 17 16  1  0  0  0  0
 19 16  1  0  0  0  0
 20 22  1  0  0  0  0
 21 20  2  0  0  0  0
M  END
>  <MODEL>
1

>  <REMARK>
 VINA RESULT:      -5.5      0.000      0.000
  Name = ZINC02033672
                            x       y       z     vdW  Elec       q    Type
                         _______ _______ _______ _____ _____    ______ ____

>  <TORSDO>
F 8

>  <vina_score>
-5.5

$$$$
ZINC16697797
 OpenBabel01081722253D

 21 21  0  0  1  0  0  0  0  0999 V2000
  -29.5650   14.4850  -18.1440 C   0  0  0  0  0  0  0  0  0  0  0  0
  -32.8510   12.8440  -20.3350 C   0  0  0  0  0  0  0  0  0  0  0  0
  -32.2250   13.9990  -20.7790 C   0  0  0  0  0  0  0  0  0  0  0  0
  -31.1630   14.5280  -20.0690 C   0  0  0  0  0  0  0  0  0  0  0  0
  -30.7230   13.9060  -18.9160 C   0  0  0  0  0  0  0  0  0  0  0  0
  -31.3460   12.7500  -18.4680 C   0  0  0  0  0  0  0  0  0  0  0  0
  -32.4110   12.2190  -19.1780 C   0  0  0  0  0  0  0  0  0  0  0  0
  -34.2390   10.9630  -20.7730 C   0  0  0  0  0  0  0  0  0  0  0  0
  -33.8950   12.3250  -21.0330 O   0  0  0  0  0  0  0  0  0  0  0  0
  -30.9160   12.1430  -17.3310 O   0  0  0  0  0  0  0  0  0  0  0  0
  -31.8210   11.2340  -16.6990 C   0  0  0  0  0  0  0  0  0  0  0  0
  -28.3360   14.5660  -19.0520 C   0  0  1  0  0  0  0  0  0  0  0  0
  -27.4390   15.6210  -18.5500 N   0  0  0  0  0  0  0  0  0  0  0  0
  -26.7490   15.8500  -19.2660 H   0  0  0  0  0  0  0  0  0  0  0  0
  -27.9840   16.4530  -18.3250 H   0  0  0  0  0  0  0  0  0  0  0  0
  -26.9610   15.2910  -17.7120 H   0  0  0  0  0  0  0  0  0  0  0  0
  -27.6190   13.2140  -19.0620 C   0  0  0  0  0  0  0  0  0  0  0  0
  -26.9650   12.9950  -20.4270 C   0  0  0  0  0  0  0  0  0  0  0  0
  -28.0350   12.8780  -21.4840 C   0  0  0  0  0  0  0  0  0  0  0  0
  -29.0360   11.9980  -21.3290 O   0  0  0  0  0  0  0  0  0  0  0  0
  -27.9910   13.5770  -22.4680 O   0  0  0  0  0  0  0  0  0  0  0  0
  2  7  1  0  0  0  0
  3  2  2  0  0  0  0
  3  4  1  0  0  0  0
  4  5  2  0  0  0  0
  5  6  1  0  0  0  0
  5  1  1  0  0  0  0
  6 10  1  0  0  0  0
  7  6  2  0  0  0  0
  9  8  1  0  0  0  0
  9  2  1  0  0  0  0
 10 11  1  0  0  0  0
 12 17  1  1  0  0  0
 12 13  1  0  0  0  0
 12  1  1  0  0  0  0
 13 15  1  0  0  0  0
 13 16  1  0  0  0  0
 14 13  1  0  0  0  0
 18 17  1  0  0  0  0
 19 20  1  0  0  0  0
 19 18  1  0  0  0  0
 21 19  2  0  0  0  0
M  END
>  <MODEL>
1

>  <REMARK>
 VINA RESULT:      -5.5      0.000      0.000
  Name = ZINC16697797
                            x       y       z     vdW  Elec       q    Type
                         _______ _______ _______ _____ _____    ______ ____

>  <TORSDO>
F 8

>  <vina_score>
-5.5

$$$$
ZINC28185584
 OpenBabel01081722103D

 23 23  0  0  0  0  0  0  0  0999 V2000
  -27.8760   15.3280  -17.8630 C   0  0  0  0  0  0  0  0  0  0  0  0
  -28.0620   14.4820  -19.0960 C   0  0  0  0  0  0  0  0  0  0  0  0
  -29.3390   14.0890  -19.4710 C   0  0  0  0  0  0  0  0  0  0  0  0
  -29.4940   13.3010  -20.6230 C   0  0  0  0  0  0  0  0  0  0  0  0
  -28.3450   12.9490  -21.3410 C   0  0  0  0  0  0  0  0  0  0  0  0
  -27.1150   13.3870  -20.8920 C   0  0  0  0  0  0  0  0  0  0  0  0
  -27.0110   14.1250  -19.8040 N   0  0  0  0  0  0  0  0  0  0  0  0
  -30.4190   14.4580  -18.7370 O   0  0  0  0  0  0  0  0  0  0  0  0
  -31.2430   14.0310  -18.8680 H   0  0  0  0  0  0  0  0  0  0  0  0
  -30.8300   12.8520  -21.0610 C   0  0  0  0  0  0  0  0  0  0  0  0
  -31.4080   11.8610  -20.4630 N   0  0  0  0  0  0  0  0  0  0  0  0
  -32.7340   11.4160  -20.8980 C   0  0  0  0  0  0  0  0  0  0  0  0
  -33.7600   12.5140  -20.6130 C   0  0  0  0  0  0  0  0  0  0  0  0
  -34.2320   12.4060  -19.1620 C   0  0  0  0  0  0  0  0  0  0  0  0
  -33.3510   13.2000  -18.3010 N   0  0  0  0  0  0  0  0  0  0  0  0
  -33.8660   14.0450  -18.0540 H   0  0  0  0  0  0  0  0  0  0  0  0
  -32.7790   12.5580  -16.8860 S   0  0  0  0  0  0  0  0  0  0  0  0
  -33.3470   10.8350  -16.8930 C   0  0  0  0  0  0  0  0  0  0  0  0
  -33.4420   13.2880  -15.8620 O   0  0  0  0  0  0  0  0  0  0  0  0
  -31.3650   12.6070  -17.0110 O   0  0  0  0  0  0  0  0  0  0  0  0
  -28.4480   12.1050  -22.5840 C   0  0  0  0  0  0  0  0  0  0  0  0
  -29.0410   10.8470  -22.2580 O   0  0  0  0  0  0  0  0  0  0  0  0
  -29.7390   10.9800  -21.5980 H   0  0  0  0  0  0  0  0  0  0  0  0
  2  1  1  0  0  0  0
  3  2  1  0  0  0  0
  3  8  1  0  0  0  0
  4  3  2  0  0  0  0
  5  6  2  0  0  0  0
  5  4  1  0  0  0  0
  6  7  1  0  0  0  0
  7  2  2  0  0  0  0
  9  8  1  0  0  0  0
 10  4  1  0  0  0  0
 10 11  2  0  0  0  0
 12 13  1  0  0  0  0
 12 11  1  0  0  0  0
 13 14  1  0  0  0  0
 14 15  1  0  0  0  0
 15 16  1  0  0  0  0
 15 17  1  0  0  0  0
 17 19  2  0  0  0  0
 18 17  1  0  0  0  0
 20 17  2  0  0  0  0
 21 22  1  0  0  0  0
 21  5  1  0  0  0  0
 22 23  1  0  0  0  0
M  END
>  <MODEL>
1

>  <REMARK>
 VINA RESULT:      -5.5      0.000      0.000
  Name = ZINC28185584
                            x       y       z     vdW  Elec       q    Type
                         _______ _______ _______ _____ _____    ______ ____

>  <TORSDO>
F 9

>  <vina_score>
-5.5

$$$$
ZINC19996022
 OpenBabel01081722133D

 27 28  0  0  0  0  0  0  0  0999 V2000
  -31.4400   13.6510  -18.2550 N   0  0  0  0  0  0  0  0  0  0  0  0
  -30.1180   13.6050  -17.9870 C   0  0  0  0  0  0  0  0  0  0  0  0
  -29.2150   14.4440  -18.7950 C   0  0  0  0  0  0  0  0  0  0  0  0
  -29.8300   15.2760  -19.8440 C   0  0  0  0  0  0  0  0  0  0  0  0
  -31.1690   15.2200  -19.9990 N   0  0  0  0  0  0  0  0  0  0  0  0
  -31.5960   15.7690  -20.6960 H   0  0  0  0  0  0  0  0  0  0  0  0
  -29.1500   15.9980  -20.5490 O   0  0  0  0  0  0  0  0  0  0  0  0
  -27.8500   14.4490  -18.5780 C   0  0  0  0  0  0  0  0  0  0  0  0
  -29.6840   12.8910  -17.1030 O   0  0  0  0  0  0  0  0  0  0  0  0
  -31.9320   14.4330  -19.2270 C   0  0  0  0  0  0  0  0  0  0  0  0
  -33.1320   14.4280  -19.4170 O   0  0  0  0  0  0  0  0  0  0  0  0
  -34.3430   13.1320  -14.3200 C   0  0  0  0  0  0  0  0  0  0  0  0
  -33.7410   12.5870  -15.5890 C   0  0  0  0  0  0  0  0  0  0  0  0
  -34.0540   11.3070  -16.0090 C   0  0  0  0  0  0  0  0  0  0  0  0
  -33.5030   10.8040  -17.1730 C   0  0  0  0  0  0  0  0  0  0  0  0
  -32.6410   11.5810  -17.9230 C   0  0  0  0  0  0  0  0  0  0  0  0
  -32.3190   12.8630  -17.5000 C   0  0  0  0  0  0  0  0  0  0  0  0
  -32.8740   13.3650  -16.3310 C   0  0  0  0  0  0  0  0  0  0  0  0
  -27.0460   15.1990  -19.3580 N   0  0  0  0  0  0  0  0  0  0  0  0
  -26.8440   16.1290  -19.1060 H   0  0  0  0  0  0  0  0  0  0  0  0
  -26.4740   14.6310  -20.5810 C   0  0  0  0  0  0  0  0  0  0  0  0
  -26.8850   13.1630  -20.7030 C   0  0  0  0  0  0  0  0  0  0  0  0
  -27.7590   12.9790  -21.9440 C   0  0  0  0  0  0  0  0  0  0  0  0
  -28.7630   11.9370  -21.6870 N   0  0  0  0  0  0  0  0  0  0  0  0
  -28.6170   11.5890  -20.7390 H   0  0  0  0  0  0  0  0  0  0  0  0
  -28.5990   10.8080  -22.6130 C   0  0  0  0  0  0  0  0  0  0  0  0
  -30.1230   12.4860  -21.7620 C   0  0  0  0  0  0  0  0  0  0  0  0
  1  2  1  0  0  0  0
  1 17  1  0  0  0  0
  2  9  2  0  0  0  0
  3  8  2  0  0  0  0
  3  2  1  0  0  0  0
  4  3  1  0  0  0  0
  5  4  1  0  0  0  0
  5 10  1  0  0  0  0
  6  5  1  0  0  0  0
  7  4  2  0  0  0  0
 10  1  1  0  0  0  0
 11 10  2  0  0  0  0
 13 12  1  0  0  0  0
 14 13  1  0  0  0  0
 15 14  2  0  0  0  0
 16 17  2  0  0  0  0
 16 15  1  0  0  0  0
 17 18  1  0  0  0  0
 18 13  2  0  0  0  0
 19 20  1  0  0  0  0
 19  8  1  0  0  0  0
 21 19  1  0  0  0  0
 22 21  1  0  0  0  0
 23 24  1  0  0  0  0
 23 22  1  0  0  0  0
 24 25  1  0  0  0  0
 26 24  1  0  0  0  0
 27 24  1  0  0  0  0
M  END
>  <MODEL>
1

>  <REMARK>
 VINA RESULT:      -5.4      0.000      0.000
  Name = ZINC19996022
                            x       y       z     vdW  Elec       q    Type
                         _______ _______ _______ _____ _____    ______ ____

>  <TORSDO>
F 6

>  <vina_score>
-5.4

$$$$
ZINC16697325
 OpenBabel01081722143D

 22 22  0  0  1  0  0  0  0  0999 V2000
  -29.4180   12.1030  -19.7300 C   0  0  0  0  0  0  0  0  0  0  0  0
  -30.7340   12.0300  -20.0130 N   0  0  0  0  0  0  0  0  0  0  0  0
  -31.2200   12.2660  -21.3790 C   0  0  0  0  0  0  0  0  0  0  0  0
  -32.3040   13.3480  -21.3370 C   0  0  0  0  0  0  0  0  0  0  0  0
  -33.3930   12.9350  -20.3450 C   0  0  0  0  0  0  0  0  0  0  0  0
  -32.7880   12.8030  -18.9460 C   0  0  2  0  0  0  0  0  0  0  0  0
  -31.7090   11.7150  -18.9600 C   0  0  0  0  0  0  0  0  0  0  0  0
  -29.0290   11.9060  -18.5960 O   0  0  0  0  0  0  0  0  0  0  0  0
  -28.5350   12.3930  -20.7040 O   0  0  0  0  0  0  0  0  0  0  0  0
  -28.4370   14.5340  -19.5470 C   0  0  0  0  0  0  0  0  0  0  0  0
  -27.7410   13.5960  -20.5360 C   0  0  0  0  0  0  0  0  0  0  0  0
  -27.5870   14.3000  -21.8850 C   0  0  0  0  0  0  0  0  0  0  0  0
  -26.3580   13.2220  -19.9960 C   0  0  0  0  0  0  0  0  0  0  0  0
  -33.8840   12.4220  -17.9480 C   0  0  0  0  0  0  0  0  0  0  0  0
  -33.2630   12.2000  -16.5670 C   0  0  1  0  0  0  0  0  0  0  0  0
  -32.3290   13.3020  -16.2800 N   0  0  0  0  0  0  0  0  0  0  0  0
  -31.8430   13.5670  -17.1370 H   0  0  0  0  0  0  0  0  0  0  0  0
  -32.8490   14.1040  -15.9220 H   0  0  0  0  0  0  0  0  0  0  0  0
  -31.6480   12.9990  -15.5830 H   0  0  0  0  0  0  0  0  0  0  0  0
  -34.3530   12.1480  -15.5290 C   0  0  0  0  0  0  0  0  0  0  0  0
  -34.6900   10.9770  -14.9660 O   0  0  0  0  0  0  0  0  0  0  0  0
  -34.9250   13.1620  -15.2020 O   0  0  0  0  0  0  0  0  0  0  0  0
  1  8  2  0  0  0  0
  2  1  1  0  0  0  0
  2  7  1  0  0  0  0
  3  4  1  0  0  0  0
  3  2  1  0  0  0  0
  4  5  1  0  0  0  0
  5  6  1  0  0  0  0
  6 14  1  1  0  0  0
  7  6  1  0  0  0  0
  9 11  1  0  0  0  0
  9  1  1  0  0  0  0
 11 13  1  0  0  0  0
 11 10  1  0  0  0  0
 12 11  1  0  0  0  0
 15 14  1  6  0  0  0
 15 16  1  0  0  0  0
 15 20  1  0  0  0  0
 16 18  1  0  0  0  0
 16 19  1  0  0  0  0
 17 16  1  0  0  0  0
 20 22  2  0  0  0  0
 20 21  1  0  0  0  0
M  END
>  <MODEL>
1

>  <REMARK>
 VINA RESULT:      -5.4      0.000      0.000
  Name = ZINC16697325
                            x       y       z     vdW  Elec       q    Type
                         _______ _______ _______ _____ _____    ______ ____

>  <TORSDO>
F 6

>  <vina_score>
-5.4

$$$$
ZINC27469748
 OpenBabel01081722213D

 26 27  0  0  0  0  0  0  0  0999 V2000
  -28.4020   14.1710  -18.3710 C   0  0  0  0  0  0  0  0  0  0  0  0
  -29.2050   13.1480  -18.0200 N   0  0  0  0  0  0  0  0  0  0  0  0
  -30.2080   13.3050  -16.9540 C   0  0  0  0  0  0  0  0  0  0  0  0
  -31.5630   12.8270  -17.4870 C   0  0  0  0  0  0  0  0  0  0  0  0
  -31.4260   11.4630  -18.0130 N   0  0  0  0  0  0  0  0  0  0  0  0
  -31.0300   10.8830  -17.2730 H   0  0  0  0  0  0  0  0  0  0  0  0
  -30.5020   11.4220  -19.1540 C   0  0  0  0  0  0  0  0  0  0  0  0
  -29.1030   11.8420  -18.6910 C   0  0  0  0  0  0  0  0  0  0  0  0
  -28.5760   15.2740  -17.8900 O   0  0  0  0  0  0  0  0  0  0  0  0
  -26.1850   13.0180  -19.2140 C   0  0  0  0  0  0  0  0  0  0  0  0
  -25.4560   13.1670  -20.3300 C   0  0  0  0  0  0  0  0  0  0  0  0
  -26.0310   14.0960  -21.1100 O   0  0  0  0  0  0  0  0  0  0  0  0
  -27.1420   14.5740  -20.5420 C   0  0  0  0  0  0  0  0  0  0  0  0
  -27.3130   13.9530  -19.3390 C   0  0  0  0  0  0  0  0  0  0  0  0
  -32.7350   10.9050  -18.3740 C   0  0  0  0  0  0  0  0  0  0  0  0
  -33.6340   12.0200  -18.9130 C   0  0  0  0  0  0  0  0  0  0  0  0
  -33.5700   12.0260  -20.7260 S   0  0  0  0  0  0  0  0  0  0  0  0
  -34.8930   12.1850  -21.2210 O   0  0  0  0  0  0  0  0  0  0  0  0
  -32.8010   10.9100  -21.1520 O   0  0  0  0  0  0  0  0  0  0  0  0
  -32.6370   13.5390  -21.0890 C   0  0  0  0  0  0  0  0  0  0  0  0
  -32.6200   14.4360  -19.8500 C   0  0  0  0  0  0  0  0  0  0  0  0
  -31.8670   15.7050  -20.1590 C   0  0  0  0  0  0  0  0  0  0  0  0
  -30.5390   15.6630  -20.3860 N   0  0  0  0  0  0  0  0  0  0  0  0
  -30.0480   16.4920  -20.5870 H   0  0  0  0  0  0  0  0  0  0  0  0
  -30.0610   14.8030  -20.3490 H   0  0  0  0  0  0  0  0  0  0  0  0
  -32.4570   16.7640  -20.2040 O   0  0  0  0  0  0  0  0  0  0  0  0
  1  2  1  0  0  0  0
  1  9  2  0  0  0  0
  2  3  1  0  0  0  0
  4  3  1  0  0  0  0
  5  4  1  0  0  0  0
  5  6  1  0  0  0  0
  7  8  1  0  0  0  0
  7  5  1  0  0  0  0
  8  2  1  0  0  0  0
 11 10  2  0  0  0  0
 12 13  1  0  0  0  0
 12 11  1  0  0  0  0
 13 14  2  0  0  0  0
 14 10  1  0  0  0  0
 14  1  1  0  0  0  0
 15  5  1  0  0  0  0
 16 15  1  0  0  0  0
 17 16  1  0  0  0  0
 18 17  2  0  0  0  0
 19 17  2  0  0  0  0
 20 17  1  0  0  0  0
 20 21  1  0  0  0  0
 22 21  1  0  0  0  0
 23 25  1  0  0  0  0
 23 22  1  0  0  0  0
 24 23  1  0  0  0  0
 26 22  2  0  0  0  0
M  END
>  <MODEL>
1

>  <REMARK>
 VINA RESULT:      -5.4      0.000      0.000
  Name = ZINC27469748
                            x       y       z     vdW  Elec       q    Type
                         _______ _______ _______ _____ _____    ______ ____

>  <TORSDO>
F 7

>  <vina_score>
-5.4

$$$$
ZINC31381385
 OpenBabel01081722273D

 27 28  0  0  1  0  0  0  0  0999 V2000
  -30.4760   13.2150  -20.9800 N   0  0  0  0  0  0  0  0  0  0  0  0
  -30.6440   13.8350  -20.2340 H   0  0  0  0  0  0  0  0  0  0  0  0
  -31.5090   12.7230  -21.6920 C   0  0  0  0  0  0  0  0  0  0  0  0
  -31.3020   11.9590  -22.6120 O   0  0  0  0  0  0  0  0  0  0  0  0
  -29.1040   12.8280  -21.3160 C   0  0  0  0  0  0  0  0  0  0  0  0
  -28.1680   13.2240  -20.1730 C   0  0  1  0  0  0  0  0  0  0  0  0
  -27.0210   14.0750  -20.7230 C   0  0  0  0  0  0  0  0  0  0  0  0
  -27.3180   14.4520  -22.1760 C   0  0  0  0  0  0  0  0  0  0  0  0
  -25.7170   13.2770  -20.6590 C   0  0  0  0  0  0  0  0  0  0  0  0
  -28.9170   13.9980  -19.1740 N   0  0  0  0  0  0  0  0  0  0  0  0
  -29.9100   13.8250  -19.3230 H   0  0  0  0  0  0  0  0  0  0  0  0
  -28.6790   14.7510  -16.8560 C   0  0  0  0  0  0  0  0  0  0  0  0
  -28.5830   13.5610  -17.8110 C   0  0  0  0  0  0  0  0  0  0  0  0
  -28.6780   15.4380  -19.3370 C   0  0  0  0  0  0  0  0  0  0  0  0
  -29.9560   16.1120  -19.8410 C   0  0  0  0  0  0  0  0  0  0  0  0
  -32.9210   13.1160  -21.3430 C   0  0  0  0  0  0  0  0  0  0  0  0
  -33.3060   12.4820  -20.0790 N   0  0  0  0  0  0  0  0  0  0  0  0
  -32.8710   12.8800  -18.8680 C   0  0  0  0  0  0  0  0  0  0  0  0
  -33.5220   11.9450  -17.8700 C   0  0  1  0  0  0  0  0  0  0  0  0
  -34.4190   12.7250  -16.9070 C   0  0  0  0  0  0  0  0  0  0  0  0
  -34.3250   11.0430  -18.7130 N   0  0  0  0  0  0  0  0  0  0  0  0
  -32.1150   13.7970  -18.6270 O   0  0  0  0  0  0  0  0  0  0  0  0
  -34.1370   11.4370  -19.9860 C   0  0  0  0  0  0  0  0  0  0  0  0
  -34.6620   10.9040  -20.9430 O   0  0  0  0  0  0  0  0  0  0  0  0
  -32.4620   11.1580  -17.0970 C   0  0  0  0  0  0  0  0  0  0  0  0
  -31.1840   11.8960  -16.6980 C   0  0  0  0  0  0  0  0  0  0  0  0
  -31.1470   10.8500  -17.8150 C   0  0  0  0  0  0  0  0  0  0  0  0
  1  2  1  0  0  0  0
  3 16  1  0  0  0  0
  3  1  1  0  0  0  0
  4  3  2  0  0  0  0
  5  1  1  0  0  0  0
  6  5  1  6  0  0  0
  6 10  1  0  0  0  0
  7  9  1  0  0  0  0
  7  6  1  0  0  0  0
  8  7  1  0  0  0  0
 10 13  1  0  0  0  0
 11 10  1  0  0  0  0
 13 12  1  0  0  0  0
 14 10  1  0  0  0  0
 15 14  1  0  0  0  0
 16 17  1  0  0  0  0
 17 23  1  0  0  0  0
 17 18  1  0  0  0  0
 18 22  2  0  0  0  0
 18 19  1  0  0  0  0
 19 25  1  1  0  0  0
 19 20  1  0  0  0  0
 21 19  1  0  0  0  0
 23 21  1  0  0  0  0
 24 23  2  0  0  0  0
 25 26  1  0  0  0  0
 27 25  1  0  0  0  0
 27 26  1  0  0  0  0
M  END
>  <MODEL>
1

>  <REMARK>
 VINA RESULT:      -5.4      0.000      0.000
  Name = ZINC31381385
                            x       y       z     vdW  Elec       q    Type
                         _______ _______ _______ _____ _____    ______ ____

>  <TORSDO>
F 9

>  <vina_score>
-5.4

$$$$
ZINC06509720
 OpenBabel01081722273D

 26 27  0  0  0  0  0  0  0  0999 V2000
  -32.4480   12.1910  -17.9490 C   0  0  0  0  0  0  0  0  0  0  0  0
  -31.5530   13.2210  -18.2890 C   0  0  0  0  0  0  0  0  0  0  0  0
  -31.5640   13.7110  -19.5640 N   0  0  0  0  0  0  0  0  0  0  0  0
  -32.4090   13.2290  -20.4880 C   0  0  0  0  0  0  0  0  0  0  0  0
  -33.2860   12.2460  -20.2210 N   0  0  0  0  0  0  0  0  0  0  0  0
  -34.1790   11.7670  -21.2790 C   0  0  0  0  0  0  0  0  0  0  0  0
  -32.3800   13.6980  -21.6090 O   0  0  0  0  0  0  0  0  0  0  0  0
  -33.3520   11.6950  -18.9920 C   0  0  0  0  0  0  0  0  0  0  0  0
  -34.1470   10.8040  -18.7530 O   0  0  0  0  0  0  0  0  0  0  0  0
  -30.6860   13.7180  -17.3660 N   0  0  0  0  0  0  0  0  0  0  0  0
  -31.0290   14.1530  -16.5520 H   0  0  0  0  0  0  0  0  0  0  0  0
  -29.7150   13.6420  -17.5120 H   0  0  0  0  0  0  0  0  0  0  0  0
  -32.4730   11.6510  -16.6440 C   0  0  0  0  0  0  0  0  0  0  0  0
  -31.5840   10.9100  -16.2760 O   0  0  0  0  0  0  0  0  0  0  0  0
  -33.6030   11.9960  -15.7080 C   0  0  0  0  0  0  0  0  0  0  0  0
  -35.0510   10.8210  -14.1640 C   0  0  0  0  0  0  0  0  0  0  0  0
  -34.4470   10.8030  -15.5100 N   0  0  0  0  0  0  0  0  0  0  0  0
  -33.8680    9.9680  -15.6020 H   0  0  0  0  0  0  0  0  0  0  0  0
  -35.1880   10.7930  -16.2110 H   0  0  0  0  0  0  0  0  0  0  0  0
  -30.6370   14.7840  -19.9290 C   0  0  0  0  0  0  0  0  0  0  0  0
  -29.2670   14.2040  -20.1670 C   0  0  0  0  0  0  0  0  0  0  0  0
  -28.2040   14.5930  -19.3720 C   0  0  0  0  0  0  0  0  0  0  0  0
  -26.9480   14.0570  -19.5870 C   0  0  0  0  0  0  0  0  0  0  0  0
  -26.7520   13.1410  -20.6030 C   0  0  0  0  0  0  0  0  0  0  0  0
  -27.8130   12.7580  -21.4020 C   0  0  0  0  0  0  0  0  0  0  0  0
  -29.0700   13.2890  -21.1840 C   0  0  0  0  0  0  0  0  0  0  0  0
  1 13  1  0  0  0  0
  2  1  2  0  0  0  0
  2 10  1  0  0  0  0
  3  2  1  0  0  0  0
  4  5  1  0  0  0  0
  4  3  1  0  0  0  0
  5  8  1  0  0  0  0
  6  5  1  0  0  0  0
  7  4  2  0  0  0  0
  8  9  2  0  0  0  0
  8  1  1  0  0  0  0
 10 11  1  0  0  0  0
 12 10  1  0  0  0  0
 13 14  2  0  0  0  0
 13 15  1  0  0  0  0
 15 17  1  0  0  0  0
 17 16  1  0  0  0  0
 18 17  1  0  0  0  0
 19 17  1  0  0  0  0
 20  3  1  0  0  0  0
 21 20  1  0  0  0  0
 21 22  2  0  0  0  0
 23 22  1  0  0  0  0
 24 23  2  0  0  0  0
 25 26  2  0  0  0  0
 25 24  1  0  0  0  0
 26 21  1  0  0  0  0
M  END
>  <MODEL>
1

>  <REMARK>
 VINA RESULT:      -5.4      0.000      0.000
  Name = ZINC06509720
                            x       y       z     vdW  Elec       q    Type
                         _______ _______ _______ _____ _____    ______ ____

>  <TORSDO>
F 6

>  <vina_score>
-5.4

$$$$
ZINC04802570
 OpenBabel01081722283D

 23 24  0  0  1  0  0  0  0  0999 V2000
  -27.8770   13.1390  -22.3410 C   0  0  0  0  0  0  0  0  0  0  0  0
  -27.6330   13.6580  -20.9220 C   0  0  0  0  0  0  0  0  0  0  0  0
  -26.1810   14.1220  -20.7830 C   0  0  0  0  0  0  0  0  0  0  0  0
  -27.9110   12.6000  -19.9530 O   0  0  0  0  0  0  0  0  0  0  0  0
  -29.2520   12.8590  -19.6230 C   0  0  1  0  0  0  0  0  0  0  0  0
  -29.9540   12.5010  -18.3430 C   0  0  1  0  0  0  0  0  0  0  0  0
  -30.8260   13.6260  -18.0500 O   0  0  0  0  0  0  0  0  0  0  0  0
  -30.5630   14.6930  -19.0070 C   0  0  1  0  0  0  0  0  0  0  0  0
  -29.1370   14.4250  -19.4260 C   0  0  2  0  0  0  0  0  0  0  0  0
  -28.5350   14.7670  -20.6410 O   0  0  0  0  0  0  0  0  0  0  0  0
  -31.4450   14.6000  -20.1270 O   0  0  0  0  0  0  0  0  0  0  0  0
  -32.2230   15.7780  -20.3540 C   0  0  0  0  0  0  0  0  0  0  0  0
  -30.7790   11.2260  -18.5310 C   0  0  0  0  0  0  0  0  0  0  0  0
  -32.1310   11.6030  -18.9970 N   0  0  0  0  0  0  0  0  0  0  0  0
  -32.1730   12.6150  -19.1090 H   0  0  0  0  0  0  0  0  0  0  0  0
  -33.1420   11.1880  -18.0010 C   0  0  0  0  0  0  0  0  0  0  0  0
  -33.6010   12.4260  -17.2260 C   0  0  0  0  0  0  0  0  0  0  0  0
  -33.7200   13.5320  -18.1230 O   0  0  0  0  0  0  0  0  0  0  0  0
  -32.8360   13.8440  -18.3690 H   0  0  0  0  0  0  0  0  0  0  0  0
  -32.4150   10.9630  -20.2990 C   0  0  0  0  0  0  0  0  0  0  0  0
  -33.8300   11.3460  -20.7360 C   0  0  0  0  0  0  0  0  0  0  0  0
  -33.8710   12.7390  -21.0500 O   0  0  0  0  0  0  0  0  0  0  0  0
  -34.7890   13.0510  -21.0190 H   0  0  0  0  0  0  0  0  0  0  0  0
  1  2  1  0  0  0  0
  2  3  1  0  0  0  0
  2 10  1  0  0  0  0
  2  4  1  0  0  0  0
  5  4  1  1  0  0  0
  5  9  1  0  0  0  0
  5  6  1  0  0  0  0
  6 13  1  6  0  0  0
  6  7  1  0  0  0  0
  8 11  1  6  0  0  0
  8  7  1  0  0  0  0
  9 10  1  6  0  0  0
  9  8  1  0  0  0  0
 12 11  1  0  0  0  0
 14 13  1  0  0  0  0
 14 16  1  0  0  0  0
 15 14  1  0  0  0  0
 16 17  1  0  0  0  0
 18 17  1  0  0  0  0
 19 18  1  0  0  0  0
 20 14  1  0  0  0  0
 21 20  1  0  0  0  0
 22 23  1  0  0  0  0
 22 21  1  0  0  0  0
M  END
>  <MODEL>
1

>  <REMARK>
 VINA RESULT:      -5.4      0.000      0.000
  Name = ZINC04802570
                            x       y       z     vdW  Elec       q    Type
                         _______ _______ _______ _____ _____    ______ ____

>  <TORSDO>
F 9

>  <vina_score>
-5.4

$$$$
ZINC22843212
 OpenBabel01081722073D

 30 31  0  0  1  0  0  0  0  0999 V2000
  -31.9410   11.5420  -21.5200 N   0  0  0  0  0  0  0  0  0  0  0  0
  -32.0340   11.6380  -22.5300 H   0  0  0  0  0  0  0  0  0  0  0  0
  -30.7000   10.8030  -21.2470 C   0  0  0  0  0  0  0  0  0  0  0  0
  -29.5150   11.5660  -21.8440 C   0  0  0  0  0  0  0  0  0  0  0  0
  -29.4600   12.9140  -21.2630 N   0  0  0  0  0  0  0  0  0  0  0  0
  -29.3660   12.8180  -20.2510 H   0  0  0  0  0  0  0  0  0  0  0  0
  -30.7010   13.6520  -21.5340 C   0  0  0  0  0  0  0  0  0  0  0  0
  -31.8860   12.8900  -20.9380 C   0  0  0  0  0  0  0  0  0  0  0  0
  -33.1110   10.8030  -21.0270 C   0  0  0  0  0  0  0  0  0  0  0  0
  -32.8960   11.3200  -18.6170 N   0  0  0  0  0  0  0  0  0  0  0  0
  -32.0500   10.8160  -18.6170 H   0  0  0  0  0  0  0  0  0  0  0  0
  -33.6090   11.4420  -19.7550 C   0  0  0  0  0  0  0  0  0  0  0  0
  -34.6500   12.0620  -19.7550 O   0  0  0  0  0  0  0  0  0  0  0  0
  -34.8470   12.1190  -14.0990 C   0  0  0  0  0  0  0  0  0  0  0  0
  -34.2130   12.2530  -15.4600 C   0  0  0  0  0  0  0  0  0  0  0  0
  -33.9550   11.2530  -16.3330 C   0  0  0  0  0  0  0  0  0  0  0  0
  -33.3570   11.9110  -17.4400 C   0  0  0  0  0  0  0  0  0  0  0  0
  -33.3280   13.1820  -17.1370 N   0  0  0  0  0  0  0  0  0  0  0  0
  -33.7960   13.3870  -16.0410 O   0  0  0  0  0  0  0  0  0  0  0  0
  -28.2890   13.6530  -21.7540 C   0  0  0  0  0  0  0  0  0  0  0  0
  -27.2020   13.6230  -20.7110 C   0  0  0  0  0  0  0  0  0  0  0  0
  -26.2840   12.8450  -20.8180 O   0  0  0  0  0  0  0  0  0  0  0  0
  -27.2590   14.5650  -19.5360 C   0  0  2  0  0  0  0  0  0  0  0  0
  -27.2240   13.7710  -18.2550 C   0  0  1  0  0  0  0  0  0  0  0  0
  -28.4310   13.7410  -17.3520 C   0  0  0  0  0  0  0  0  0  0  0  0
  -26.1690   13.1220  -17.9340 N   0  0  0  0  0  0  0  0  0  0  0  0
  -26.1450   12.6040  -17.0980 H   0  0  0  0  0  0  0  0  0  0  0  0
  -25.3810   13.1420  -18.5240 H   0  0  0  0  0  0  0  0  0  0  0  0
  -28.5050   15.3460  -19.5940 C   0  0  0  0  0  0  0  0  0  0  0  0
  -29.4670   15.9490  -19.6400 N   0  0  0  0  0  0  0  0  0  0  0  0
  1  3  1  0  0  0  0
  1  9  1  0  0  0  0
  1  8  1  0  0  0  0
  2  1  1  0  0  0  0
  4  5  1  0  0  0  0
  4  3  1  0  0  0  0
  5  6  1  0  0  0  0
  7  5  1  0  0  0  0
  7  8  1  0  0  0  0
  9 12  1  0  0  0  0
 10 17  1  0  0  0  0
 11 10  1  0  0  0  0
 12 13  2  0  0  0  0
 12 10  1  0  0  0  0
 15 14  1  0  0  0  0
 16 15  2  0  0  0  0
 17 18  2  0  0  0  0
 17 16  1  0  0  0  0
 18 19  1  0  0  0  0
 19 15  1  0  0  0  0
 20  5  1  0  0  0  0
 20 21  1  0  0  0  0
 22 21  2  0  0  0  0
 23 21  1  6  0  0  0
 23 24  1  0  0  0  0
 24 26  1  6  0  0  0
 24 25  1  0  0  0  0
 26 27  1  0  0  0  0
 28 26  1  0  0  0  0
 29 23  1  0  0  0  0
 30 29  3  0  0  0  0
M  END
>  <MODEL>
1

>  <REMARK>
 VINA RESULT:      -5.4      0.000      0.000
  Name = ZINC22843212
                            x       y       z     vdW  Elec       q    Type
                         _______ _______ _______ _____ _____    ______ ____

>  <TORSDO>
F 8

>  <vina_score>
-5.4

$$$$
ZINC06444932
 OpenBabel01081722103D

 33 35  0  0  1  0  0  0  0  0999 V2000
  -28.5270   13.9310  -16.6960 C   0  0  0  0  0  0  0  0  0  0  0  0
  -29.5710   14.2380  -17.6780 N   0  0  0  0  0  0  0  0  0  0  0  0
  -30.7340   13.4870  -17.7080 C   0  0  0  0  0  0  0  0  0  0  0  0
  -31.7080   13.7990  -18.6500 C   0  0  0  0  0  0  0  0  0  0  0  0
  -32.7460   12.8980  -18.4540 N   0  0  0  0  0  0  0  0  0  0  0  0
  -32.3740   12.0910  -17.4250 C   0  0  0  0  0  0  0  0  0  0  0  0
  -31.4860   14.8650  -19.5400 C   0  0  0  0  0  0  0  0  0  0  0  0
  -30.3330   15.5610  -19.4620 N   0  0  0  0  0  0  0  0  0  0  0  0
  -30.0970   16.6720  -20.3870 C   0  0  0  0  0  0  0  0  0  0  0  0
  -32.3260   15.1570  -20.3740 O   0  0  0  0  0  0  0  0  0  0  0  0
  -31.1820   12.4510  -16.9960 N   0  0  0  0  0  0  0  0  0  0  0  0
  -29.3950   15.2460  -18.5510 C   0  0  0  0  0  0  0  0  0  0  0  0
  -28.3660   15.8920  -18.5140 O   0  0  0  0  0  0  0  0  0  0  0  0
  -33.1250   11.0570  -16.9130 N   0  0  0  0  0  0  0  0  0  0  0  0
  -33.2010   10.2110  -17.4110 H   0  0  0  0  0  0  0  0  0  0  0  0
  -33.8120   11.2160  -15.6290 C   0  0  0  0  0  0  0  0  0  0  0  0
  -34.2790   12.6640  -15.4770 C   0  0  0  0  0  0  0  0  0  0  0  0
  -35.2600   12.7420  -14.4400 O   0  0  0  0  0  0  0  0  0  0  0  0
  -36.1470   12.6820  -14.8300 H   0  0  0  0  0  0  0  0  0  0  0  0
  -34.0000   12.8310  -19.2090 C   0  0  0  0  0  0  0  0  0  0  0  0
  -33.7020   12.4520  -20.6600 C   0  0  2  0  0  0  0  0  0  0  0  0
  -34.8640   12.6790  -21.4600 O   0  0  0  0  0  0  0  0  0  0  0  0
  -34.8570   12.0740  -22.2180 H   0  0  0  0  0  0  0  0  0  0  0  0
  -33.3140   10.9730  -20.7320 C   0  0  0  0  0  0  0  0  0  0  0  0
  -32.2400   10.8070  -21.6600 O   0  0  0  0  0  0  0  0  0  0  0  0
  -31.0440   11.3610  -21.3250 C   0  0  0  0  0  0  0  0  0  0  0  0
  -30.4160   10.9950  -20.1440 C   0  0  0  0  0  0  0  0  0  0  0  0
  -29.2000   11.5530  -19.8070 C   0  0  0  0  0  0  0  0  0  0  0  0
  -28.6090   12.4890  -20.6440 C   0  0  0  0  0  0  0  0  0  0  0  0
  -29.2400   12.8590  -21.8230 C   0  0  0  0  0  0  0  0  0  0  0  0
  -30.4550   12.2970  -22.1620 C   0  0  0  0  0  0  0  0  0  0  0  0
  -27.4130   13.0420  -20.3080 O   0  0  0  0  0  0  0  0  0  0  0  0
  -26.9510   14.1270  -21.1160 C   0  0  0  0  0  0  0  0  0  0  0  0
  2  1  1  0  0  0  0
  3  2  1  0  0  0  0
  3 11  1  0  0  0  0
  4  5  1  0  0  0  0
  4  3  2  0  0  0  0
  5  6  1  0  0  0  0
  6 11  2  0  0  0  0
  6 14  1  0  0  0  0
  7  8  1  0  0  0  0
  7  4  1  0  0  0  0
  8 12  1  0  0  0  0
  9  8  1  0  0  0  0
 10  7  2  0  0  0  0
 12 13  2  0  0  0  0
 12  2  1  0  0  0  0
 14 16  1  0  0  0  0
 15 14  1  0  0  0  0
 16 17  1  0  0  0  0
 17 18  1  0  0  0  0
 19 18  1  0  0  0  0
 20  5  1  0  0  0  0
 21 22  1  6  0  0  0
 21 20  1  0  0  0  0
 23 22  1  0  0  0  0
 24 21  1  0  0  0  0
 25 26  1  0  0  0  0
 25 24  1  0  0  0  0
 26 27  2  0  0  0  0
 27 28  1  0  0  0  0
 29 32  1  0  0  0  0
 29 28  2  0  0  0  0
 30 29  1  0  0  0  0
 31 30  2  0  0  0  0
 31 26  1  0  0  0  0
 33 32  1  0  0  0  0
M  END
>  <MODEL>
1

>  <REMARK>
 VINA RESULT:      -5.4      0.000      0.000
  Name = ZINC06444932
                            x       y       z     vdW  Elec       q    Type
                         _______ _______ _______ _____ _____    ______ ____

>  <TORSDO>
F 11

>  <vina_score>
-5.4

$$$$
ZINC13282339
 OpenBabel01081722113D

 19 19  0  0  1  0  0  0  0  0999 V2000
  -32.3120   13.3620  -20.9140 C   0  0  2  0  0  0  0  0  0  0  0  0
  -32.7630   14.2430  -21.9450 O   0  0  0  0  0  0  0  0  0  0  0  0
  -33.2480   14.9830  -21.5470 H   0  0  0  0  0  0  0  0  0  0  0  0
  -32.0000   14.1700  -19.6520 C   0  0  0  0  0  0  0  0  0  0  0  0
  -32.9620   12.0490  -16.9000 C   0  0  0  0  0  0  0  0  0  0  0  0
  -33.2930   12.7710  -17.9880 C   0  0  0  0  0  0  0  0  0  0  0  0
  -32.1320   13.3090  -18.4760 N   0  0  0  0  0  0  0  0  0  0  0  0
  -31.1310   12.8900  -17.6720 C   0  0  0  0  0  0  0  0  0  0  0  0
  -31.6350   12.1420  -16.7290 N   0  0  0  0  0  0  0  0  0  0  0  0
  -29.6980   13.2280  -17.8310 N   0  0  0  0  0  0  0  0  0  0  0  0
  -29.3020   14.3470  -17.5600 O   0  0  0  0  0  0  0  0  0  0  0  0
  -28.9150   12.3850  -18.2340 O   0  0  0  0  0  0  0  0  0  0  0  0
  -31.0480   12.6350  -21.3800 C   0  0  0  0  0  0  0  0  0  0  0  0
  -29.8800   13.5120  -21.1690 N   0  0  0  0  0  0  0  0  0  0  0  0
  -29.9990   14.3600  -21.7210 H   0  0  0  0  0  0  0  0  0  0  0  0
  -29.8090   13.7450  -20.1790 H   0  0  0  0  0  0  0  0  0  0  0  0
  -28.6450   12.8290  -21.5980 C   0  0  0  0  0  0  0  0  0  0  0  0
  -27.4700   13.8020  -21.4820 C   0  0  0  0  0  0  0  0  0  0  0  0
  -26.0780   13.0160  -20.3370 Br  0  0  0  0  0  0  0  0  0  0  0  0
  1  2  1  6  0  0  0
  1  4  1  0  0  0  0
  2  3  1  0  0  0  0
  4  7  1  0  0  0  0
  5  9  1  0  0  0  0
  6  5  2  0  0  0  0
  7  6  1  0  0  0  0
  7  8  1  0  0  0  0
  8  9  2  0  0  0  0
 10  8  1  0  0  0  0
 10 11  2  0  0  0  0
 12 10  2  0  0  0  0
 13 14  1  0  0  0  0
 13  1  1  0  0  0  0
 14 16  1  0  0  0  0
 15 14  1  0  0  0  0
 17 18  1  0  0  0  0
 17 14  1  0  0  0  0
 18 19  1  0  0  0  0
M  END
>  <MODEL>
1

>  <REMARK>
 VINA RESULT:      -5.4      0.000      0.000
  Name = ZINC13282339
                            x       y       z     vdW  Elec       q    Type
                         _______ _______ _______ _____ _____    ______ ____

>  <TORSDO>
F 8

>  <vina_score>
-5.4

$$$$
ZINC01535960
 OpenBabel01081722133D

 19 19  0  0  1  0  0  0  0  0999 V2000
  -29.2360   14.3800  -18.2670 C   0  0  1  0  0  0  0  0  0  0  0  0
  -29.5680   15.5230  -19.0570 O   0  0  0  0  0  0  0  0  0  0  0  0
  -28.7640   16.0300  -19.2480 H   0  0  0  0  0  0  0  0  0  0  0  0
  -29.9520   13.1490  -18.8250 C   0  0  0  0  0  0  0  0  0  0  0  0
  -33.0260   12.7430  -16.9870 C   0  0  0  0  0  0  0  0  0  0  0  0
  -31.6910   12.5950  -17.0740 C   0  0  0  0  0  0  0  0  0  0  0  0
  -31.3140   13.0940  -18.2920 N   0  0  0  0  0  0  0  0  0  0  0  0
  -32.4350   13.5300  -18.9080 C   0  0  0  0  0  0  0  0  0  0  0  0
  -33.4540   13.3160  -18.1220 N   0  0  0  0  0  0  0  0  0  0  0  0
  -32.4950   14.1470  -20.2520 N   0  0  0  0  0  0  0  0  0  0  0  0
  -32.7340   13.4580  -21.2280 O   0  0  0  0  0  0  0  0  0  0  0  0
  -32.3060   15.3420  -20.3820 O   0  0  0  0  0  0  0  0  0  0  0  0
  -27.7220   14.1530  -18.3100 C   0  0  0  0  0  0  0  0  0  0  0  0
  -27.1350   15.0090  -19.3590 N   0  0  0  0  0  0  0  0  0  0  0  0
  -27.8650   15.6080  -19.7450 H   0  0  0  0  0  0  0  0  0  0  0  0
  -26.3930   15.5790  -18.9520 H   0  0  0  0  0  0  0  0  0  0  0  0
  -26.5730   14.1790  -20.4400 C   0  0  0  0  0  0  0  0  0  0  0  0
  -27.4670   14.2940  -21.6770 C   0  0  0  0  0  0  0  0  0  0  0  0
  -28.3000   12.5520  -22.0460 Br  0  0  0  0  0  0  0  0  0  0  0  0
  1  2  1  6  0  0  0
  3  2  1  0  0  0  0
  4  7  1  0  0  0  0
  4  1  1  0  0  0  0
  6  5  2  0  0  0  0
  7  6  1  0  0  0  0
  8  7  1  0  0  0  0
  8  9  2  0  0  0  0
  9  5  1  0  0  0  0
 10  8  1  0  0  0  0
 11 10  2  0  0  0  0
 12 10  2  0  0  0  0
 13  1  1  0  0  0  0
 14 16  1  0  0  0  0
 14 13  1  0  0  0  0
 15 14  1  0  0  0  0
 17 14  1  0  0  0  0
 18 17  1  0  0  0  0
 19 18  1  0  0  0  0
M  END
>  <MODEL>
1

>  <REMARK>
 VINA RESULT:      -5.4      0.000      0.000
  Name = ZINC01535960
                            x       y       z     vdW  Elec       q    Type
                         _______ _______ _______ _____ _____    ______ ____

>  <TORSDO>
F 8

>  <vina_score>
-5.4

$$$$
ZINC02538358
 OpenBabel01081722133D

 21 21  0  0  1  0  0  0  0  0999 V2000
  -31.2550   10.8160  -18.8430 C   0  0  0  0  0  0  0  0  0  0  0  0
  -29.0760   13.6090  -18.6820 C   0  0  0  0  0  0  0  0  0  0  0  0
  -29.7550   13.7710  -17.4510 C   0  0  0  0  0  0  0  0  0  0  0  0
  -30.6330   12.7440  -17.3840 C   0  0  0  0  0  0  0  0  0  0  0  0
  -30.4870   12.0200  -18.5150 N   0  0  0  0  0  0  0  0  0  0  0  0
  -29.5750   12.5350  -19.2580 N   0  0  0  0  0  0  0  0  0  0  0  0
  -28.0100   14.4790  -19.2190 C   0  0  0  0  0  0  0  0  0  0  0  0
  -27.4220   15.2450  -18.4810 O   0  0  0  0  0  0  0  0  0  0  0  0
  -27.6900   14.4240  -20.5260 O   0  0  0  0  0  0  0  0  0  0  0  0
  -25.8000   12.8970  -20.3500 C   0  0  0  0  0  0  0  0  0  0  0  0
  -26.2850   14.2580  -20.8540 C   0  0  0  0  0  0  0  0  0  0  0  0
  -31.6330   10.8030  -20.6180 S   0  0  0  0  0  0  0  0  0  0  0  0
  -33.0090   11.9740  -20.7820 C   0  0  0  0  0  0  0  0  0  0  0  0
  -32.4780   13.3130  -21.2970 C   0  0  2  0  0  0  0  0  0  0  0  0
  -31.1090   13.1220  -21.8060 N   0  0  0  0  0  0  0  0  0  0  0  0
  -30.7560   12.2160  -21.5010 H   0  0  0  0  0  0  0  0  0  0  0  0
  -31.1170   13.1590  -22.8260 H   0  0  0  0  0  0  0  0  0  0  0  0
  -30.5060   13.8610  -21.4450 H   0  0  0  0  0  0  0  0  0  0  0  0
  -32.4870   14.3210  -20.1770 C   0  0  0  0  0  0  0  0  0  0  0  0
  -31.8170   15.4770  -20.3080 O   0  0  0  0  0  0  0  0  0  0  0  0
  -33.0960   14.0890  -19.1590 O   0  0  0  0  0  0  0  0  0  0  0  0
  1  5  1  0  0  0  0
  2  3  1  0  0  0  0
  3  4  2  0  0  0  0
  5  4  1  0  0  0  0
  6  2  2  0  0  0  0
  6  5  1  0  0  0  0
  7  2  1  0  0  0  0
  7  8  2  0  0  0  0
  9  7  1  0  0  0  0
 11  9  1  0  0  0  0
 11 10  1  0  0  0  0
 12  1  1  0  0  0  0
 13 12  1  0  0  0  0
 14 15  1  1  0  0  0
 14 13  1  0  0  0  0
 14 19  1  0  0  0  0
 15 16  1  0  0  0  0
 15 18  1  0  0  0  0
 17 15  1  0  0  0  0
 19 21  1  0  0  0  0
 20 19  2  0  0  0  0
M  END
>  <MODEL>
1

>  <REMARK>
 VINA RESULT:      -5.3      0.000      0.000
  Name = ZINC02538358
                            x       y       z     vdW  Elec       q    Type
                         _______ _______ _______ _____ _____    ______ ____

>  <TORSDO>
F 9

>  <vina_score>
-5.3

$$$$
ZINC19848534
 OpenBabel01081722043D

 29 31  0  0  0  0  0  0  0  0999 V2000
  -29.4910   12.4370  -22.1250 C   0  0  0  0  0  0  0  0  0  0  0  0
  -28.9060   13.6140  -21.8300 N   0  0  0  0  0  0  0  0  0  0  0  0
  -29.4390   14.3460  -21.4440 H   0  0  0  0  0  0  0  0  0  0  0  0
  -28.8340   11.5350  -22.6010 O   0  0  0  0  0  0  0  0  0  0  0  0
  -31.5300   12.8320  -20.8010 N   0  0  0  0  0  0  0  0  0  0  0  0
  -30.9930   13.3920  -20.1960 H   0  0  0  0  0  0  0  0  0  0  0  0
  -30.9500   12.2420  -21.8650 C   0  0  0  0  0  0  0  0  0  0  0  0
  -31.6120   11.5520  -22.6120 O   0  0  0  0  0  0  0  0  0  0  0  0
  -32.9600   12.6410  -20.5460 C   0  0  0  0  0  0  0  0  0  0  0  0
  -32.5750   11.1400  -18.5830 C   0  0  0  0  0  0  0  0  0  0  0  0
  -32.7600   10.8030  -17.2540 C   0  0  0  0  0  0  0  0  0  0  0  0
  -33.5480   11.6000  -16.4400 C   0  0  0  0  0  0  0  0  0  0  0  0
  -34.1510   12.7410  -16.9640 C   0  0  0  0  0  0  0  0  0  0  0  0
  -34.8670   13.3480  -15.9720 O   0  0  0  0  0  0  0  0  0  0  0  0
  -34.3650   12.7960  -14.7410 C   0  0  0  0  0  0  0  0  0  0  0  0
  -33.9620   13.0740  -18.2940 C   0  0  0  0  0  0  0  0  0  0  0  0
  -33.8850   11.4930  -15.1220 O   0  0  0  0  0  0  0  0  0  0  0  0
  -33.1700   12.2760  -19.1000 C   0  0  0  0  0  0  0  0  0  0  0  0
  -27.4760   13.8050  -22.0840 C   0  0  0  0  0  0  0  0  0  0  0  0
  -26.7470   14.0220  -20.7560 C   0  0  0  0  0  0  0  0  0  0  0  0
  -27.7310   14.1580  -19.6740 N   0  0  0  0  0  0  0  0  0  0  0  0
  -28.6350   14.3710  -20.0980 H   0  0  0  0  0  0  0  0  0  0  0  0
  -27.8670   12.9020  -18.9250 C   0  0  0  0  0  0  0  0  0  0  0  0
  -28.9550   13.0600  -17.8600 C   0  0  0  0  0  0  0  0  0  0  0  0
  -28.6020   14.1700  -16.9640 N   0  0  0  0  0  0  0  0  0  0  0  0
  -29.3450   14.2810  -16.2740 H   0  0  0  0  0  0  0  0  0  0  0  0
  -27.7170   13.9590  -16.5030 H   0  0  0  0  0  0  0  0  0  0  0  0
  -28.4660   15.4270  -17.7140 C   0  0  0  0  0  0  0  0  0  0  0  0
  -27.3780   15.2680  -18.7780 C   0  0  0  0  0  0  0  0  0  0  0  0
  1  7  1  0  0  0  0
  1  2  1  0  0  0  0
  2  3  1  0  0  0  0
  4  1  2  0  0  0  0
  5  9  1  0  0  0  0
  5  6  1  0  0  0  0
  7  5  1  0  0  0  0
  8  7  2  0  0  0  0
  9 18  1  0  0  0  0
 10 11  1  0  0  0  0
 11 12  2  0  0  0  0
 12 17  1  0  0  0  0
 13 12  1  0  0  0  0
 13 14  1  0  0  0  0
 14 15  1  0  0  0  0
 16 13  2  0  0  0  0
 17 15  1  0  0  0  0
 18 10  2  0  0  0  0
 18 16  1  0  0  0  0
 19  2  1  0  0  0  0
 19 20  1  0  0  0  0
 20 21  1  0  0  0  0
 21 23  1  0  0  0  0
 21 29  1  0  0  0  0
 22 21  1  0  0  0  0
 23 24  1  0  0  0  0
 24 25  1  0  0  0  0
 25 27  1  0  0  0  0
 25 26  1  0  0  0  0
 28 25  1  0  0  0  0
 29 28  1  0  0  0  0
M  END
>  <MODEL>
1

>  <REMARK>
 VINA RESULT:      -5.3      0.000      0.000
  Name = ZINC19848534
                            x       y       z     vdW  Elec       q    Type
                         _______ _______ _______ _____ _____    ______ ____

>  <TORSDO>
F 6

>  <vina_score>
-5.3

$$$$
ZINC10111680
 OpenBabel01081722163D

 23 23  0  0  0  0  0  0  0  0999 V2000
  -28.3410   14.1970  -19.0360 C   0  0  0  0  0  0  0  0  0  0  0  0
  -28.5410   12.9310  -18.4940 C   0  0  0  0  0  0  0  0  0  0  0  0
  -29.8120   12.5140  -18.1700 C   0  0  0  0  0  0  0  0  0  0  0  0
  -30.9020   13.3590  -18.3950 C   0  0  0  0  0  0  0  0  0  0  0  0
  -30.6980   14.6270  -18.9440 C   0  0  0  0  0  0  0  0  0  0  0  0
  -29.4240   15.0420  -19.2620 C   0  0  0  0  0  0  0  0  0  0  0  0
  -32.2670   12.9130  -18.0520 C   0  0  0  0  0  0  0  0  0  0  0  0
  -32.4460   11.7900  -17.3300 N   0  0  0  0  0  0  0  0  0  0  0  0
  -31.6680   11.2670  -17.0300 H   0  0  0  0  0  0  0  0  0  0  0  0
  -33.2280   13.5580  -18.4220 O   0  0  0  0  0  0  0  0  0  0  0  0
  -33.8010   11.3470  -16.9910 C   0  0  0  0  0  0  0  0  0  0  0  0
  -33.8190   10.8140  -15.5560 C   0  0  0  0  0  0  0  0  0  0  0  0
  -34.9640   11.4130  -14.8380 N   0  0  0  0  0  0  0  0  0  0  0  0
  -35.8190   11.2220  -15.3610 H   0  0  0  0  0  0  0  0  0  0  0  0
  -34.7840   12.8770  -14.7350 C   0  0  0  0  0  0  0  0  0  0  0  0
  -35.0810   10.8210  -13.4900 C   0  0  0  0  0  0  0  0  0  0  0  0
  -27.0540   14.6180  -19.3590 N   0  0  0  0  0  0  0  0  0  0  0  0
  -26.5870   15.2600  -18.7780 H   0  0  0  0  0  0  0  0  0  0  0  0
  -26.3110   14.0370  -20.7200 S   0  0  0  0  0  0  0  0  0  0  0  0
  -25.8880   12.7270  -20.3700 O   0  0  0  0  0  0  0  0  0  0  0  0
  -25.3620   15.0350  -21.0690 O   0  0  0  0  0  0  0  0  0  0  0  0
  -28.1160   12.5150  -22.1000 C   0  0  0  0  0  0  0  0  0  0  0  0
  -27.6240   13.9580  -21.9690 C   0  0  0  0  0  0  0  0  0  0  0  0
  1  2  1  0  0  0  0
  2  3  2  0  0  0  0
  4  3  1  0  0  0  0
  4  7  1  0  0  0  0
  5  4  2  0  0  0  0
  6  1  2  0  0  0  0
  6  5  1  0  0  0  0
  7  8  1  0  0  0  0
  8  9  1  0  0  0  0
  8 11  1  0  0  0  0
 10  7  2  0  0  0  0
 11 12  1  0  0  0  0
 12 13  1  0  0  0  0
 13 15  1  0  0  0  0
 13 16  1  0  0  0  0
 14 13  1  0  0  0  0
 17  1  1  0  0  0  0
 17 18  1  0  0  0  0
 19 20  2  0  0  0  0
 19 17  1  0  0  0  0
 21 19  2  0  0  0  0
 22 23  1  0  0  0  0
 23 19  1  0  0  0  0
M  END
>  <MODEL>
1

>  <REMARK>
 VINA RESULT:      -5.3      0.000      0.000
  Name = ZINC10111680
                            x       y       z     vdW  Elec       q    Type
                         _______ _______ _______ _____ _____    ______ ____

>  <TORSDO>
F 7

>  <vina_score>
-5.3

$$$$
ZINC30581710
 OpenBabel01081722183D

 31 33  0  0  1  0  0  0  0  0999 V2000
  -27.6940   14.9440  -20.0990 C   0  0  1  0  0  0  0  0  0  0  0  0
  -28.9700   15.0400  -19.2880 C   0  0  0  0  0  0  0  0  0  0  0  0
  -28.9270   14.0100  -18.4190 N   0  0  0  0  0  0  0  0  0  0  0  0
  -27.8140   13.2840  -18.5680 C   0  0  0  0  0  0  0  0  0  0  0  0
  -27.5500   12.3050  -17.8980 O   0  0  0  0  0  0  0  0  0  0  0  0
  -29.8470   15.8700  -19.3970 O   0  0  0  0  0  0  0  0  0  0  0  0
  -27.0170   13.7600  -19.5420 N   0  0  0  0  0  0  0  0  0  0  0  0
  -29.9270   13.7350  -17.4770 N   0  0  0  0  0  0  0  0  0  0  0  0
  -30.1150   14.3780  -16.7550 H   0  0  0  0  0  0  0  0  0  0  0  0
  -30.6300   12.5880  -17.5560 C   0  0  0  0  0  0  0  0  0  0  0  0
  -30.3990   11.7950  -18.4440 O   0  0  0  0  0  0  0  0  0  0  0  0
  -31.7050   12.2910  -16.5410 C   0  0  0  0  0  0  0  0  0  0  0  0
  -32.2450   10.8780  -16.7690 C   0  0  0  0  0  0  0  0  0  0  0  0
  -33.9800   10.8030  -16.2470 S   0  0  0  0  0  0  0  0  0  0  0  0
  -34.3590   12.5020  -15.7380 C   0  0  0  0  0  0  0  0  0  0  0  0
  -34.8900   12.4990  -14.3270 C   0  0  0  0  0  0  0  0  0  0  0  0
  -34.5640   13.4960  -13.4810 N   0  0  0  0  0  0  0  0  0  0  0  0
  -34.9120   13.4930  -12.5600 H   0  0  0  0  0  0  0  0  0  0  0  0
  -33.9790   14.2270  -13.7850 H   0  0  0  0  0  0  0  0  0  0  0  0
  -35.6110   11.5980  -13.9530 O   0  0  0  0  0  0  0  0  0  0  0  0
  -28.0130   14.7330  -21.5810 C   0  0  0  0  0  0  0  0  0  0  0  0
  -32.2760   12.8440  -21.0980 C   0  0  0  0  0  0  0  0  0  0  0  0
  -32.3050   11.4910  -21.4040 C   0  0  0  0  0  0  0  0  0  0  0  0
  -31.1610   10.8350  -21.8020 C   0  0  0  0  0  0  0  0  0  0  0  0
  -29.9630   11.5350  -21.9000 C   0  0  0  0  0  0  0  0  0  0  0  0
  -29.9360   12.9050  -21.5820 C   0  0  0  0  0  0  0  0  0  0  0  0
  -28.5530   13.3410  -21.7860 C   0  0  0  0  0  0  0  0  0  0  0  0
  -27.8570   12.2650  -22.1850 C   0  0  0  0  0  0  0  0  0  0  0  0
  -28.6820   11.1770  -22.2580 N   0  0  0  0  0  0  0  0  0  0  0  0
  -28.4020   10.2720  -22.5280 H   0  0  0  0  0  0  0  0  0  0  0  0
  -31.1100   13.5510  -21.1870 C   0  0  0  0  0  0  0  0  0  0  0  0
  1 21  1  6  0  0  0
  1  7  1  0  0  0  0
  1  2  1  0  0  0  0
  2  3  1  0  0  0  0
  3  8  1  0  0  0  0
  4  3  1  0  0  0  0
  4  5  2  0  0  0  0
  6  2  2  0  0  0  0
  7  4  1  0  0  0  0
  8  9  1  0  0  0  0
 10  8  1  0  0  0  0
 10 12  1  0  0  0  0
 11 10  2  0  0  0  0
 13 12  1  0  0  0  0
 13 14  1  0  0  0  0
 14 15  1  0  0  0  0
 15 16  1  0  0  0  0
 16 20  2  0  0  0  0
 16 17  1  0  0  0  0
 17 18  1  0  0  0  0
 19 17  1  0  0  0  0
 23 22  2  0  0  0  0
 24 23  1  0  0  0  0
 25 24  2  0  0  0  0
 25 26  1  0  0  0  0
 26 31  2  0  0  0  0
 27 26  1  0  0  0  0
 27 21  1  0  0  0  0
 28 27  2  0  0  0  0
 29 28  1  0  0  0  0
 29 25  1  0  0  0  0
 30 29  1  0  0  0  0
 31 22  1  0  0  0  0
M  END
>  <MODEL>
1

>  <REMARK>
 VINA RESULT:      -5.3      0.000      0.000
  Name = ZINC30581710
                            x       y       z     vdW  Elec       q    Type
                         _______ _______ _______ _____ _____    ______ ____

>  <TORSDO>
F 8

>  <vina_score>
-5.3

$$$$
ZINC21038636
 OpenBabel01081722213D

 27 29  0  0  0  0  0  0  0  0999 V2000
  -32.3690   11.9470  -21.0930 C   0  0  0  0  0  0  0  0  0  0  0  0
  -32.2720   11.2380  -19.9280 N   0  0  0  0  0  0  0  0  0  0  0  0
  -33.3980   11.4790  -19.1930 C   0  0  0  0  0  0  0  0  0  0  0  0
  -34.1610   12.2990  -19.8770 N   0  0  0  0  0  0  0  0  0  0  0  0
  -33.5060   12.5990  -21.0780 N   0  0  0  0  0  0  0  0  0  0  0  0
  -33.8410   13.1950  -21.7870 H   0  0  0  0  0  0  0  0  0  0  0  0
  -31.4280   11.9720  -22.1130 N   0  0  0  0  0  0  0  0  0  0  0  0
  -31.5940   11.4790  -22.9480 H   0  0  0  0  0  0  0  0  0  0  0  0
  -29.2480   12.1850  -21.2940 C   0  0  0  0  0  0  0  0  0  0  0  0
  -30.2410   12.6990  -21.9530 N   0  0  0  0  0  0  0  0  0  0  0  0
  -26.5930   14.8090  -21.6590 C   0  0  0  0  0  0  0  0  0  0  0  0
  -27.7790   14.1250  -21.8580 C   0  0  0  0  0  0  0  0  0  0  0  0
  -27.9990   12.9510  -21.1260 C   0  0  0  0  0  0  0  0  0  0  0  0
  -27.0120   12.5160  -20.2370 C   0  0  0  0  0  0  0  0  0  0  0  0
  -25.8970   13.2010  -20.0880 N   0  0  0  0  0  0  0  0  0  0  0  0
  -25.6660   14.3110  -20.7610 C   0  0  0  0  0  0  0  0  0  0  0  0
  -33.7640   10.8040  -17.6070 S   0  0  0  0  0  0  0  0  0  0  0  0
  -32.2440   11.0720  -16.6540 C   0  0  0  0  0  0  0  0  0  0  0  0
  -31.6350   12.3940  -17.0440 C   0  0  0  0  0  0  0  0  0  0  0  0
  -30.4550   12.4260  -17.6960 N   0  0  0  0  0  0  0  0  0  0  0  0
  -29.9920   11.5860  -17.9170 H   0  0  0  0  0  0  0  0  0  0  0  0
  -32.2060   13.4290  -16.7710 O   0  0  0  0  0  0  0  0  0  0  0  0
  -29.8930   13.6450  -18.0550 C   0  0  0  0  0  0  0  0  0  0  0  0
  -30.3450   14.4740  -18.9650 N   0  0  0  0  0  0  0  0  0  0  0  0
  -29.5790   15.5050  -19.0370 N   0  0  0  0  0  0  0  0  0  0  0  0
  -28.6010   15.3930  -18.1810 C   0  0  0  0  0  0  0  0  0  0  0  0
  -28.7670   14.2070  -17.5260 N   0  0  0  0  0  0  0  0  0  0  0  0
  1  5  1  0  0  0  0
  1  2  2  0  0  0  0
  2  3  1  0  0  0  0
  3 17  1  0  0  0  0
  4  3  2  0  0  0  0
  5  4  1  0  0  0  0
  6  5  1  0  0  0  0
  7 10  1  0  0  0  0
  7  1  1  0  0  0  0
  8  7  1  0  0  0  0
  9 13  1  0  0  0  0
 10  9  2  0  0  0  0
 11 16  1  0  0  0  0
 12 11  2  0  0  0  0
 12 13  1  0  0  0  0
 13 14  2  0  0  0  0
 14 15  1  0  0  0  0
 16 15  2  0  0  0  0
 17 18  1  0  0  0  0
 19 22  2  0  0  0  0
 19 18  1  0  0  0  0
 20 19  1  0  0  0  0
 21 20  1  0  0  0  0
 23 20  1  0  0  0  0
 23 27  2  0  0  0  0
 24 23  1  0  0  0  0
 25 24  1  0  0  0  0
 25 26  2  0  0  0  0
 26 27  1  0  0  0  0
M  END
>  <MODEL>
1

>  <REMARK>
 VINA RESULT:      -5.3      0.000      0.000
  Name = ZINC21038636
                            x       y       z     vdW  Elec       q    Type
                         _______ _______ _______ _____ _____    ______ ____

>  <TORSDO>
F 7

>  <vina_score>
-5.3

$$$$
ZINC27082580
 OpenBabel01081722223D

 26 27  0  0  0  0  0  0  0  0999 V2000
  -32.4220   15.3180  -20.5340 N   0  0  0  0  0  0  0  0  0  0  0  0
  -32.4700   14.8900  -21.4200 H   0  0  0  0  0  0  0  0  0  0  0  0
  -29.8480   10.9720  -21.7470 C   0  0  0  0  0  0  0  0  0  0  0  0
  -30.5520   11.5210  -20.5320 C   0  0  0  0  0  0  0  0  0  0  0  0
  -31.1440   12.7750  -20.5910 C   0  0  0  0  0  0  0  0  0  0  0  0
  -31.0950   13.5090  -21.7320 O   0  0  0  0  0  0  0  0  0  0  0  0
  -31.8010   13.2680  -19.4510 C   0  0  0  0  0  0  0  0  0  0  0  0
  -32.4510   14.5920  -19.4630 C   0  0  0  0  0  0  0  0  0  0  0  0
  -31.8200   12.4660  -18.3040 C   0  0  0  0  0  0  0  0  0  0  0  0
  -31.1990   11.2350  -18.3360 C   0  0  0  0  0  0  0  0  0  0  0  0
  -30.5920   10.8060  -19.4260 N   0  0  0  0  0  0  0  0  0  0  0  0
  -32.5100   12.9420  -17.0510 C   0  0  0  0  0  0  0  0  0  0  0  0
  -33.3740   11.9130  -16.5640 O   0  0  0  0  0  0  0  0  0  0  0  0
  -34.2780   12.2560  -16.4940 H   0  0  0  0  0  0  0  0  0  0  0  0
  -32.3160   16.7750  -20.4290 C   0  0  0  0  0  0  0  0  0  0  0  0
  -30.8790   17.1570  -20.0680 C   0  0  0  0  0  0  0  0  0  0  0  0
  -29.9760   16.0620  -20.4320 N   0  0  0  0  0  0  0  0  0  0  0  0
  -30.1180   15.5650  -21.2700 H   0  0  0  0  0  0  0  0  0  0  0  0
  -28.9530   15.7340  -19.6190 C   0  0  0  0  0  0  0  0  0  0  0  0
  -28.7250   16.4020  -18.6280 O   0  0  0  0  0  0  0  0  0  0  0  0
  -28.1130   14.5720  -19.9290 C   0  0  0  0  0  0  0  0  0  0  0  0
  -27.5070   14.3040  -21.1380 C   0  0  0  0  0  0  0  0  0  0  0  0
  -26.8080   13.1030  -20.9890 C   0  0  0  0  0  0  0  0  0  0  0  0
  -26.9940   12.6670  -19.7200 C   0  0  0  0  0  0  0  0  0  0  0  0
  -27.7810   13.5530  -19.0640 N   0  0  0  0  0  0  0  0  0  0  0  0
  -28.2100   13.4450  -17.6670 C   0  0  0  0  0  0  0  0  0  0  0  0
  1 15  1  0  0  0  0
  1  8  1  0  0  0  0
  2  1  1  0  0  0  0
  3  4  1  0  0  0  0
  4 11  1  0  0  0  0
  5  4  2  0  0  0  0
  5  7  1  0  0  0  0
  6  5  1  0  0  0  0
  7  9  2  0  0  0  0
  8  7  1  0  0  0  0
  9 12  1  0  0  0  0
 10  9  1  0  0  0  0
 11 10  2  0  0  0  0
 12 13  1  0  0  0  0
 13 14  1  0  0  0  0
 15 16  1  0  0  0  0
 17 16  1  0  0  0  0
 17 19  1  0  0  0  0
 18 17  1  0  0  0  0
 19 20  2  0  0  0  0
 21 19  1  0  0  0  0
 21 25  1  0  0  0  0
 22 23  1  0  0  0  0
 22 21  2  0  0  0  0
 23 24  2  0  0  0  0
 24 25  1  0  0  0  0
 25 26  1  0  0  0  0
M  END
>  <MODEL>
1

>  <REMARK>
 VINA RESULT:      -5.3      0.000      0.000
  Name = ZINC27082580
                            x       y       z     vdW  Elec       q    Type
                         _______ _______ _______ _____ _____    ______ ____

>  <TORSDO>
F 7

>  <vina_score>
-5.3

$$$$
ZINC20836503
 OpenBabel01081722233D

 28 29  0  0  0  0  0  0  0  0999 V2000
  -32.0580   13.1970  -21.0970 C   0  0  0  0  0  0  0  0  0  0  0  0
  -30.7100   12.9930  -21.2070 N   0  0  0  0  0  0  0  0  0  0  0  0
  -30.5110   11.9270  -22.0370 C   0  0  0  0  0  0  0  0  0  0  0  0
  -31.6850   11.4900  -22.4250 N   0  0  0  0  0  0  0  0  0  0  0  0
  -32.6650   12.2910  -21.8250 N   0  0  0  0  0  0  0  0  0  0  0  0
  -33.6390   12.1910  -21.9320 H   0  0  0  0  0  0  0  0  0  0  0  0
  -32.6750   14.1840  -20.3430 N   0  0  0  0  0  0  0  0  0  0  0  0
  -33.2040   14.8850  -20.7880 H   0  0  0  0  0  0  0  0  0  0  0  0
  -33.4440   10.8550  -16.7820 C   0  0  0  0  0  0  0  0  0  0  0  0
  -32.6010   11.9910  -16.2000 C   0  0  0  0  0  0  0  0  0  0  0  0
  -33.1080   13.3310  -16.7410 C   0  0  0  0  0  0  0  0  0  0  0  0
  -33.1110   13.2690  -18.2530 C   0  0  0  0  0  0  0  0  0  0  0  0
  -33.8010   12.1020  -18.9220 C   0  0  0  0  0  0  0  0  0  0  0  0
  -32.5460   14.1850  -18.9470 N   0  0  0  0  0  0  0  0  0  0  0  0
  -33.2650   10.8030  -18.3000 C   0  0  0  0  0  0  0  0  0  0  0  0
  -28.9500   11.2570  -22.5050 S   0  0  0  0  0  0  0  0  0  0  0  0
  -27.8630   12.7070  -22.6090 C   0  0  0  0  0  0  0  0  0  0  0  0
  -27.6990   13.3110  -21.2380 C   0  0  0  0  0  0  0  0  0  0  0  0
  -27.9270   14.6260  -21.0500 N   0  0  0  0  0  0  0  0  0  0  0  0
  -28.1990   15.1920  -21.8080 H   0  0  0  0  0  0  0  0  0  0  0  0
  -27.3620   12.6140  -20.3050 O   0  0  0  0  0  0  0  0  0  0  0  0
  -27.7730   15.1880  -19.7760 N   0  0  0  0  0  0  0  0  0  0  0  0
  -28.8040   15.1820  -18.9080 C   0  0  0  0  0  0  0  0  0  0  0  0
  -29.8650   15.6790  -19.2220 O   0  0  0  0  0  0  0  0  0  0  0  0
  -28.6390   14.5580  -17.5470 C   0  0  0  0  0  0  0  0  0  0  0  0
  -28.9050   15.5130  -16.5590 F   0  0  0  0  0  0  0  0  0  0  0  0
  -27.3270   14.0930  -17.4030 F   0  0  0  0  0  0  0  0  0  0  0  0
  -29.5300   13.4870  -17.4130 F   0  0  0  0  0  0  0  0  0  0  0  0
  1  7  1  0  0  0  0
  2  1  2  0  0  0  0
  3  2  1  0  0  0  0
  4  3  2  0  0  0  0
  4  5  1  0  0  0  0
  5  1  1  0  0  0  0
  6  5  1  0  0  0  0
  7 14  1  0  0  0  0
  8  7  1  0  0  0  0
  9 10  1  0  0  0  0
 11 10  1  0  0  0  0
 12 11  1  0  0  0  0
 13 15  1  0  0  0  0
 13 12  1  0  0  0  0
 14 12  2  0  0  0  0
 15  9  1  0  0  0  0
 16  3  1  0  0  0  0
 17 16  1  0  0  0  0
 17 18  1  0  0  0  0
 18 19  1  0  0  0  0
 18 21  2  0  0  0  0
 19 22  1  0  0  0  0
 20 19  1  0  0  0  0
 22 23  1  0  0  0  0
 23 25  1  0  0  0  0
 24 23  2  0  0  0  0
 25 28  1  0  0  0  0
 25 27  1  0  0  0  0
 25 26  1  0  0  0  0
M  END
>  <MODEL>
1

>  <REMARK>
 VINA RESULT:      -5.3      0.000      0.000
  Name = ZINC20836503
                            x       y       z     vdW  Elec       q    Type
                         _______ _______ _______ _____ _____    ______ ____

>  <TORSDO>
F 8

>  <vina_score>
-5.3

$$$$
ZINC06425106
 OpenBabel01081722053D

 22 21  0  0  1  0  0  0  0  0999 V2000
  -27.7550   14.3830  -20.1500 C   0  0  1  0  0  0  0  0  0  0  0  0
  -29.0570   14.7300  -20.6250 O   0  0  0  0  0  0  0  0  0  0  0  0
  -29.3800   14.0370  -21.2220 H   0  0  0  0  0  0  0  0  0  0  0  0
  -27.6540   14.7040  -18.6580 C   0  0  2  0  0  0  0  0  0  0  0  0
  -29.7950   13.6910  -18.1230 N   0  0  0  0  0  0  0  0  0  0  0  0
  -28.5250   13.7520  -17.8790 C   0  0  0  0  0  0  0  0  0  0  0  0
  -31.8580   12.6160  -17.7580 C   0  0  0  0  0  0  0  0  0  0  0  0
  -32.5150   13.4770  -19.1490 S   0  0  0  0  0  0  0  0  0  0  0  0
  -30.6040   12.8060  -17.3990 N   0  0  0  0  0  0  0  0  0  0  0  0
  -33.8190   12.6840  -15.8510 C   0  0  0  0  0  0  0  0  0  0  0  0
  -32.8760   11.5030  -16.8480 S   0  0  0  0  0  0  0  0  0  0  0  0
  -28.0910   16.0460  -18.4290 O   0  0  0  0  0  0  0  0  0  0  0  0
  -28.0900   16.5340  -19.2670 H   0  0  0  0  0  0  0  0  0  0  0  0
  -27.5150   12.8880  -20.3670 C   0  0  2  0  0  0  0  0  0  0  0  0
  -26.1230   12.6020  -20.2150 O   0  0  0  0  0  0  0  0  0  0  0  0
  -25.7270   13.2400  -19.6020 H   0  0  0  0  0  0  0  0  0  0  0  0
  -27.9650   12.4980  -21.7770 C   0  0  2  0  0  0  0  0  0  0  0  0
  -27.9720   13.6560  -22.6120 O   0  0  0  0  0  0  0  0  0  0  0  0
  -27.0960   14.0740  -22.5930 H   0  0  0  0  0  0  0  0  0  0  0  0
  -29.3740   11.9020  -21.7160 C   0  0  0  0  0  0  0  0  0  0  0  0
  -29.7050   11.6000  -20.3600 O   0  0  0  0  0  0  0  0  0  0  0  0
  -29.7230   10.6370  -20.2390 H   0  0  0  0  0  0  0  0  0  0  0  0
  1  2  1  1  0  0  0
  1  4  1  0  0  0  0
  3  2  1  0  0  0  0
  4 12  1  6  0  0  0
  4  6  1  0  0  0  0
  5  6  2  0  0  0  0
  5  9  1  0  0  0  0
  7  9  1  0  0  0  0
  7 11  1  0  0  0  0
  8  7  2  0  0  0  0
 11 10  1  0  0  0  0
 13 12  1  0  0  0  0
 14 15  1  6  0  0  0
 14  1  1  0  0  0  0
 15 16  1  0  0  0  0
 17 18  1  6  0  0  0
 17 20  1  0  0  0  0
 17 14  1  0  0  0  0
 18 19  1  0  0  0  0
 20 21  1  0  0  0  0
 21 22  1  0  0  0  0
M  END
>  <MODEL>
1

>  <REMARK>
 VINA RESULT:      -5.3      0.000      0.000
  Name = ZINC06425106
                            x       y       z     vdW  Elec       q    Type
                         _______ _______ _______ _____ _____    ______ ____

>  <TORSDO>
F 12

>  <vina_score>
-5.3

$$$$
ZINC23697636
 OpenBabel01081722093D

 22 22  0  0  1  0  0  0  0  0999 V2000
  -30.5060   13.2980  -20.6890 N   0  0  0  0  0  0  0  0  0  0  0  0
  -30.2890   14.2520  -20.8040 H   0  0  0  0  0  0  0  0  0  0  0  0
  -29.7210   12.3560  -21.2490 C   0  0  0  0  0  0  0  0  0  0  0  0
  -29.9880   11.1810  -21.1070 O   0  0  0  0  0  0  0  0  0  0  0  0
  -33.0280   12.2670  -18.2570 C   0  0  2  0  0  0  0  0  0  0  0  0
  -33.5450   13.2290  -17.1860 C   0  0  0  0  0  0  0  0  0  0  0  0
  -31.5990   12.6060  -18.6320 C   0  0  0  0  0  0  0  0  0  0  0  0
  -31.6300   12.9210  -19.9430 N   0  0  0  0  0  0  0  0  0  0  0  0
  -32.8680   12.8300  -20.4420 C   0  0  0  0  0  0  0  0  0  0  0  0
  -33.1480   13.0650  -21.6010 O   0  0  0  0  0  0  0  0  0  0  0  0
  -30.6280   12.5970  -17.9050 O   0  0  0  0  0  0  0  0  0  0  0  0
  -33.7680   12.4480  -19.5180 N   0  0  0  0  0  0  0  0  0  0  0  0
  -33.4860   10.8030  -16.2860 C   0  0  0  0  0  0  0  0  0  0  0  0
  -33.1320   10.8190  -17.7740 C   0  0  0  0  0  0  0  0  0  0  0  0
  -28.5130   12.7620  -22.0510 C   0  0  0  0  0  0  0  0  0  0  0  0
  -27.2970   12.2760  -21.3850 N   0  0  0  0  0  0  0  0  0  0  0  0
  -27.5330   11.4450  -20.8440 H   0  0  0  0  0  0  0  0  0  0  0  0
  -26.5960   12.0560  -22.0920 H   0  0  0  0  0  0  0  0  0  0  0  0
  -26.7550   13.2920  -20.4720 C   0  0  0  0  0  0  0  0  0  0  0  0
  -25.2410   13.1160  -20.3530 C   0  0  0  0  0  0  0  0  0  0  0  0
  -27.3970   13.1320  -19.0930 C   0  0  0  0  0  0  0  0  0  0  0  0
  -27.0660   14.6860  -21.0200 C   0  0  0  0  0  0  0  0  0  0  0  0
  1  8  1  0  0  0  0
  2  1  1  0  0  0  0
  3  4  2  0  0  0  0
  3  1  1  0  0  0  0
  5 14  1  1  0  0  0
  5  6  1  0  0  0  0
  7  5  1  0  0  0  0
  7 11  2  0  0  0  0
  8  7  1  0  0  0  0
  9  8  1  0  0  0  0
  9 12  1  0  0  0  0
 10  9  2  0  0  0  0
 12  5  1  0  0  0  0
 14 13  1  0  0  0  0
 15 16  1  0  0  0  0
 15  3  1  0  0  0  0
 16 17  1  0  0  0  0
 16 19  1  0  0  0  0
 18 16  1  0  0  0  0
 19 20  1  0  0  0  0
 19 21  1  0  0  0  0
 22 19  1  0  0  0  0
M  END
>  <MODEL>
1

>  <REMARK>
 VINA RESULT:      -5.3      0.000      0.000
  Name = ZINC23697636
                            x       y       z     vdW  Elec       q    Type
                         _______ _______ _______ _____ _____    ______ ____

>  <TORSDO>
F 5

>  <vina_score>
-5.3

$$$$
ZINC20934722
 OpenBabel01081722123D

 28 29  0  0  0  0  0  0  0  0999 V2000
  -31.0400   13.4350  -21.3550 C   0  0  0  0  0  0  0  0  0  0  0  0
  -29.7890   14.0010  -21.1760 C   0  0  0  0  0  0  0  0  0  0  0  0
  -28.6510   13.2450  -21.3880 C   0  0  0  0  0  0  0  0  0  0  0  0
  -28.7580   11.9240  -21.7810 C   0  0  0  0  0  0  0  0  0  0  0  0
  -30.0040   11.3520  -21.9610 C   0  0  0  0  0  0  0  0  0  0  0  0
  -31.1490   12.1030  -21.7440 C   0  0  0  0  0  0  0  0  0  0  0  0
  -32.1610   14.1760  -21.1470 O   0  0  0  0  0  0  0  0  0  0  0  0
  -32.3210   16.4540  -20.3530 C   0  0  0  0  0  0  0  0  0  0  0  0
  -32.1960   14.9790  -19.9640 C   0  0  0  0  0  0  0  0  0  0  0  0
  -27.2900   13.8640  -21.1940 C   0  0  0  0  0  0  0  0  0  0  0  0
  -27.2150   14.4690  -19.8570 N   0  0  0  0  0  0  0  0  0  0  0  0
  -26.3680   15.0350  -19.8050 H   0  0  0  0  0  0  0  0  0  0  0  0
  -28.0410   15.0470  -19.7050 H   0  0  0  0  0  0  0  0  0  0  0  0
  -27.1530   13.4360  -18.8150 C   0  0  0  0  0  0  0  0  0  0  0  0
  -28.5390   13.1770  -18.2810 C   0  0  0  0  0  0  0  0  0  0  0  0
  -29.2090   14.1710  -17.5910 C   0  0  0  0  0  0  0  0  0  0  0  0
  -30.4790   13.9410  -17.1050 C   0  0  0  0  0  0  0  0  0  0  0  0
  -31.0840   12.6990  -17.3010 C   0  0  0  0  0  0  0  0  0  0  0  0
  -30.4010   11.6980  -17.9930 C   0  0  0  0  0  0  0  0  0  0  0  0
  -29.1320   11.9430  -18.4790 C   0  0  0  0  0  0  0  0  0  0  0  0
  -32.4430   12.4450  -16.7780 C   0  0  0  0  0  0  0  0  0  0  0  0
  -33.0870   13.4010  -16.0810 O   0  0  0  0  0  0  0  0  0  0  0  0
  -32.9780   11.3720  -16.9770 O   0  0  0  0  0  0  0  0  0  0  0  0
  -32.3740   11.5410  -21.9160 O   0  0  0  0  0  0  0  0  0  0  0  0
  -32.9110   10.8040  -20.8150 C   0  0  0  0  0  0  0  0  0  0  0  0
  -34.0530   11.5990  -20.1780 C   0  0  0  0  0  0  0  0  0  0  0  0
  -34.5900   12.5140  -21.1360 O   0  0  0  0  0  0  0  0  0  0  0  0
  -34.2240   12.3160  -22.0110 H   0  0  0  0  0  0  0  0  0  0  0  0
  1  2  1  0  0  0  0
  1  7  1  0  0  0  0
  3 10  1  0  0  0  0
  3  2  2  0  0  0  0
  4  3  1  0  0  0  0
  5  4  2  0  0  0  0
  5  6  1  0  0  0  0
  6  1  2  0  0  0  0
  7  9  1  0  0  0  0
  8  9  1  0  0  0  0
 10 11  1  0  0  0  0
 11 12  1  0  0  0  0
 11 13  1  0  0  0  0
 11 14  1  0  0  0  0
 14 15  1  0  0  0  0
 15 16  1  0  0  0  0
 16 17  2  0  0  0  0
 18 17  1  0  0  0  0
 18 21  1  0  0  0  0
 19 18  2  0  0  0  0
 20 15  2  0  0  0  0
 20 19  1  0  0  0  0
 21 22  1  0  0  0  0
 23 21  2  0  0  0  0
 24  6  1  0  0  0  0
 24 25  1  0  0  0  0
 25 26  1  0  0  0  0
 27 26  1  0  0  0  0
 28 27  1  0  0  0  0
M  END
>  <MODEL>
1

>  <REMARK>
 VINA RESULT:      -5.3      0.000      0.000
  Name = ZINC20934722
                            x       y       z     vdW  Elec       q    Type
                         _______ _______ _______ _____ _____    ______ ____

>  <TORSDO>
F 11

>  <vina_score>
-5.3

$$$$
ZINC05543801
 OpenBabel01081722193D

 30 32  0  0  1  0  0  0  0  0999 V2000
  -31.4520   12.7340  -17.4510 C   0  0  0  0  0  0  0  0  0  0  0  0
  -32.2730   12.1520  -18.3940 C   0  0  0  0  0  0  0  0  0  0  0  0
  -33.4860   11.8610  -17.7730 C   0  0  0  0  0  0  0  0  0  0  0  0
  -33.3870   12.2770  -16.4600 C   0  0  0  0  0  0  0  0  0  0  0  0
  -32.1420   12.8130  -16.2730 N   0  0  0  0  0  0  0  0  0  0  0  0
  -31.7990   13.1910  -15.4330 H   0  0  0  0  0  0  0  0  0  0  0  0
  -31.9210   11.8740  -19.8330 C   0  0  2  0  0  0  0  0  0  0  0  0
  -30.8090   10.8040  -19.9230 C   0  0  0  0  0  0  0  0  0  0  0  0
  -29.9860   11.3080  -21.1320 C   0  0  0  0  0  0  0  0  0  0  0  0
  -30.2230   12.7550  -21.1880 N   0  0  0  0  0  0  0  0  0  0  0  0
  -31.3090   13.1000  -20.4750 C   0  0  0  0  0  0  0  0  0  0  0  0
  -31.7360   14.2300  -20.3620 O   0  0  0  0  0  0  0  0  0  0  0  0
  -29.3860   13.7010  -21.9310 C   0  0  0  0  0  0  0  0  0  0  0  0
  -27.9810   13.6610  -21.3890 C   0  0  0  0  0  0  0  0  0  0  0  0
  -27.1130   14.7070  -21.6400 C   0  0  0  0  0  0  0  0  0  0  0  0
  -25.8210   14.6650  -21.1500 C   0  0  0  0  0  0  0  0  0  0  0  0
  -25.3980   13.5790  -20.4070 C   0  0  0  0  0  0  0  0  0  0  0  0
  -26.2650   12.5330  -20.1560 C   0  0  0  0  0  0  0  0  0  0  0  0
  -27.5570   12.5740  -20.6480 C   0  0  0  0  0  0  0  0  0  0  0  0
  -34.4400   12.1640  -15.4380 C   0  0  0  0  0  0  0  0  0  0  0  0
  -35.1160   13.2620  -15.0440 O   0  0  0  0  0  0  0  0  0  0  0  0
  -34.6990   11.0820  -14.9490 O   0  0  0  0  0  0  0  0  0  0  0  0
  -30.0690   13.1960  -17.6760 C   0  0  0  0  0  0  0  0  0  0  0  0
  -29.2200   12.4130  -18.0630 O   0  0  0  0  0  0  0  0  0  0  0  0
  -29.7290   14.5480  -17.4390 C   0  0  0  0  0  0  0  0  0  0  0  0
  -29.2440   16.0660  -19.3360 C   0  0  0  0  0  0  0  0  0  0  0  0
  -28.8060   15.1580  -18.2160 C   0  0  1  0  0  0  0  0  0  0  0  0
  -27.4750   14.9520  -17.9850 N   0  0  0  0  0  0  0  0  0  0  0  0
  -27.1890   14.3590  -17.2530 H   0  0  0  0  0  0  0  0  0  0  0  0
  -26.8040   15.3970  -18.5510 H   0  0  0  0  0  0  0  0  0  0  0  0
  1  5  1  0  0  0  0
  2  3  1  0  0  0  0
  2  1  2  0  0  0  0
  3  4  2  0  0  0  0
  4  5  1  0  0  0  0
  4 20  1  0  0  0  0
  5  6  1  0  0  0  0
  7  2  1  1  0  0  0
  8  7  1  0  0  0  0
  9  8  1  0  0  0  0
 10  9  1  0  0  0  0
 10 11  1  0  0  0  0
 11 12  2  0  0  0  0
 11  7  1  0  0  0  0
 13 14  1  0  0  0  0
 13 10  1  0  0  0  0
 14 19  1  0  0  0  0
 15 14  2  0  0  0  0
 15 16  1  0  0  0  0
 16 17  2  0  0  0  0
 17 18  1  0  0  0  0
 19 18  2  0  0  0  0
 20 21  2  0  0  0  0
 20 22  1  0  0  0  0
 23  1  1  0  0  0  0
 23 25  1  0  0  0  0
 24 23  2  0  0  0  0
 27 26  1  1  0  0  0
 27 28  1  0  0  0  0
 27 25  1  0  0  0  0
 28 29  1  0  0  0  0
 30 28  1  0  0  0  0
M  END
>  <MODEL>
1

>  <REMARK>
 VINA RESULT:      -5.2      0.000      0.000
  Name = ZINC05543801
                            x       y       z     vdW  Elec       q    Type
                         _______ _______ _______ _____ _____    ______ ____

>  <TORSDO>
F 7

>  <vina_score>
-5.2

$$$$
ZINC05113155
 OpenBabel01081722183D

 19 18  0  0  0  0  0  0  0  0999 V2000
  -27.9430   15.2730  -18.8860 C   0  0  0  0  0  0  0  0  0  0  0  0
  -28.3090   14.6690  -20.2130 N   0  0  0  0  0  0  0  0  0  0  0  0
  -29.2490   14.4560  -20.4150 H   0  0  0  0  0  0  0  0  0  0  0  0
  -27.3570   14.4210  -21.1210 C   0  0  0  0  0  0  0  0  0  0  0  0
  -27.7620   13.9430  -22.3450 N   0  0  0  0  0  0  0  0  0  0  0  0
  -27.9870   12.9910  -22.4520 H   0  0  0  0  0  0  0  0  0  0  0  0
  -27.8260   14.5540  -23.1150 H   0  0  0  0  0  0  0  0  0  0  0  0
  -26.0200   14.6220  -20.8690 N   0  0  0  0  0  0  0  0  0  0  0  0
  -25.3580   13.9600  -21.1730 H   0  0  0  0  0  0  0  0  0  0  0  0
  -25.7260   15.4270  -20.3860 H   0  0  0  0  0  0  0  0  0  0  0  0
  -29.0110   14.8830  -17.8630 C   0  0  0  0  0  0  0  0  0  0  0  0
  -29.1530   13.3610  -17.8270 C   0  0  0  0  0  0  0  0  0  0  0  0
  -30.6280   12.9900  -17.6580 C   0  0  0  0  0  0  0  0  0  0  0  0
  -31.4070   13.4130  -18.9050 C   0  0  0  0  0  0  0  0  0  0  0  0
  -31.9870   12.1730  -19.5890 C   0  0  0  0  0  0  0  0  0  0  0  0
  -31.7190   12.2900  -21.3800 S   0  0  0  0  0  0  0  0  0  0  0  0
  -32.6070   13.4390  -21.8340 O   0  0  0  0  0  0  0  0  0  0  0  0
  -32.2490   11.1430  -22.0290 O   0  0  0  0  0  0  0  0  0  0  0  0
  -30.3940   12.7280  -21.6480 O   0  0  0  0  0  0  0  0  0  0  0  0
  1 11  1  0  0  0  0
  2  1  1  0  0  0  0
  3  2  1  0  0  0  0
  4  8  1  0  0  0  0
  4  2  1  0  0  0  0
  5  4  2  0  0  0  0
  6  5  1  0  0  0  0
  7  5  1  0  0  0  0
  8 10  1  0  0  0  0
  9  8  1  0  0  0  0
 11 12  1  0  0  0  0
 12 13  1  0  0  0  0
 14 13  1  0  0  0  0
 15 14  1  0  0  0  0
 16 15  1  0  0  0  0
 17 16  2  0  0  0  0
 18 16  2  0  0  0  0
 19 16  1  0  0  0  0
M  END
>  <MODEL>
1

>  <REMARK>
 VINA RESULT:      -5.2      0.000      0.000
  Name = ZINC05113155
                            x       y       z     vdW  Elec       q    Type
                         _______ _______ _______ _____ _____    ______ ____

>  <TORSDO>
F 9

>  <vina_score>
-5.2

$$$$
ZINC23369516
 OpenBabel01081722263D

 25 26  0  0  1  0  0  0  0  0999 V2000
  -29.0140   14.8900  -19.7430 C   0  0  0  0  0  0  0  0  0  0  0  0
  -29.9740   14.0470  -20.1890 C   0  0  0  0  0  0  0  0  0  0  0  0
  -31.0970   14.7910  -20.3180 N   0  0  0  0  0  0  0  0  0  0  0  0
  -30.8240   15.9990  -19.9650 N   0  0  0  0  0  0  0  0  0  0  0  0
  -29.5900   16.0900  -19.6170 N   0  0  0  0  0  0  0  0  0  0  0  0
  -27.5780   14.5420  -19.4440 C   0  0  0  0  0  0  0  0  0  0  0  0
  -26.9210   15.6840  -18.7960 N   0  0  0  0  0  0  0  0  0  0  0  0
  -27.3310   15.8340  -17.8740 H   0  0  0  0  0  0  0  0  0  0  0  0
  -25.9250   15.4940  -18.6980 H   0  0  0  0  0  0  0  0  0  0  0  0
  -27.0540   16.5200  -19.3650 H   0  0  0  0  0  0  0  0  0  0  0  0
  -28.2460   13.6670  -17.2010 C   0  0  0  0  0  0  0  0  0  0  0  0
  -27.5310   13.3300  -18.5110 C   0  0  0  0  0  0  0  0  0  0  0  0
  -26.8520   14.2090  -20.7490 C   0  0  0  0  0  0  0  0  0  0  0  0
  -26.0580   12.9130  -20.5750 C   0  0  0  0  0  0  0  0  0  0  0  0
  -32.4010   14.3040  -20.7760 C   0  0  0  0  0  0  0  0  0  0  0  0
  -32.7090   12.9640  -20.1040 C   0  0  2  0  0  0  0  0  0  0  0  0
  -33.6630   12.1570  -20.9880 C   0  0  0  0  0  0  0  0  0  0  0  0
  -33.9460   10.8030  -20.3330 C   0  0  0  0  0  0  0  0  0  0  0  0
  -34.6190   11.0280  -18.9750 C   0  0  0  0  0  0  0  0  0  0  0  0
  -33.7750   11.9230  -18.1710 N   0  0  0  0  0  0  0  0  0  0  0  0
  -33.3680   13.2140  -18.7440 C   0  0  0  0  0  0  0  0  0  0  0  0
  -33.2910   11.4860  -16.6500 S   0  0  0  0  0  0  0  0  0  0  0  0
  -33.0220   13.0540  -15.7770 C   0  0  0  0  0  0  0  0  0  0  0  0
  -32.0540   10.8140  -16.8410 O   0  0  0  0  0  0  0  0  0  0  0  0
  -34.4080   10.8030  -16.0970 O   0  0  0  0  0  0  0  0  0  0  0  0
  1  5  1  0  0  0  0
  1  6  1  0  0  0  0
  2  1  2  0  0  0  0
  3  2  1  0  0  0  0
  3  4  1  0  0  0  0
  4  5  2  0  0  0  0
  6  7  1  0  0  0  0
  6 12  1  0  0  0  0
  7  9  1  0  0  0  0
  7  8  1  0  0  0  0
 10  7  1  0  0  0  0
 12 11  1  0  0  0  0
 13 14  1  0  0  0  0
 13  6  1  0  0  0  0
 15  3  1  0  0  0  0
 16 15  1  6  0  0  0
 16 21  1  0  0  0  0
 17 18  1  0  0  0  0
 17 16  1  0  0  0  0
 18 19  1  0  0  0  0
 19 20  1  0  0  0  0
 20 22  1  0  0  0  0
 21 20  1  0  0  0  0
 22 25  2  0  0  0  0
 22 23  1  0  0  0  0
 24 22  2  0  0  0  0
M  END
>  <MODEL>
1

>  <REMARK>
 VINA RESULT:      -5.2      0.000      0.000
  Name = ZINC23369516
                            x       y       z     vdW  Elec       q    Type
                         _______ _______ _______ _____ _____    ______ ____

>  <TORSDO>
F 7

>  <vina_score>
-5.2

$$$$
ZINC19844186
 OpenBabel01081722283D

 23 24  0  0  0  0  0  0  0  0999 V2000
  -30.1360   13.3010  -17.9860 N   0  0  0  0  0  0  0  0  0  0  0  0
  -30.3230   13.9500  -19.2920 C   0  0  0  0  0  0  0  0  0  0  0  0
  -29.0690   14.7590  -19.6410 C   0  0  0  0  0  0  0  0  0  0  0  0
  -27.8990   13.8710  -19.5490 N   0  0  0  0  0  0  0  0  0  0  0  0
  -27.7210   13.0820  -18.3200 C   0  0  0  0  0  0  0  0  0  0  0  0
  -29.0270   12.3400  -18.0240 C   0  0  0  0  0  0  0  0  0  0  0  0
  -33.3440   12.7500  -16.2750 C   0  0  0  0  0  0  0  0  0  0  0  0
  -33.6530   11.4670  -16.7080 C   0  0  0  0  0  0  0  0  0  0  0  0
  -32.8000   10.8030  -17.5690 C   0  0  0  0  0  0  0  0  0  0  0  0
  -31.6330   11.4090  -17.9930 C   0  0  0  0  0  0  0  0  0  0  0  0
  -31.3160   12.6890  -17.5590 C   0  0  0  0  0  0  0  0  0  0  0  0
  -32.1740   13.3600  -16.6980 C   0  0  0  0  0  0  0  0  0  0  0  0
  -34.8300   12.6230  -14.4230 C   0  0  0  0  0  0  0  0  0  0  0  0
  -34.1860   13.4040  -15.4320 O   0  0  0  0  0  0  0  0  0  0  0  0
  -26.8140   13.7620  -20.7950 S   0  0  0  0  0  0  0  0  0  0  0  0
  -26.1310   12.5360  -20.5740 O   0  0  0  0  0  0  0  0  0  0  0  0
  -26.1130   14.9980  -20.7720 O   0  0  0  0  0  0  0  0  0  0  0  0
  -27.8330   13.6490  -22.2910 C   0  0  0  0  0  0  0  0  0  0  0  0
  -28.1440   12.1810  -22.5870 C   0  0  0  0  0  0  0  0  0  0  0  0
  -29.0890   11.6690  -21.5870 N   0  0  0  0  0  0  0  0  0  0  0  0
  -29.2660   10.6790  -21.7610 H   0  0  0  0  0  0  0  0  0  0  0  0
  -28.6940   11.7840  -20.6540 H   0  0  0  0  0  0  0  0  0  0  0  0
  -29.9650   12.1870  -21.6510 H   0  0  0  0  0  0  0  0  0  0  0  0
  1 11  1  0  0  0  0
  2  1  1  0  0  0  0
  3  4  1  0  0  0  0
  3  2  1  0  0  0  0
  4  5  1  0  0  0  0
  5  6  1  0  0  0  0
  6  1  1  0  0  0  0
  7 14  1  0  0  0  0
  8  7  2  0  0  0  0
  9  8  1  0  0  0  0
 10  9  2  0  0  0  0
 10 11  1  0  0  0  0
 11 12  2  0  0  0  0
 12  7  1  0  0  0  0
 14 13  1  0  0  0  0
 15 17  2  0  0  0  0
 15 16  2  0  0  0  0
 15  4  1  0  0  0  0
 18 15  1  0  0  0  0
 19 18  1  0  0  0  0
 19 20  1  0  0  0  0
 20 22  1  0  0  0  0
 21 20  1  0  0  0  0
 23 20  1  0  0  0  0
M  END
>  <MODEL>
1

>  <REMARK>
 VINA RESULT:      -5.2      0.000      0.000
  Name = ZINC19844186
                            x       y       z     vdW  Elec       q    Type
                         _______ _______ _______ _____ _____    ______ ____

>  <TORSDO>
F 6

>  <vina_score>
-5.2

$$$$
ZINC06282102
 OpenBabel01081722303D

 30 31  0  0  0  0  0  0  0  0999 V2000
  -32.8520   13.6630  -21.1990 C   0  0  0  0  0  0  0  0  0  0  0  0
  -31.5480   13.0750  -21.6710 C   0  0  0  0  0  0  0  0  0  0  0  0
  -31.5450   12.1920  -22.5050 O   0  0  0  0  0  0  0  0  0  0  0  0
  -30.3270   13.5510  -21.1440 C   0  0  0  0  0  0  0  0  0  0  0  0
  -29.1250   12.8550  -21.3590 C   0  0  0  0  0  0  0  0  0  0  0  0
  -27.9690   13.3590  -20.8330 N   0  0  0  0  0  0  0  0  0  0  0  0
  -26.7090   12.6450  -21.0550 C   0  0  0  0  0  0  0  0  0  0  0  0
  -27.9650   14.4910  -20.1120 C   0  0  0  0  0  0  0  0  0  0  0  0
  -29.0820   15.1940  -19.8700 N   0  0  0  0  0  0  0  0  0  0  0  0
  -29.0070   16.4220  -19.0740 C   0  0  0  0  0  0  0  0  0  0  0  0
  -26.9110   14.8940  -19.6620 O   0  0  0  0  0  0  0  0  0  0  0  0
  -30.2760   14.7840  -20.3500 C   0  0  0  0  0  0  0  0  0  0  0  0
  -31.2870   15.4250  -20.1290 O   0  0  0  0  0  0  0  0  0  0  0  0
  -29.1110   11.7040  -22.0810 N   0  0  0  0  0  0  0  0  0  0  0  0
  -29.0740   11.7390  -23.0640 H   0  0  0  0  0  0  0  0  0  0  0  0
  -29.1400   10.8340  -21.6220 H   0  0  0  0  0  0  0  0  0  0  0  0
  -33.9210   12.7050  -21.4180 O   0  0  0  0  0  0  0  0  0  0  0  0
  -34.3410   12.0060  -20.3510 C   0  0  0  0  0  0  0  0  0  0  0  0
  -35.3430   12.3430  -19.7650 O   0  0  0  0  0  0  0  0  0  0  0  0
  -33.5640   10.8030  -19.8840 C   0  0  0  0  0  0  0  0  0  0  0  0
  -33.3130   10.9130  -18.4810 O   0  0  0  0  0  0  0  0  0  0  0  0
  -28.6420   13.6590  -16.9270 C   0  0  0  0  0  0  0  0  0  0  0  0
  -29.8920   12.9260  -17.3420 C   0  0  0  0  0  0  0  0  0  0  0  0
  -29.7990   11.7950  -18.1300 C   0  0  0  0  0  0  0  0  0  0  0  0
  -30.9440   11.1230  -18.5170 C   0  0  0  0  0  0  0  0  0  0  0  0
  -32.1860   11.5770  -18.1050 C   0  0  0  0  0  0  0  0  0  0  0  0
  -32.2790   12.7130  -17.3070 C   0  0  0  0  0  0  0  0  0  0  0  0
  -31.1280   13.3850  -16.9270 C   0  0  0  0  0  0  0  0  0  0  0  0
  -33.4970   13.1630  -16.9020 O   0  0  0  0  0  0  0  0  0  0  0  0
  -33.9710   12.6990  -15.6360 C   0  0  0  0  0  0  0  0  0  0  0  0
  2  1  1  0  0  0  0
  2  4  1  0  0  0  0
  3  2  2  0  0  0  0
  4 12  1  0  0  0  0
  5  4  2  0  0  0  0
  5  6  1  0  0  0  0
  6  8  1  0  0  0  0
  7  6  1  0  0  0  0
  8  9  1  0  0  0  0
  8 11  2  0  0  0  0
  9 10  1  0  0  0  0
 12 13  2  0  0  0  0
 12  9  1  0  0  0  0
 14 16  1  0  0  0  0
 14  5  1  0  0  0  0
 15 14  1  0  0  0  0
 17  1  1  0  0  0  0
 17 18  1  0  0  0  0
 18 20  1  0  0  0  0
 18 19  2  0  0  0  0
 20 21  1  0  0  0  0
 21 26  1  0  0  0  0
 23 22  1  0  0  0  0
 23 28  2  0  0  0  0
 24 23  1  0  0  0  0
 25 24  2  0  0  0  0
 25 26  1  0  0  0  0
 26 27  2  0  0  0  0
 27 28  1  0  0  0  0
 27 29  1  0  0  0  0
 29 30  1  0  0  0  0
M  END
>  <MODEL>
1

>  <REMARK>
 VINA RESULT:      -5.1      0.000      0.000
  Name = ZINC06282102
                            x       y       z     vdW  Elec       q    Type
                         _______ _______ _______ _____ _____    ______ ____

>  <TORSDO>
F 9

>  <vina_score>
-5.1

$$$$
ZINC05734855
 OpenBabel01081722073D

 27 28  0  0  1  0  0  0  0  0999 V2000
  -28.6250   14.2890  -18.4580 N   0  0  0  0  0  0  0  0  0  0  0  0
  -29.7800   13.8270  -19.0210 C   0  0  0  0  0  0  0  0  0  0  0  0
  -30.0860   12.5170  -18.9720 O   0  0  0  0  0  0  0  0  0  0  0  0
  -30.6390   14.7320  -19.6470 C   0  0  1  0  0  0  0  0  0  0  0  0
  -30.2490   16.1460  -19.6730 C   0  0  0  0  0  0  0  0  0  0  0  0
  -29.0900   16.5090  -19.0850 N   0  0  0  0  0  0  0  0  0  0  0  0
  -28.8180   17.4540  -19.0860 H   0  0  0  0  0  0  0  0  0  0  0  0
  -30.9590   16.9760  -20.2100 O   0  0  0  0  0  0  0  0  0  0  0  0
  -28.3020   15.5930  -18.4970 C   0  0  0  0  0  0  0  0  0  0  0  0
  -27.2630   15.9550  -17.9830 O   0  0  0  0  0  0  0  0  0  0  0  0
  -31.8900   14.2820  -20.2640 C   0  0  0  0  0  0  0  0  0  0  0  0
  -31.9400   13.1330  -20.8670 N   0  0  0  0  0  0  0  0  0  0  0  0
  -33.1890   12.6830  -21.4840 C   0  0  0  0  0  0  0  0  0  0  0  0
  -33.7580   11.5090  -20.6850 C   0  0  0  0  0  0  0  0  0  0  0  0
  -34.4320   12.0350  -19.4170 C   0  0  0  0  0  0  0  0  0  0  0  0
  -33.5300   11.8610  -18.2760 N   0  0  0  0  0  0  0  0  0  0  0  0
  -33.3270   12.7610  -17.3020 C   0  0  0  0  0  0  0  0  0  0  0  0
  -32.4350   12.2450  -16.4360 C   0  0  0  0  0  0  0  0  0  0  0  0
  -32.0970   11.0050  -16.9080 N   0  0  0  0  0  0  0  0  0  0  0  0
  -31.4600   10.3770  -16.4960 H   0  0  0  0  0  0  0  0  0  0  0  0
  -32.8000   10.8040  -18.0440 C   0  0  0  0  0  0  0  0  0  0  0  0
  -27.7190   13.3450  -17.7990 C   0  0  0  0  0  0  0  0  0  0  0  0
  -26.3860   13.3080  -18.5500 C   0  0  0  0  0  0  0  0  0  0  0  0
  -26.6290   12.8790  -19.9990 C   0  0  0  0  0  0  0  0  0  0  0  0
  -26.4220   14.0770  -20.9270 C   0  0  0  0  0  0  0  0  0  0  0  0
  -28.2340   12.7610  -22.0340 C   0  0  0  0  0  0  0  0  0  0  0  0
  -27.5580   14.1310  -21.9510 C   0  0  0  0  0  0  0  0  0  0  0  0
  1 22  1  0  0  0  0
  2  3  2  0  0  0  0
  2  1  1  0  0  0  0
  4 11  1  6  0  0  0
  4  2  1  0  0  0  0
  5  4  1  0  0  0  0
  5  6  1  0  0  0  0
  6  9  1  0  0  0  0
  7  6  1  0  0  0  0
  8  5  2  0  0  0  0
  9  1  1  0  0  0  0
  9 10  2  0  0  0  0
 12 11  2  0  0  0  0
 13 12  1  0  0  0  0
 13 14  1  0  0  0  0
 14 15  1  0  0  0  0
 15 16  1  0  0  0  0
 16 21  1  0  0  0  0
 16 17  1  0  0  0  0
 17 18  2  0  0  0  0
 19 20  1  0  0  0  0
 19 18  1  0  0  0  0
 21 19  1  0  0  0  0
 23 22  1  0  0  0  0
 24 23  1  0  0  0  0
 25 24  1  0  0  0  0
 26 27  1  0  0  0  0
 27 25  1  0  0  0  0
M  END
>  <MODEL>
1

>  <REMARK>
 VINA RESULT:      -5.1      0.000      0.000
  Name = ZINC05734855
                            x       y       z     vdW  Elec       q    Type
                         _______ _______ _______ _____ _____    ______ ____

>  <TORSDO>
F 10

>  <vina_score>
-5.1

$$$$
ZINC29829504
 OpenBabel01081722053D

 27 29  0  0  0  0  0  0  0  0999 V2000
  -28.2720   12.8620  -21.6900 C   0  0  0  0  0  0  0  0  0  0  0  0
  -27.3090   12.3160  -20.9220 N   0  0  0  0  0  0  0  0  0  0  0  0
  -27.5480   11.6700  -20.2180 H   0  0  0  0  0  0  0  0  0  0  0  0
  -27.9770   13.6600  -22.5590 O   0  0  0  0  0  0  0  0  0  0  0  0
  -31.3830   10.8100  -21.2210 C   0  0  0  0  0  0  0  0  0  0  0  0
  -30.0610   11.1480  -21.4220 C   0  0  0  0  0  0  0  0  0  0  0  0
  -29.6870   12.4920  -21.4770 C   0  0  0  0  0  0  0  0  0  0  0  0
  -30.6570   13.4860  -21.3290 C   0  0  0  0  0  0  0  0  0  0  0  0
  -31.9760   13.1340  -21.1280 C   0  0  0  0  0  0  0  0  0  0  0  0
  -32.3380   11.8010  -21.0750 C   0  0  0  0  0  0  0  0  0  0  0  0
  -33.7810   11.4240  -20.8560 C   0  0  0  0  0  0  0  0  0  0  0  0
  -34.5110   12.5240  -19.6180 S   0  0  0  0  0  0  0  0  0  0  0  0
  -33.5430   12.0880  -18.2110 C   0  0  0  0  0  0  0  0  0  0  0  0
  -33.1520   12.9240  -17.2250 N   0  0  0  0  0  0  0  0  0  0  0  0
  -32.4000   12.1490  -16.3270 N   0  0  0  0  0  0  0  0  0  0  0  0
  -32.3810   10.9310  -16.7960 C   0  0  0  0  0  0  0  0  0  0  0  0
  -33.0710   10.8910  -17.9360 N   0  0  0  0  0  0  0  0  0  0  0  0
  -25.9070   12.6830  -21.1330 C   0  0  0  0  0  0  0  0  0  0  0  0
  -25.4280   13.5570  -19.9720 C   0  0  0  0  0  0  0  0  0  0  0  0
  -26.0780   13.1220  -18.7340 N   0  0  0  0  0  0  0  0  0  0  0  0
  -25.6160   12.4990  -18.1270 H   0  0  0  0  0  0  0  0  0  0  0  0
  -27.3480   13.5900  -18.4140 C   0  0  0  0  0  0  0  0  0  0  0  0
  -27.6150   14.9570  -18.4380 C   0  0  0  0  0  0  0  0  0  0  0  0
  -28.8220   15.3960  -18.1360 N   0  0  0  0  0  0  0  0  0  0  0  0
  -29.7770   14.5400  -17.8100 C   0  0  0  0  0  0  0  0  0  0  0  0
  -29.5150   13.1840  -17.7860 C   0  0  0  0  0  0  0  0  0  0  0  0
  -28.3100   12.7350  -18.0920 N   0  0  0  0  0  0  0  0  0  0  0  0
  1  7  1  0  0  0  0
  1  2  1  0  0  0  0
  2  3  1  0  0  0  0
  4  1  2  0  0  0  0
  5 10  2  0  0  0  0
  6  5  1  0  0  0  0
  7  6  2  0  0  0  0
  7  8  1  0  0  0  0
  8  9  2  0  0  0  0
  9 10  1  0  0  0  0
 10 11  1  0  0  0  0
 11 12  1  0  0  0  0
 12 13  1  0  0  0  0
 13 17  2  0  0  0  0
 13 14  1  0  0  0  0
 14 15  1  0  0  0  0
 16 15  2  0  0  0  0
 17 16  1  0  0  0  0
 18  2  1  0  0  0  0
 18 19  1  0  0  0  0
 19 20  1  0  0  0  0
 20 22  1  0  0  0  0
 20 21  1  0  0  0  0
 22 27  1  0  0  0  0
 23 22  2  0  0  0  0
 23 24  1  0  0  0  0
 24 25  2  0  0  0  0
 25 26  1  0  0  0  0
 27 26  2  0  0  0  0
M  END
>  <MODEL>
1

>  <REMARK>
 VINA RESULT:      -5.1      0.000      0.000
  Name = ZINC29829504
                            x       y       z     vdW  Elec       q    Type
                         _______ _______ _______ _____ _____    ______ ____

>  <TORSDO>
F 8

>  <vina_score>
-5.1

$$$$
ZINC00389139
 OpenBabel01081722093D

 26 27  0  0  0  0  0  0  0  0999 V2000
  -33.1340   11.2650  -18.9370 C   0  0  0  0  0  0  0  0  0  0  0  0
  -32.2880   11.4130  -19.9990 C   0  0  0  0  0  0  0  0  0  0  0  0
  -30.9880   11.8870  -19.7880 C   0  0  0  0  0  0  0  0  0  0  0  0
  -30.5580   12.2100  -18.4780 C   0  0  0  0  0  0  0  0  0  0  0  0
  -29.3040   12.6590  -18.3020 N   0  0  0  0  0  0  0  0  0  0  0  0
  -28.4950   12.8030  -19.3320 C   0  0  0  0  0  0  0  0  0  0  0  0
  -28.8590   12.5110  -20.5780 N   0  0  0  0  0  0  0  0  0  0  0  0
  -31.4420   12.0510  -17.4040 C   0  0  0  0  0  0  0  0  0  0  0  0
  -30.0730   12.0570  -20.8560 C   0  0  0  0  0  0  0  0  0  0  0  0
  -32.7160   11.5830  -17.6380 C   0  0  0  0  0  0  0  0  0  0  0  0
  -30.4360   11.7580  -22.1530 N   0  0  0  0  0  0  0  0  0  0  0  0
  -30.7030   10.8400  -22.3900 H   0  0  0  0  0  0  0  0  0  0  0  0
  -30.4280   12.4620  -22.8400 H   0  0  0  0  0  0  0  0  0  0  0  0
  -34.8770   10.8030  -20.4890 C   0  0  0  0  0  0  0  0  0  0  0  0
  -34.3980   10.8040  -19.1420 O   0  0  0  0  0  0  0  0  0  0  0  0
  -33.5760   11.4280  -16.5980 O   0  0  0  0  0  0  0  0  0  0  0  0
  -33.9600   12.6100  -15.8920 C   0  0  0  0  0  0  0  0  0  0  0  0
  -27.2120   13.2730  -19.1100 N   0  0  0  0  0  0  0  0  0  0  0  0
  -26.9180   14.0540  -17.9050 C   0  0  0  0  0  0  0  0  0  0  0  0
  -27.9730   15.1500  -17.7390 C   0  0  0  0  0  0  0  0  0  0  0  0
  -27.9860   15.9790  -18.9030 O   0  0  0  0  0  0  0  0  0  0  0  0
  -27.1420   15.8920  -19.3710 H   0  0  0  0  0  0  0  0  0  0  0  0
  -26.1500   12.9890  -20.0770 C   0  0  0  0  0  0  0  0  0  0  0  0
  -25.7870   14.2720  -20.8290 C   0  0  0  0  0  0  0  0  0  0  0  0
  -26.9530   14.7910  -21.4720 O   0  0  0  0  0  0  0  0  0  0  0  0
  -26.7800   15.6950  -21.7770 H   0  0  0  0  0  0  0  0  0  0  0  0
  1 10  2  0  0  0  0
  2  3  2  0  0  0  0
  2  1  1  0  0  0  0
  3  4  1  0  0  0  0
  4  5  1  0  0  0  0
  4  8  2  0  0  0  0
  6 18  1  0  0  0  0
  6  5  2  0  0  0  0
  7  6  1  0  0  0  0
  9  7  2  0  0  0  0
  9  3  1  0  0  0  0
 10  8  1  0  0  0  0
 10 16  1  0  0  0  0
 11  9  1  0  0  0  0
 12 11  1  0  0  0  0
 13 11  1  0  0  0  0
 14 15  1  0  0  0  0
 15  1  1  0  0  0  0
 16 17  1  0  0  0  0
 18 19  1  0  0  0  0
 19 20  1  0  0  0  0
 21 20  1  0  0  0  0
 22 21  1  0  0  0  0
 23 18  1  0  0  0  0
 24 23  1  0  0  0  0
 25 24  1  0  0  0  0
 26 25  1  0  0  0  0
M  END
>  <MODEL>
1

>  <REMARK>
 VINA RESULT:      -5.1      0.000      0.000
  Name = ZINC00389139
                            x       y       z     vdW  Elec       q    Type
                         _______ _______ _______ _____ _____    ______ ____

>  <TORSDO>
F 10

>  <vina_score>
-5.1

$$$$
ZINC17379574
 OpenBabel01081722223D

 31 31  0  0  0  0  0  0  0  0999 V2000
  -29.5290   13.1660  -19.1710 N   0  0  0  0  0  0  0  0  0  0  0  0
  -29.8070   14.5010  -19.2840 C   0  0  0  0  0  0  0  0  0  0  0  0
  -30.9480   14.8970  -19.8880 C   0  0  0  0  0  0  0  0  0  0  0  0
  -31.8370   13.9170  -20.3900 C   0  0  0  0  0  0  0  0  0  0  0  0
  -31.5240   12.6120  -20.2630 N   0  0  0  0  0  0  0  0  0  0  0  0
  -32.8750   14.2510  -20.9330 O   0  0  0  0  0  0  0  0  0  0  0  0
  -30.3810   12.2440  -19.6560 C   0  0  0  0  0  0  0  0  0  0  0  0
  -30.1130   11.0640  -19.5460 O   0  0  0  0  0  0  0  0  0  0  0  0
  -31.2650   16.3370  -20.0190 N   0  0  0  0  0  0  0  0  0  0  0  0
  -30.3690   17.1450  -20.1870 O   0  0  0  0  0  0  0  0  0  0  0  0
  -32.4210   16.7140  -19.9550 O   0  0  0  0  0  0  0  0  0  0  0  0
  -28.2910   12.7360  -18.5150 C   0  0  0  0  0  0  0  0  0  0  0  0
  -26.5270   13.3590  -20.0460 N   0  0  0  0  0  0  0  0  0  0  0  0
  -27.1540   13.6210  -18.9610 C   0  0  0  0  0  0  0  0  0  0  0  0
  -26.9790   12.3320  -20.8850 N   0  0  0  0  0  0  0  0  0  0  0  0
  -26.7810   11.3940  -20.6660 H   0  0  0  0  0  0  0  0  0  0  0  0
  -27.6880   12.6300  -21.9930 C   0  0  0  0  0  0  0  0  0  0  0  0
  -28.8200   11.5060  -22.6120 S   0  0  0  0  0  0  0  0  0  0  0  0
  -27.9820   15.0480  -21.9880 C   0  0  0  0  0  0  0  0  0  0  0  0
  -27.5040   13.8130  -22.6120 N   0  0  0  0  0  0  0  0  0  0  0  0
  -27.0470   13.8460  -23.4840 H   0  0  0  0  0  0  0  0  0  0  0  0
  -32.4350   11.5890  -20.7830 C   0  0  0  0  0  0  0  0  0  0  0  0
  -33.1640   10.9360  -19.6370 C   0  0  0  0  0  0  0  0  0  0  0  0
  -33.0600   11.4150  -18.4550 N   0  0  0  0  0  0  0  0  0  0  0  0
  -33.7380   10.8080  -17.3900 N   0  0  0  0  0  0  0  0  0  0  0  0
  -34.1750    9.9350  -17.5180 H   0  0  0  0  0  0  0  0  0  0  0  0
  -33.7920   11.4190  -16.1900 C   0  0  0  0  0  0  0  0  0  0  0  0
  -33.1040   12.9730  -15.9890 S   0  0  0  0  0  0  0  0  0  0  0  0
  -34.3870   10.8060  -15.1480 N   0  0  0  0  0  0  0  0  0  0  0  0
  -34.2500    9.8420  -15.0000 H   0  0  0  0  0  0  0  0  0  0  0  0
  -35.2360   11.5730  -14.2340 C   0  0  0  0  0  0  0  0  0  0  0  0
  1 12  1  0  0  0  0
  2  1  1  0  0  0  0
  3  2  2  0  0  0  0
  4  5  1  0  0  0  0
  4  3  1  0  0  0  0
  5  7  1  0  0  0  0
  6  4  2  0  0  0  0
  7  8  2  0  0  0  0
  7  1  1  0  0  0  0
  9 11  2  0  0  0  0
  9  3  1  0  0  0  0
 10  9  2  0  0  0  0
 13 14  2  0  0  0  0
 14 12  1  0  0  0  0
 15 16  1  0  0  0  0
 15 13  1  0  0  0  0
 17 15  1  0  0  0  0
 18 17  2  0  0  0  0
 20 17  1  0  0  0  0
 20 19  1  0  0  0  0
 21 20  1  0  0  0  0
 22  5  1  0  0  0  0
 22 23  1  0  0  0  0
 23 24  2  0  0  0  0
 24 25  1  0  0  0  0
 25 27  1  0  0  0  0
 26 25  1  0  0  0  0
 27 28  2  0  0  0  0
 27 29  1  0  0  0  0
 29 30  1  0  0  0  0
 29 31  1  0  0  0  0
M  END
>  <MODEL>
1

>  <REMARK>
 VINA RESULT:      -5.0      0.000      0.000
  Name = ZINC17379574
                            x       y       z     vdW  Elec       q    Type
                         _______ _______ _______ _____ _____    ______ ____

>  <TORSDO>
F 11

>  <vina_score>
-5.0

$$$$
ZINC05734955
 OpenBabel01081722273D

 17 16  0  0  1  0  0  0  0  0999 V2000
  -30.3120   14.1880  -18.3450 C   0  0  0  0  0  0  0  0  0  0  0  0
  -29.0820   13.5530  -18.9960 C   0  0  0  0  0  0  0  0  0  0  0  0
  -29.3140   12.0500  -19.1670 C   0  0  0  0  0  0  0  0  0  0  0  0
  -27.8590   13.7800  -18.1050 C   0  0  0  0  0  0  0  0  0  0  0  0
  -28.8570   14.1490  -20.2740 O   0  0  0  0  0  0  0  0  0  0  0  0
  -27.7820   13.5810  -21.3300 P   0  0  0  0  0  0  0  0  0  0  0  0
  -28.4930   12.5040  -22.2940 O   0  0  0  0  0  0  0  0  0  0  0  0
  -26.5720   12.8740  -20.5370 O   0  0  0  0  0  0  0  0  0  0  0  0
  -27.2530   14.6970  -22.1440 O   0  0  0  0  0  0  0  0  0  0  0  0
  -31.5770   13.5160  -18.8820 C   0  0  0  0  0  0  0  0  0  0  0  0
  -32.2390   14.4290  -19.9160 C   0  0  0  0  0  0  0  0  0  0  0  0
  -33.4500   12.3850  -20.6940 C   0  0  0  0  0  0  0  0  0  0  0  0
  -32.6400   13.6040  -21.1420 C   0  0  2  0  0  0  0  0  0  0  0  0
  -31.4210   13.1440  -21.8300 N   0  0  0  0  0  0  0  0  0  0  0  0
  -31.5120   13.3140  -22.8320 H   0  0  0  0  0  0  0  0  0  0  0  0
  -30.6150   13.6550  -21.4720 H   0  0  0  0  0  0  0  0  0  0  0  0
  -31.2930   12.1460  -21.6640 H   0  0  0  0  0  0  0  0  0  0  0  0
  2  1  1  0  0  0  0
  2  4  1  0  0  0  0
  3  2  1  0  0  0  0
  5  2  1  0  0  0  0
  6  8  1  0  0  0  0
  6  5  1  0  0  0  0
  7  6  2  0  0  0  0
  9  6  1  0  0  0  0
 10  1  1  0  0  0  0
 11 10  1  0  0  0  0
 13 14  1  1  0  0  0
 13 12  1  0  0  0  0
 13 11  1  0  0  0  0
 14 17  1  0  0  0  0
 14 16  1  0  0  0  0
 15 14  1  0  0  0  0
M  END
>  <MODEL>
1

>  <REMARK>
 VINA RESULT:      -5.0      0.000      0.000
  Name = ZINC05734955
                            x       y       z     vdW  Elec       q    Type
                         _______ _______ _______ _____ _____    ______ ____

>  <TORSDO>
F 7

>  <vina_score>
-5.0

$$$$
ZINC09325686
 OpenBabel01081722063D

 27 28  0  0  1  0  0  0  0  0999 V2000
  -32.6280   10.8030  -20.5070 C   0  0  1  0  0  0  0  0  0  0  0  0
  -31.8570   11.4160  -19.4090 N   0  0  0  0  0  0  0  0  0  0  0  0
  -31.2540   10.7080  -18.9910 H   0  0  0  0  0  0  0  0  0  0  0  0
  -31.2930   12.1810  -19.7800 H   0  0  0  0  0  0  0  0  0  0  0  0
  -32.7680   11.9410  -18.3750 C   0  0  0  0  0  0  0  0  0  0  0  0
  -32.0790   13.0890  -17.6350 C   0  0  0  0  0  0  0  0  0  0  0  0
  -30.5690   12.8400  -17.5980 C   0  0  0  0  0  0  0  0  0  0  0  0
  -29.8630   14.0640  -17.9830 N   0  0  0  0  0  0  0  0  0  0  0  0
  -28.8070   14.6350  -17.3250 C   0  0  0  0  0  0  0  0  0  0  0  0
  -28.4660   15.7380  -18.0180 C   0  0  0  0  0  0  0  0  0  0  0  0
  -29.2980   15.8450  -19.0650 N   0  0  0  0  0  0  0  0  0  0  0  0
  -30.1370   14.8450  -19.0510 C   0  0  0  0  0  0  0  0  0  0  0  0
  -34.0010   11.4200  -20.5630 C   0  0  0  0  0  0  0  0  0  0  0  0
  -34.1740   12.6230  -21.1320 O   0  0  0  0  0  0  0  0  0  0  0  0
  -34.9480   10.8320  -20.0940 O   0  0  0  0  0  0  0  0  0  0  0  0
  -31.9020   11.0550  -21.8310 C   0  0  0  0  0  0  0  0  0  0  0  0
  -29.5130   11.6910  -21.7260 N   0  0  0  0  0  0  0  0  0  0  0  0
  -29.2890   10.7780  -22.0220 H   0  0  0  0  0  0  0  0  0  0  0  0
  -30.8040   12.0640  -21.6170 C   0  0  0  0  0  0  0  0  0  0  0  0
  -31.0810   13.2140  -21.3470 O   0  0  0  0  0  0  0  0  0  0  0  0
  -27.2040   14.5400  -21.9840 C   0  0  0  0  0  0  0  0  0  0  0  0
  -28.2070   13.6420  -22.2920 C   0  0  0  0  0  0  0  0  0  0  0  0
  -28.4940   12.5990  -21.4210 C   0  0  0  0  0  0  0  0  0  0  0  0
  -27.7630   12.4550  -20.2490 C   0  0  0  0  0  0  0  0  0  0  0  0
  -26.7610   13.3580  -19.9470 C   0  0  0  0  0  0  0  0  0  0  0  0
  -25.8500   13.1830  -18.4790 Cl  0  0  0  0  0  0  0  0  0  0  0  0
  -26.4820   14.3990  -20.8140 C   0  0  0  0  0  0  0  0  0  0  0  0
  1 16  1  6  0  0  0
  1  2  1  0  0  0  0
  2  3  1  0  0  0  0
  2  5  1  0  0  0  0
  4  2  1  0  0  0  0
  5  6  1  0  0  0  0
  6  7  1  0  0  0  0
  8  7  1  0  0  0  0
  8  9  1  0  0  0  0
 10  9  2  0  0  0  0
 11 12  2  0  0  0  0
 11 10  1  0  0  0  0
 12  8  1  0  0  0  0
 13  1  1  0  0  0  0
 13 15  1  0  0  0  0
 14 13  2  0  0  0  0
 16 19  1  0  0  0  0
 17 19  1  0  0  0  0
 17 23  1  0  0  0  0
 18 17  1  0  0  0  0
 19 20  2  0  0  0  0
 21 27  1  0  0  0  0
 22 21  2  0  0  0  0
 22 23  1  0  0  0  0
 23 24  2  0  0  0  0
 24 25  1  0  0  0  0
 25 26  1  0  0  0  0
 27 25  2  0  0  0  0
M  END
>  <MODEL>
1

>  <REMARK>
 VINA RESULT:      -5.0      0.000      0.000
  Name = ZINC09325686
                            x       y       z     vdW  Elec       q    Type
                         _______ _______ _______ _____ _____    ______ ____

>  <TORSDO>
F 9

>  <vina_score>
-5.0

$$$$
ZINC02538462
 OpenBabel01081722023D

 25 26  0  0  1  0  0  0  0  0999 V2000
  -30.1000   14.8310  -19.8870 C   0  0  0  0  0  0  0  0  0  0  0  0
  -30.5530   16.1520  -19.9580 C   0  0  0  0  0  0  0  0  0  0  0  0
  -31.8850   16.3780  -20.2480 C   0  0  0  0  0  0  0  0  0  0  0  0
  -32.6880   15.3440  -20.4490 N   0  0  0  0  0  0  0  0  0  0  0  0
  -32.2330   14.1010  -20.3760 C   0  0  0  0  0  0  0  0  0  0  0  0
  -30.9650   13.8410  -20.0960 N   0  0  0  0  0  0  0  0  0  0  0  0
  -26.5630   14.0290  -19.7980 N   0  0  0  0  0  0  0  0  0  0  0  0
  -27.7070   14.2180  -20.4820 C   0  0  0  0  0  0  0  0  0  0  0  0
  -27.8820   14.0990  -21.9750 C   0  0  0  0  0  0  0  0  0  0  0  0
  -28.6800   14.5380  -19.5790 C   0  0  0  0  0  0  0  0  0  0  0  0
  -28.0890   14.5320  -18.2990 C   0  0  0  0  0  0  0  0  0  0  0  0
  -28.7910   14.8240  -16.9980 C   0  0  0  0  0  0  0  0  0  0  0  0
  -26.8260   14.2270  -18.4380 N   0  0  0  0  0  0  0  0  0  0  0  0
  -25.2470   12.1770  -20.7040 C   0  0  0  0  0  0  0  0  0  0  0  0
  -25.2650   13.6720  -20.3790 C   0  0  0  0  0  0  0  0  0  0  0  0
  -33.3440   12.7620  -20.6530 S   0  0  0  0  0  0  0  0  0  0  0  0
  -34.0060   12.5530  -18.9810 C   0  0  0  0  0  0  0  0  0  0  0  0
  -33.1120   11.5920  -18.1940 C   0  0  1  0  0  0  0  0  0  0  0  0
  -32.1620   10.9550  -19.1230 N   0  0  0  0  0  0  0  0  0  0  0  0
  -32.0370   11.5500  -19.9420 H   0  0  0  0  0  0  0  0  0  0  0  0
  -31.2650   10.8250  -18.6560 H   0  0  0  0  0  0  0  0  0  0  0  0
  -32.5270   10.0480  -19.4150 H   0  0  0  0  0  0  0  0  0  0  0  0
  -32.3730   12.3550  -17.1250 C   0  0  0  0  0  0  0  0  0  0  0  0
  -31.0710   12.1130  -16.9070 O   0  0  0  0  0  0  0  0  0  0  0  0
  -32.9510   13.1880  -16.4680 O   0  0  0  0  0  0  0  0  0  0  0  0
  1 10  1  0  0  0  0
  2  1  1  0  0  0  0
  3  2  2  0  0  0  0
  4  5  2  0  0  0  0
  4  3  1  0  0  0  0
  5  6  1  0  0  0  0
  6  1  2  0  0  0  0
  7 13  1  0  0  0  0
  8  7  1  0  0  0  0
  8 10  2  0  0  0  0
  9  8  1  0  0  0  0
 10 11  1  0  0  0  0
 11 12  1  0  0  0  0
 13 11  2  0  0  0  0
 14 15  1  0  0  0  0
 15  7  1  0  0  0  0
 16  5  1  0  0  0  0
 16 17  1  0  0  0  0
 17 18  1  0  0  0  0
 18 19  1  6  0  0  0
 18 23  1  0  0  0  0
 19 21  1  0  0  0  0
 20 19  1  0  0  0  0
 22 19  1  0  0  0  0
 23 24  2  0  0  0  0
 23 25  1  0  0  0  0
M  END
>  <MODEL>
1

>  <REMARK>
 VINA RESULT:      -5.0      0.000      0.000
  Name = ZINC02538462
                            x       y       z     vdW  Elec       q    Type
                         _______ _______ _______ _____ _____    ______ ____

>  <TORSDO>
F 7

>  <vina_score>
-5.0

$$$$
ZINC19685094
 OpenBabel01081722093D

 26 27  0  0  1  0  0  0  0  0999 V2000
  -32.5310   12.9510  -17.7100 C   0  0  0  0  0  0  0  0  0  0  0  0
  -32.6150   12.9450  -19.1230 C   0  0  0  0  0  0  0  0  0  0  0  0
  -31.5280   13.3780  -19.8710 C   0  0  0  0  0  0  0  0  0  0  0  0
  -30.3800   13.8090  -19.1830 C   0  0  0  0  0  0  0  0  0  0  0  0
  -29.2450   14.2600  -19.8780 C   0  0  0  0  0  0  0  0  0  0  0  0
  -28.1480   14.6710  -19.1820 C   0  0  0  0  0  0  0  0  0  0  0  0
  -28.1370   14.6480  -17.7900 C   0  0  0  0  0  0  0  0  0  0  0  0
  -29.2200   14.2180  -17.0850 C   0  0  0  0  0  0  0  0  0  0  0  0
  -30.3710   13.7870  -17.7660 C   0  0  0  0  0  0  0  0  0  0  0  0
  -31.4450   13.3590  -17.0910 N   0  0  0  0  0  0  0  0  0  0  0  0
  -33.8090   12.4960  -19.7740 C   0  0  0  0  0  0  0  0  0  0  0  0
  -34.7550   12.1400  -20.2910 N   0  0  0  0  0  0  0  0  0  0  0  0
  -33.6140   12.5200  -16.9650 N   0  0  0  0  0  0  0  0  0  0  0  0
  -31.9390   10.8060  -16.4640 C   0  0  0  0  0  0  0  0  0  0  0  0
  -33.4330   11.1270  -16.5330 C   0  0  0  0  0  0  0  0  0  0  0  0
  -33.8470   13.4030  -15.8150 C   0  0  0  0  0  0  0  0  0  0  0  0
  -34.6130   12.6400  -14.7330 C   0  0  0  0  0  0  0  0  0  0  0  0
  -26.9320   15.1540  -19.9300 C   0  0  0  0  0  0  0  0  0  0  0  0
  -26.3120   13.9890  -20.7020 C   0  0  1  0  0  0  0  0  0  0  0  0
  -25.9950   12.8970  -19.7710 N   0  0  0  0  0  0  0  0  0  0  0  0
  -25.1620   13.1390  -19.2340 H   0  0  0  0  0  0  0  0  0  0  0  0
  -26.7790   12.7540  -19.1350 H   0  0  0  0  0  0  0  0  0  0  0  0
  -25.8230   12.0410  -20.2980 H   0  0  0  0  0  0  0  0  0  0  0  0
  -27.2870   13.4970  -21.7400 C   0  0  0  0  0  0  0  0  0  0  0  0
  -27.7310   12.2310  -21.6970 O   0  0  0  0  0  0  0  0  0  0  0  0
  -27.6710   14.2430  -22.6100 O   0  0  0  0  0  0  0  0  0  0  0  0
  1 10  2  0  0  0  0
  1 13  1  0  0  0  0
  2  1  1  0  0  0  0
  3  4  1  0  0  0  0
  3  2  2  0  0  0  0
  4  9  1  0  0  0  0
  5  4  2  0  0  0  0
  5  6  1  0  0  0  0
  6  7  2  0  0  0  0
  7  8  1  0  0  0  0
  9 10  1  0  0  0  0
  9  8  2  0  0  0  0
 11  2  1  0  0  0  0
 12 11  3  0  0  0  0
 13 15  1  0  0  0  0
 13 16  1  0  0  0  0
 15 14  1  0  0  0  0
 16 17  1  0  0  0  0
 18  6  1  0  0  0  0
 19 24  1  6  0  0  0
 19 18  1  0  0  0  0
 19 20  1  0  0  0  0
 20 21  1  0  0  0  0
 20 22  1  0  0  0  0
 23 20  1  0  0  0  0
 24 25  1  0  0  0  0
 26 24  2  0  0  0  0
M  END
>  <MODEL>
1

>  <REMARK>
 VINA RESULT:      -5.0      0.000      0.000
  Name = ZINC19685094
                            x       y       z     vdW  Elec       q    Type
                         _______ _______ _______ _____ _____    ______ ____

>  <TORSDO>
F 8

>  <vina_score>
-5.0

$$$$
ZINC31540682
 OpenBabel01081722193D

 40 41  0  0  1  0  0  0  0  0999 V2000
  -29.7430   11.2700  -20.9940 C   0  0  2  0  0  0  0  0  0  0  0  0
  -28.6540   12.3060  -20.8810 C   0  0  0  0  0  0  0  0  0  0  0  0
  -27.7350   12.2320  -19.8510 C   0  0  0  0  0  0  0  0  0  0  0  0
  -26.7290   13.1800  -19.7470 C   0  0  0  0  0  0  0  0  0  0  0  0
  -26.6530   14.2140  -20.6730 C   0  0  0  0  0  0  0  0  0  0  0  0
  -27.5820   14.2890  -21.7040 C   0  0  0  0  0  0  0  0  0  0  0  0
  -28.5820   13.3330  -21.8050 C   0  0  0  0  0  0  0  0  0  0  0  0
  -25.8230   13.1030  -18.7370 O   0  0  0  0  0  0  0  0  0  0  0  0
  -25.8370   13.7360  -18.0450 H   0  0  0  0  0  0  0  0  0  0  0  0
  -25.6710   15.1500  -20.5700 O   0  0  0  0  0  0  0  0  0  0  0  0
  -24.7840   14.9250  -20.7730 H   0  0  0  0  0  0  0  0  0  0  0  0
  -27.5110   15.2990  -22.6120 O   0  0  0  0  0  0  0  0  0  0  0  0
  -28.2450   15.8670  -22.7390 H   0  0  0  0  0  0  0  0  0  0  0  0
  -30.8700   11.8250  -21.7490 N   0  0  0  0  0  0  0  0  0  0  0  0
  -30.7420   12.1180  -22.6800 H   0  0  0  0  0  0  0  0  0  0  0  0
  -34.6100   12.1700  -19.9520 C   0  0  0  0  0  0  0  0  0  0  0  0
  -34.1130   10.9210  -20.2760 C   0  0  0  0  0  0  0  0  0  0  0  0
  -32.8730   10.8030  -20.8730 C   0  0  0  0  0  0  0  0  0  0  0  0
  -32.1240   11.9410  -21.1460 C   0  0  0  0  0  0  0  0  0  0  0  0
  -32.6260   13.1940  -20.8190 C   0  0  0  0  0  0  0  0  0  0  0  0
  -33.8650   13.3040  -20.2180 C   0  0  0  0  0  0  0  0  0  0  0  0
  -31.8180   14.4310  -21.1140 C   0  0  0  0  0  0  0  0  0  0  0  0
  -31.6510   15.2490  -19.8320 C   0  0  0  0  0  0  0  0  0  0  0  0
  -30.2630   15.8350  -19.7870 C   0  0  0  0  0  0  0  0  0  0  0  0
  -29.8840   16.6510  -20.6980 N   0  0  0  0  0  0  0  0  0  0  0  0
  -30.4980   16.8950  -21.4270 H   0  0  0  0  0  0  0  0  0  0  0  0
  -29.3390   15.4680  -18.6880 C   0  0  0  0  0  0  0  0  0  0  0  0
  -28.3100   16.2780  -18.3750 O   0  0  0  0  0  0  0  0  0  0  0  0
  -29.5080   14.4360  -18.0700 O   0  0  0  0  0  0  0  0  0  0  0  0
  -30.2140   10.8710  -19.5950 C   0  0  0  0  0  0  0  0  0  0  0  0
  -30.7220   12.0520  -18.8940 N   0  0  0  0  0  0  0  0  0  0  0  0
  -30.5630   12.9500  -19.2660 H   0  0  0  0  0  0  0  0  0  0  0  0
  -31.4060   11.9110  -17.7420 C   0  0  0  0  0  0  0  0  0  0  0  0
  -31.6020   10.8050  -17.2850 O   0  0  0  0  0  0  0  0  0  0  0  0
  -31.9290   13.1280  -17.0220 C   0  0  0  0  0  0  0  0  0  0  0  0
  -33.4330   12.9760  -16.7910 C   0  0  0  0  0  0  0  0  0  0  0  0
  -33.6660   12.2410  -15.5410 N   0  0  0  0  0  0  0  0  0  0  0  0
  -33.2600   12.7590  -14.7620 H   0  0  0  0  0  0  0  0  0  0  0  0
  -34.6690   12.1320  -15.3920 H   0  0  0  0  0  0  0  0  0  0  0  0
  -33.2290   11.3210  -15.6000 H   0  0  0  0  0  0  0  0  0  0  0  0
  1 14  1  6  0  0  0
  1  2  1  0  0  0  0
  1 30  1  0  0  0  0
  2  3  2  0  0  0  0
  3  4  1  0  0  0  0
  4  8  1  0  0  0  0
  5 10  1  0  0  0  0
  5  4  2  0  0  0  0
  6  5  1  0  0  0  0
  7  6  2  0  0  0  0
  7  2  1  0  0  0  0
  8  9  1  0  0  0  0
 11 10  1  0  0  0  0
 12  6  1  0  0  0  0
 13 12  1  0  0  0  0
 14 19  1  0  0  0  0
 15 14  1  0  0  0  0
 17 16  2  0  0  0  0
 18 17  1  0  0  0  0
 19 18  2  0  0  0  0
 19 20  1  0  0  0  0
 20 21  2  0  0  0  0
 21 16  1  0  0  0  0
 22 20  1  0  0  0  0
 22 23  1  0  0  0  0
 23 24  1  0  0  0  0
 24 27  1  0  0  0  0
 25 24  2  0  0  0  0
 26 25  1  0  0  0  0
 27 28  2  0  0  0  0
 27 29  1  0  0  0  0
 30 31  1  0  0  0  0
 31 33  1  0  0  0  0
 32 31  1  0  0  0  0
 33 34  2  0  0  0  0
 33 35  1  0  0  0  0
 35 36  1  0  0  0  0
 36 37  1  0  0  0  0
 37 39  1  0  0  0  0
 37 38  1  0  0  0  0
 40 37  1  0  0  0  0
M  END
>  <MODEL>
1

>  <REMARK>
 VINA RESULT:      -4.9      0.000      0.000
  Name = ZINC31540682
                            x       y       z     vdW  Elec       q    Type
                         _______ _______ _______ _____ _____    ______ ____

>  <TORSDO>
F 15

>  <vina_score>
-4.9

$$$$
ZINC27270879
 OpenBabel01081722263D

 28 29  0  0  1  0  0  0  0  0999 V2000
  -31.3320   12.9900  -18.5120 N   0  0  0  0  0  0  0  0  0  0  0  0
  -32.6710   12.9760  -18.3590 C   0  0  0  0  0  0  0  0  0  0  0  0
  -32.9960   11.6460  -17.7090 C   0  0  1  0  0  0  0  0  0  0  0  0
  -31.6790   11.0050  -17.5560 N   0  0  0  0  0  0  0  0  0  0  0  0
  -33.4530   13.8470  -18.6760 O   0  0  0  0  0  0  0  0  0  0  0  0
  -30.7720   11.8620  -18.0570 C   0  0  0  0  0  0  0  0  0  0  0  0
  -29.5780   11.6400  -18.0920 O   0  0  0  0  0  0  0  0  0  0  0  0
  -33.6420   11.8580  -16.3630 C   0  0  0  0  0  0  0  0  0  0  0  0
  -34.2650   10.8030  -15.7220 C   0  0  0  0  0  0  0  0  0  0  0  0
  -34.8540   10.9970  -14.4870 C   0  0  0  0  0  0  0  0  0  0  0  0
  -34.8260   12.2450  -13.8960 C   0  0  0  0  0  0  0  0  0  0  0  0
  -34.2060   13.3010  -14.5380 C   0  0  0  0  0  0  0  0  0  0  0  0
  -33.6150   13.1070  -15.7730 C   0  0  0  0  0  0  0  0  0  0  0  0
  -30.1690   13.9590  -20.3490 C   0  0  0  0  0  0  0  0  0  0  0  0
  -30.6150   14.0510  -19.0810 N   0  0  0  0  0  0  0  0  0  0  0  0
  -30.4370   14.8630  -18.5530 H   0  0  0  0  0  0  0  0  0  0  0  0
  -30.3890   12.9580  -20.9990 O   0  0  0  0  0  0  0  0  0  0  0  0
  -29.3970   15.1000  -20.9610 C   0  0  0  0  0  0  0  0  0  0  0  0
  -28.0090   15.0630  -20.4850 N   0  0  0  0  0  0  0  0  0  0  0  0
  -27.6790   16.0240  -20.4040 H   0  0  0  0  0  0  0  0  0  0  0  0
  -27.1410   14.3680  -21.4460 C   0  0  0  0  0  0  0  0  0  0  0  0
  -25.4960   12.8270  -20.3680 C   0  0  0  0  0  0  0  0  0  0  0  0
  -26.8980   12.9350  -20.9710 C   0  0  0  0  0  0  0  0  0  0  0  0
  -27.9240   14.4420  -19.1560 C   0  0  0  0  0  0  0  0  0  0  0  0
  -27.7670   15.5320  -18.0940 C   0  0  0  0  0  0  0  0  0  0  0  0
  -28.4600   15.0890  -16.8030 C   0  0  0  0  0  0  0  0  0  0  0  0
  -33.9030   10.8120  -18.6150 C   0  0  0  0  0  0  0  0  0  0  0  0
  -33.4980   11.0220  -20.0750 C   0  0  0  0  0  0  0  0  0  0  0  0
  1  2  1  0  0  0  0
  1  6  1  0  0  0  0
  2  3  1  0  0  0  0
  3 27  1  6  0  0  0
  3  4  1  0  0  0  0
  3  8  1  0  0  0  0
  5  2  2  0  0  0  0
  6  4  1  0  0  0  0
  7  6  2  0  0  0  0
  8 13  2  0  0  0  0
  8  9  1  0  0  0  0
  9 10  2  0  0  0  0
 10 11  1  0  0  0  0
 12 11  2  0  0  0  0
 13 12  1  0  0  0  0
 14 15  1  0  0  0  0
 15 16  1  0  0  0  0
 15  1  1  0  0  0  0
 17 14  2  0  0  0  0
 18 19  1  0  0  0  0
 18 14  1  0  0  0  0
 19 20  1  0  0  0  0
 19 24  1  0  0  0  0
 21 23  1  0  0  0  0
 21 19  1  0  0  0  0
 23 22  1  0  0  0  0
 24 25  1  0  0  0  0
 25 26  1  0  0  0  0
 28 27  1  0  0  0  0
M  END
>  <MODEL>
1

>  <REMARK>
 VINA RESULT:      -4.9      0.000      0.000
  Name = ZINC27270879
                            x       y       z     vdW  Elec       q    Type
                         _______ _______ _______ _____ _____    ______ ____

>  <TORSDO>
F 9

>  <vina_score>
-4.9

$$$$
ZINC06193542
 OpenBabel01081722313D

 35 37  0  0  1  0  0  0  0  0999 V2000
  -30.1040   11.4640  -18.7150 C   0  0  0  0  0  0  0  0  0  0  0  0
  -29.1000   12.1170  -18.1650 N   0  0  0  0  0  0  0  0  0  0  0  0
  -28.3260   12.6440  -19.1140 C   0  0  0  0  0  0  0  0  0  0  0  0
  -28.8730   12.2970  -20.3440 C   0  0  0  0  0  0  0  0  0  0  0  0
  -28.2430   12.7320  -21.5240 C   0  0  0  0  0  0  0  0  0  0  0  0
  -27.1220   13.4760  -21.4380 N   0  0  0  0  0  0  0  0  0  0  0  0
  -26.6790   13.7830  -22.2620 H   0  0  0  0  0  0  0  0  0  0  0  0
  -26.6010   13.8070  -20.2430 C   0  0  0  0  0  0  0  0  0  0  0  0
  -25.5880   14.4800  -20.2050 O   0  0  0  0  0  0  0  0  0  0  0  0
  -28.7050   12.4380  -22.6120 O   0  0  0  0  0  0  0  0  0  0  0  0
  -27.1710   13.4110  -19.0910 N   0  0  0  0  0  0  0  0  0  0  0  0
  -26.5720   13.7930  -17.8090 C   0  0  0  0  0  0  0  0  0  0  0  0
  -30.0050   11.5410  -20.0680 N   0  0  0  0  0  0  0  0  0  0  0  0
  -31.0960   10.8040  -18.0260 N   0  0  0  0  0  0  0  0  0  0  0  0
  -31.5020    9.9920  -18.4060 H   0  0  0  0  0  0  0  0  0  0  0  0
  -31.5450   11.3100  -16.7270 C   0  0  0  0  0  0  0  0  0  0  0  0
  -33.0190   10.9510  -16.5230 C   0  0  0  0  0  0  0  0  0  0  0  0
  -33.5630   11.7870  -15.4310 N   0  0  0  0  0  0  0  0  0  0  0  0
  -32.8370   11.9250  -14.7280 H   0  0  0  0  0  0  0  0  0  0  0  0
  -34.3740   12.9420  -17.4280 C   0  0  0  0  0  0  0  0  0  0  0  0
  -33.9750   13.1030  -15.9600 C   0  0  0  0  0  0  0  0  0  0  0  0
  -34.7170   11.1090  -14.8040 C   0  0  0  0  0  0  0  0  0  0  0  0
  -35.3140   12.0370  -13.7440 C   0  0  0  0  0  0  0  0  0  0  0  0
  -30.9200   10.9470  -21.0470 C   0  0  0  0  0  0  0  0  0  0  0  0
  -31.7530   12.0500  -21.7020 C   0  0  2  0  0  0  0  0  0  0  0  0
  -30.8940   13.1190  -22.1090 O   0  0  0  0  0  0  0  0  0  0  0  0
  -31.2070   13.4810  -22.9520 H   0  0  0  0  0  0  0  0  0  0  0  0
  -32.7820   12.5760  -20.6990 C   0  0  0  0  0  0  0  0  0  0  0  0
  -32.1090   13.2430  -19.6310 O   0  0  0  0  0  0  0  0  0  0  0  0
  -31.7560   14.5400  -19.8380 C   0  0  0  0  0  0  0  0  0  0  0  0
  -32.7030   15.4570  -20.2690 C   0  0  0  0  0  0  0  0  0  0  0  0
  -32.3430   16.7740  -20.4790 C   0  0  0  0  0  0  0  0  0  0  0  0
  -31.0390   17.1780  -20.2600 C   0  0  0  0  0  0  0  0  0  0  0  0
  -30.0930   16.2660  -19.8280 C   0  0  0  0  0  0  0  0  0  0  0  0
  -30.4490   14.9480  -19.6170 C   0  0  0  0  0  0  0  0  0  0  0  0
  1  2  2  0  0  0  0
  1 14  1  0  0  0  0
  3 11  1  0  0  0  0
  3  2  1  0  0  0  0
  4 13  1  0  0  0  0
  4  3  2  0  0  0  0
  5  6  1  0  0  0  0
  5  4  1  0  0  0  0
  6  8  1  0  0  0  0
  7  6  1  0  0  0  0
  8  9  2  0  0  0  0
  8 11  1  0  0  0  0
 10  5  2  0  0  0  0
 11 12  1  0  0  0  0
 13  1  1  0  0  0  0
 14 16  1  0  0  0  0
 15 14  1  0  0  0  0
 16 17  1  0  0  0  0
 17 18  1  0  0  0  0
 18 22  1  0  0  0  0
 18 19  1  0  0  0  0
 20 21  1  0  0  0  0
 21 18  1  0  0  0  0
 22 23  1  0  0  0  0
 24 13  1  0  0  0  0
 25 26  1  1  0  0  0
 25 24  1  0  0  0  0
 25 28  1  0  0  0  0
 27 26  1  0  0  0  0
 28 29  1  0  0  0  0
 30 29  1  0  0  0  0
 30 35  2  0  0  0  0
 31 30  1  0  0  0  0
 32 31  2  0  0  0  0
 32 33  1  0  0  0  0
 33 34  2  0  0  0  0
 34 35  1  0  0  0  0
M  END
>  <MODEL>
1

>  <REMARK>
 VINA RESULT:      -4.9      0.000      0.000
  Name = ZINC06193542
                            x       y       z     vdW  Elec       q    Type
                         _______ _______ _______ _____ _____    ______ ____

>  <TORSDO>
F 12

>  <vina_score>
-4.9

$$$$
ZINC31167898
 OpenBabel01081722093D

 35 36  0  0  1  0  0  0  0  0999 V2000
  -32.7980   13.6210  -20.9940 C   0  0  0  0  0  0  0  0  0  0  0  0
  -31.5800   12.9760  -20.9010 C   0  0  0  0  0  0  0  0  0  0  0  0
  -30.4670   13.6600  -20.4510 C   0  0  0  0  0  0  0  0  0  0  0  0
  -30.5720   14.9960  -20.0950 C   0  0  0  0  0  0  0  0  0  0  0  0
  -31.7960   15.6420  -20.1900 C   0  0  0  0  0  0  0  0  0  0  0  0
  -32.9060   14.9540  -20.6390 C   0  0  0  0  0  0  0  0  0  0  0  0
  -34.0120   12.8730  -21.4840 C   0  0  0  0  0  0  0  0  0  0  0  0
  -34.0450   11.5550  -20.8760 O   0  0  0  0  0  0  0  0  0  0  0  0
  -34.3910   11.4900  -19.5810 C   0  0  0  0  0  0  0  0  0  0  0  0
  -35.4310   11.9810  -19.2080 O   0  0  0  0  0  0  0  0  0  0  0  0
  -33.4840   10.8050  -18.5910 C   0  0  0  0  0  0  0  0  0  0  0  0
  -33.9020   11.5680  -16.2480 C   0  0  0  0  0  0  0  0  0  0  0  0
  -33.0660   11.8010  -17.5080 C   0  0  2  0  0  0  0  0  0  0  0  0
  -33.2770   13.1340  -17.9790 O   0  0  0  0  0  0  0  0  0  0  0  0
  -34.0160   13.5340  -17.4970 H   0  0  0  0  0  0  0  0  0  0  0  0
  -31.5840   11.6050  -17.1810 C   0  0  0  0  0  0  0  0  0  0  0  0
  -30.9060   12.9480  -17.0920 C   0  0  0  0  0  0  0  0  0  0  0  0
  -29.5740   13.0200  -16.9530 O   0  0  0  0  0  0  0  0  0  0  0  0
  -31.5630   13.9600  -17.1460 O   0  0  0  0  0  0  0  0  0  0  0  0
  -29.4790   15.6700  -19.6520 O   0  0  0  0  0  0  0  0  0  0  0  0
  -28.2000   15.1090  -19.9610 C   0  0  1  0  0  0  0  0  0  0  0  0
  -27.6470   14.3920  -18.7280 C   0  0  1  0  0  0  0  0  0  0  0  0
  -26.3050   13.7430  -19.0840 C   0  0  2  0  0  0  0  0  0  0  0  0
  -26.5090   12.7920  -20.2670 C   0  0  1  0  0  0  0  0  0  0  0  0
  -27.1070   13.5720  -21.4410 C   0  0  2  0  0  0  0  0  0  0  0  0
  -28.3360   14.1750  -21.0330 O   0  0  0  0  0  0  0  0  0  0  0  0
  -27.4550   15.3360  -17.6720 O   0  0  0  0  0  0  0  0  0  0  0  0
  -28.1000   16.0550  -17.7600 H   0  0  0  0  0  0  0  0  0  0  0  0
  -25.8160   13.0090  -17.9590 O   0  0  0  0  0  0  0  0  0  0  0  0
  -24.8660   12.8430  -18.0700 H   0  0  0  0  0  0  0  0  0  0  0  0
  -25.2510   12.2360  -20.6550 O   0  0  0  0  0  0  0  0  0  0  0  0
  -25.0160   12.5540  -21.5410 H   0  0  0  0  0  0  0  0  0  0  0  0
  -27.3690   12.6170  -22.6080 C   0  0  0  0  0  0  0  0  0  0  0  0
  -28.1250   11.4960  -22.1440 O   0  0  0  0  0  0  0  0  0  0  0  0
  -29.0490   11.5910  -22.4230 H   0  0  0  0  0  0  0  0  0  0  0  0
  1  2  2  0  0  0  0
  1  6  1  0  0  0  0
  2  3  1  0  0  0  0
  3  4  2  0  0  0  0
  4 20  1  0  0  0  0
  5  4  1  0  0  0  0
  6  5  2  0  0  0  0
  7  1  1  0  0  0  0
  7  8  1  0  0  0  0
  8  9  1  0  0  0  0
  9 10  2  0  0  0  0
  9 11  1  0  0  0  0
 13 11  1  6  0  0  0
 13 16  1  0  0  0  0
 13 12  1  0  0  0  0
 14 13  1  0  0  0  0
 14 15  1  0  0  0  0
 16 17  1  0  0  0  0
 17 18  1  0  0  0  0
 19 17  2  0  0  0  0
 21 20  1  1  0  0  0
 21 22  1  0  0  0  0
 22 27  1  1  0  0  0
 23 22  1  0  0  0  0
 23 29  1  1  0  0  0
 24 31  1  6  0  0  0
 24 23  1  0  0  0  0
 25 33  1  6  0  0  0
 25 26  1  0  0  0  0
 25 24  1  0  0  0  0
 26 21  1  0  0  0  0
 28 27  1  0  0  0  0
 30 29  1  0  0  0  0
 32 31  1  0  0  0  0
 33 34  1  0  0  0  0
 35 34  1  0  0  0  0
M  END
>  <MODEL>
1

>  <REMARK>
 VINA RESULT:      -4.9      0.000      0.000
  Name = ZINC31167898
                            x       y       z     vdW  Elec       q    Type
                         _______ _______ _______ _____ _____    ______ ____

>  <TORSDO>
F 15

>  <vina_score>
-4.9

$$$$
ZINC04806136
 OpenBabel01081722083D

 15 14  0  0  1  0  0  0  0  0999 V2000
  -32.4780   14.0200  -20.1170 C   0  0  1  0  0  0  0  0  0  0  0  0
  -32.4820   15.3420  -20.7700 N   0  0  0  0  0  0  0  0  0  0  0  0
  -32.5690   15.2210  -21.7790 H   0  0  0  0  0  0  0  0  0  0  0  0
  -33.2710   15.8890  -20.4240 H   0  0  0  0  0  0  0  0  0  0  0  0
  -31.6110   15.8280  -20.5600 H   0  0  0  0  0  0  0  0  0  0  0  0
  -32.7410   12.9600  -21.1560 C   0  0  0  0  0  0  0  0  0  0  0  0
  -31.8410   12.7340  -22.1260 O   0  0  0  0  0  0  0  0  0  0  0  0
  -33.7640   12.3180  -21.1180 O   0  0  0  0  0  0  0  0  0  0  0  0
  -31.1250   13.7580  -19.4520 C   0  0  0  0  0  0  0  0  0  0  0  0
  -30.2290   14.9880  -19.6160 C   0  0  0  0  0  0  0  0  0  0  0  0
  -28.6280   14.4830  -20.3020 S   0  0  2  0  0  0  0  0  0  0  0  0
  -28.7070   13.1340  -20.7430 O   0  0  0  0  0  0  0  0  0  0  0  0
  -28.1860   15.3150  -17.7340 C   0  0  0  0  0  0  0  0  0  0  0  0
  -27.4920   14.5950  -18.8940 C   0  0  0  0  0  0  0  0  0  0  0  0
  -27.0880   13.1870  -18.4500 C   0  0  0  0  0  0  0  0  0  0  0  0
  1  6  1  6  0  0  0
  1  9  1  0  0  0  0
  2  5  1  0  0  0  0
  2  4  1  0  0  0  0
  2  1  1  0  0  0  0
  3  2  1  0  0  0  0
  6  8  1  0  0  0  0
  7  6  2  0  0  0  0
 10  9  1  0  0  0  0
 11 12  1  1  0  0  0
 11 10  1  0  0  0  0
 11 14  1  0  0  0  0
 14 15  1  0  0  0  0
 14 13  1  0  0  0  0
M  END
>  <MODEL>
1

>  <REMARK>
 VINA RESULT:      -4.9      0.000      0.000
  Name = ZINC04806136
                            x       y       z     vdW  Elec       q    Type
                         _______ _______ _______ _____ _____    ______ ____

>  <TORSDO>
F 6

>  <vina_score>
-4.9

$$$$
ZINC08642818
 OpenBabel01081722203D

 31 33  0  0  1  0  0  0  0  0999 V2000
  -28.6990   14.7900  -16.6550 C   0  0  0  0  0  0  0  0  0  0  0  0
  -29.0520   13.8160  -17.6920 N   0  0  0  0  0  0  0  0  0  0  0  0
  -30.2990   13.2130  -17.6800 C   0  0  0  0  0  0  0  0  0  0  0  0
  -30.6100   12.2970  -18.6790 C   0  0  0  0  0  0  0  0  0  0  0  0
  -31.9050   11.8670  -18.4240 N   0  0  0  0  0  0  0  0  0  0  0  0
  -32.3250   12.5230  -17.3100 C   0  0  0  0  0  0  0  0  0  0  0  0
  -29.6510   12.0020  -19.6630 C   0  0  0  0  0  0  0  0  0  0  0  0
  -28.4530   12.6220  -19.6240 N   0  0  0  0  0  0  0  0  0  0  0  0
  -27.4520   12.3220  -20.6510 C   0  0  0  0  0  0  0  0  0  0  0  0
  -29.9010   11.2000  -20.5460 O   0  0  0  0  0  0  0  0  0  0  0  0
  -31.3610   13.3110  -16.8790 N   0  0  0  0  0  0  0  0  0  0  0  0
  -28.1640   13.5090  -18.6560 C   0  0  0  0  0  0  0  0  0  0  0  0
  -27.0730   14.0480  -18.6520 O   0  0  0  0  0  0  0  0  0  0  0  0
  -33.5600   12.3810  -16.7200 N   0  0  0  0  0  0  0  0  0  0  0  0
  -34.3020   12.9720  -16.9830 H   0  0  0  0  0  0  0  0  0  0  0  0
  -33.7720   11.3490  -15.7030 C   0  0  0  0  0  0  0  0  0  0  0  0
  -34.6940   11.8920  -14.6090 C   0  0  0  0  0  0  0  0  0  0  0  0
  -35.0700   13.2330  -14.9260 O   0  0  0  0  0  0  0  0  0  0  0  0
  -35.3240   13.6980  -14.1140 H   0  0  0  0  0  0  0  0  0  0  0  0
  -32.6710   10.8920  -19.2040 C   0  0  0  0  0  0  0  0  0  0  0  0
  -33.3460   11.5970  -20.3830 C   0  0  1  0  0  0  0  0  0  0  0  0
  -34.7000   11.1530  -20.4920 O   0  0  0  0  0  0  0  0  0  0  0  0
  -34.9590   11.1290  -21.4260 H   0  0  0  0  0  0  0  0  0  0  0  0
  -33.3220   13.1090  -20.1550 C   0  0  0  0  0  0  0  0  0  0  0  0
  -32.4930   13.7260  -21.1420 O   0  0  0  0  0  0  0  0  0  0  0  0
  -31.8430   14.8630  -20.7780 C   0  0  0  0  0  0  0  0  0  0  0  0
  -30.4560   14.8890  -20.7440 C   0  0  0  0  0  0  0  0  0  0  0  0
  -29.7970   16.0480  -20.3800 C   0  0  0  0  0  0  0  0  0  0  0  0
  -30.5180   17.1770  -20.0400 C   0  0  0  0  0  0  0  0  0  0  0  0
  -31.9010   17.1510  -20.0670 C   0  0  0  0  0  0  0  0  0  0  0  0
  -32.5640   15.9980  -20.4360 C   0  0  0  0  0  0  0  0  0  0  0  0
  2  3  1  0  0  0  0
  2  1  1  0  0  0  0
  3 11  1  0  0  0  0
  4  5  1  0  0  0  0
  4  3  2  0  0  0  0
  5  6  1  0  0  0  0
  6 11  2  0  0  0  0
  6 14  1  0  0  0  0
  7  8  1  0  0  0  0
  7  4  1  0  0  0  0
  8 12  1  0  0  0  0
  9  8  1  0  0  0  0
 10  7  2  0  0  0  0
 12 13  2  0  0  0  0
 12  2  1  0  0  0  0
 14 16  1  0  0  0  0
 15 14  1  0  0  0  0
 16 17  1  0  0  0  0
 18 17  1  0  0  0  0
 18 19  1  0  0  0  0
 20  5  1  0  0  0  0
 21 22  1  1  0  0  0
 21 24  1  0  0  0  0
 21 20  1  0  0  0  0
 23 22  1  0  0  0  0
 25 26  1  0  0  0  0
 25 24  1  0  0  0  0
 26 27  2  0  0  0  0
 26 31  1  0  0  0  0
 27 28  1  0  0  0  0
 28 29  2  0  0  0  0
 30 29  1  0  0  0  0
 31 30  2  0  0  0  0
M  END
>  <MODEL>
1

>  <REMARK>
 VINA RESULT:      -4.8      0.000      0.000
  Name = ZINC08642818
                            x       y       z     vdW  Elec       q    Type
                         _______ _______ _______ _____ _____    ______ ____

>  <TORSDO>
F 10

>  <vina_score>
-4.8

$$$$
ZINC02375827
 OpenBabel01081722183D

 26 26  0  0  1  0  0  0  0  0999 V2000
  -29.8140   12.8230  -19.2970 C   0  0  0  0  0  0  0  0  0  0  0  0
  -29.7610   11.7940  -18.5060 N   0  0  0  0  0  0  0  0  0  0  0  0
  -28.4410   14.8210  -17.7350 C   0  0  0  0  0  0  0  0  0  0  0  0
  -27.9060   14.3780  -19.0730 C   0  0  0  0  0  0  0  0  0  0  0  0
  -28.5700   13.4290  -19.8010 C   0  0  0  0  0  0  0  0  0  0  0  0
  -28.0060   13.0260  -21.0990 C   0  0  0  0  0  0  0  0  0  0  0  0
  -26.8660   13.6150  -21.5190 N   0  0  0  0  0  0  0  0  0  0  0  0
  -26.4760   13.3630  -22.3870 H   0  0  0  0  0  0  0  0  0  0  0  0
  -26.2590   14.5420  -20.7560 C   0  0  0  0  0  0  0  0  0  0  0  0
  -25.2310   15.0530  -21.1560 O   0  0  0  0  0  0  0  0  0  0  0  0
  -28.5570   12.1830  -21.7810 O   0  0  0  0  0  0  0  0  0  0  0  0
  -26.7570   14.9200  -19.5680 N   0  0  0  0  0  0  0  0  0  0  0  0
  -26.2800   15.6030  -19.0420 H   0  0  0  0  0  0  0  0  0  0  0  0
  -30.9440   11.2170  -18.0270 N   0  0  0  0  0  0  0  0  0  0  0  0
  -31.1650   10.2850  -18.2570 H   0  0  0  0  0  0  0  0  0  0  0  0
  -31.7790   11.9360  -17.2510 C   0  0  0  0  0  0  0  0  0  0  0  0
  -31.5070   13.0840  -16.9690 O   0  0  0  0  0  0  0  0  0  0  0  0
  -33.0520   11.3150  -16.7370 C   0  0  1  0  0  0  0  0  0  0  0  0
  -33.8050   12.3290  -15.9780 N   0  0  0  0  0  0  0  0  0  0  0  0
  -34.8020   12.2300  -16.1740 H   0  0  0  0  0  0  0  0  0  0  0  0
  -33.6410   12.1990  -14.9790 H   0  0  0  0  0  0  0  0  0  0  0  0
  -33.4970   13.2600  -16.2540 H   0  0  0  0  0  0  0  0  0  0  0  0
  -33.8830   10.8030  -17.9150 C   0  0  0  0  0  0  0  0  0  0  0  0
  -34.2120   11.9680  -18.8520 C   0  0  0  0  0  0  0  0  0  0  0  0
  -33.6840   11.5550  -20.5370 S   0  0  0  0  0  0  0  0  0  0  0  0
  -32.7970   13.0340  -21.0940 C   0  0  0  0  0  0  0  0  0  0  0  0
  1  2  2  0  0  0  0
  2 14  1  0  0  0  0
  4  3  1  0  0  0  0
  5  1  1  0  0  0  0
  5  4  2  0  0  0  0
  6  5  1  0  0  0  0
  7  6  1  0  0  0  0
  7  9  1  0  0  0  0
  8  7  1  0  0  0  0
  9 12  1  0  0  0  0
 10  9  2  0  0  0  0
 11  6  2  0  0  0  0
 12  4  1  0  0  0  0
 12 13  1  0  0  0  0
 14 16  1  0  0  0  0
 15 14  1  0  0  0  0
 16 17  2  0  0  0  0
 16 18  1  0  0  0  0
 18 23  1  6  0  0  0
 18 19  1  0  0  0  0
 19 21  1  0  0  0  0
 20 19  1  0  0  0  0
 22 19  1  0  0  0  0
 24 23  1  0  0  0  0
 25 24  1  0  0  0  0
 26 25  1  0  0  0  0
M  END
>  <MODEL>
1

>  <REMARK>
 VINA RESULT:      -4.8      0.000      0.000
  Name = ZINC02375827
                            x       y       z     vdW  Elec       q    Type
                         _______ _______ _______ _____ _____    ______ ____

>  <TORSDO>
F 7

>  <vina_score>
-4.8

$$$$
ZINC27367243
 OpenBabel01081722053D

 31 33  0  0  1  0  0  0  0  0999 V2000
  -31.8600   10.9930  -20.7080 C   0  0  2  0  0  0  0  0  0  0  0  0
  -32.6360   12.0630  -21.4830 C   0  0  0  0  0  0  0  0  0  0  0  0
  -33.9260   12.4090  -20.7350 C   0  0  0  0  0  0  0  0  0  0  0  0
  -33.5850   13.1710  -19.4480 C   0  0  0  0  0  0  0  0  0  0  0  0
  -32.5200   12.3990  -18.7070 C   0  0  0  0  0  0  0  0  0  0  0  0
  -32.1500   12.5240  -17.4220 N   0  0  0  0  0  0  0  0  0  0  0  0
  -31.1310   11.5930  -17.1760 N   0  0  0  0  0  0  0  0  0  0  0  0
  -30.8970   10.9380  -18.2860 C   0  0  0  0  0  0  0  0  0  0  0  0
  -31.7550   11.4280  -19.2680 C   0  0  0  0  0  0  0  0  0  0  0  0
  -28.4680   11.7490  -21.9050 N   0  0  0  0  0  0  0  0  0  0  0  0
  -28.1650   10.8630  -22.2090 H   0  0  0  0  0  0  0  0  0  0  0  0
  -29.7000   11.8970  -21.3830 C   0  0  0  0  0  0  0  0  0  0  0  0
  -30.5190   10.8320  -21.2750 N   0  0  0  0  0  0  0  0  0  0  0  0
  -30.2170    9.9460  -21.5790 H   0  0  0  0  0  0  0  0  0  0  0  0
  -30.0750   12.9910  -21.0080 O   0  0  0  0  0  0  0  0  0  0  0  0
  -27.5770   12.9060  -22.0220 C   0  0  0  0  0  0  0  0  0  0  0  0
  -26.6750   12.9830  -20.7890 C   0  0  0  0  0  0  0  0  0  0  0  0
  -26.6300   14.4240  -20.2780 C   0  0  0  0  0  0  0  0  0  0  0  0
  -27.9950   14.9260  -20.1090 N   0  0  0  0  0  0  0  0  0  0  0  0
  -28.0150   15.8650  -20.5070 H   0  0  0  0  0  0  0  0  0  0  0  0
  -28.1800   13.4910  -17.7680 C   0  0  0  0  0  0  0  0  0  0  0  0
  -28.6570   15.0330  -18.5950 S   0  0  0  0  0  0  0  0  0  0  0  0
  -30.0600   15.0580  -18.8130 O   0  0  0  0  0  0  0  0  0  0  0  0
  -27.9990   16.1380  -17.9890 O   0  0  0  0  0  0  0  0  0  0  0  0
  -32.7150   13.4630  -16.4490 C   0  0  0  0  0  0  0  0  0  0  0  0
  -33.6910   12.7390  -15.5600 C   0  0  0  0  0  0  0  0  0  0  0  0
  -34.1600   13.3450  -14.4090 C   0  0  0  0  0  0  0  0  0  0  0  0
  -35.0560   12.6800  -13.5930 C   0  0  0  0  0  0  0  0  0  0  0  0
  -35.4840   11.4090  -13.9270 C   0  0  0  0  0  0  0  0  0  0  0  0
  -35.0150   10.8030  -15.0790 C   0  0  0  0  0  0  0  0  0  0  0  0
  -34.1200   11.4680  -15.8950 C   0  0  0  0  0  0  0  0  0  0  0  0
  1 13  1  6  0  0  0
  1  9  1  0  0  0  0
  2  3  1  0  0  0  0
  2  1  1  0  0  0  0
  3  4  1  0  0  0  0
  4  5  1  0  0  0  0
  5  6  1  0  0  0  0
  6  7  1  0  0  0  0
  6 25  1  0  0  0  0
  8  7  2  0  0  0  0
  9  5  2  0  0  0  0
  9  8  1  0  0  0  0
 10 12  1  0  0  0  0
 11 10  1  0  0  0  0
 12 13  1  0  0  0  0
 12 15  2  0  0  0  0
 14 13  1  0  0  0  0
 16 10  1  0  0  0  0
 16 17  1  0  0  0  0
 17 18  1  0  0  0  0
 18 19  1  0  0  0  0
 19 22  1  0  0  0  0
 20 19  1  0  0  0  0
 22 24  2  0  0  0  0
 22 21  1  0  0  0  0
 23 22  2  0  0  0  0
 25 26  1  0  0  0  0
 26 27  1  0  0  0  0
 27 28  2  0  0  0  0
 29 28  1  0  0  0  0
 30 29  2  0  0  0  0
 31 26  2  0  0  0  0
 31 30  1  0  0  0  0
M  END
>  <MODEL>
1

>  <REMARK>
 VINA RESULT:      -4.8      0.000      0.000
  Name = ZINC27367243
                            x       y       z     vdW  Elec       q    Type
                         _______ _______ _______ _____ _____    ______ ____

>  <TORSDO>
F 8

>  <vina_score>
-4.8

$$$$
ZINC06086015
 OpenBabel01081722173D

 29 30  0  0  0  0  0  0  0  0999 V2000
  -29.9640   11.5770  -20.0100 C   0  0  0  0  0  0  0  0  0  0  0  0
  -29.0040   11.8050  -19.3020 O   0  0  0  0  0  0  0  0  0  0  0  0
  -33.0230   11.9720  -18.1200 C   0  0  0  0  0  0  0  0  0  0  0  0
  -31.6350   12.1850  -18.2690 C   0  0  0  0  0  0  0  0  0  0  0  0
  -30.7300   12.9120  -17.3090 C   0  0  0  0  0  0  0  0  0  0  0  0
  -31.2680   11.6010  -19.4620 C   0  0  0  0  0  0  0  0  0  0  0  0
  -32.3960   11.0390  -20.0280 N   0  0  0  0  0  0  0  0  0  0  0  0
  -32.4220   10.5530  -20.8830 H   0  0  0  0  0  0  0  0  0  0  0  0
  -33.4480   11.2590  -19.2260 C   0  0  0  0  0  0  0  0  0  0  0  0
  -34.8620   10.8040  -19.4880 C   0  0  0  0  0  0  0  0  0  0  0  0
  -33.8600   12.4210  -16.9940 C   0  0  0  0  0  0  0  0  0  0  0  0
  -34.5290   13.4300  -17.0990 O   0  0  0  0  0  0  0  0  0  0  0  0
  -33.8820   11.7130  -15.8470 O   0  0  0  0  0  0  0  0  0  0  0  0
  -35.3890   11.2600  -13.9900 C   0  0  0  0  0  0  0  0  0  0  0  0
  -34.5530   12.3180  -14.7120 C   0  0  0  0  0  0  0  0  0  0  0  0
  -29.7650   11.2690  -21.4720 C   0  0  0  0  0  0  0  0  0  0  0  0
  -29.4760   12.5220  -22.1950 N   0  0  0  0  0  0  0  0  0  0  0  0
  -29.9600   12.5060  -23.0920 H   0  0  0  0  0  0  0  0  0  0  0  0
  -29.7970   13.3130  -21.6380 H   0  0  0  0  0  0  0  0  0  0  0  0
  -28.0250   12.6510  -22.4350 C   0  0  0  0  0  0  0  0  0  0  0  0
  -27.5880   14.0790  -22.1040 C   0  0  0  0  0  0  0  0  0  0  0  0
  -26.6550   14.0580  -20.8920 C   0  0  0  0  0  0  0  0  0  0  0  0
  -27.2590   14.8690  -19.8120 N   0  0  0  0  0  0  0  0  0  0  0  0
  -26.7690   15.7610  -19.7550 H   0  0  0  0  0  0  0  0  0  0  0  0
  -28.6860   15.1200  -20.1070 C   0  0  0  0  0  0  0  0  0  0  0  0
  -29.2710   15.9890  -18.9910 C   0  0  0  0  0  0  0  0  0  0  0  0
  -29.0960   15.3270  -17.7350 O   0  0  0  0  0  0  0  0  0  0  0  0
  -27.7300   15.0440  -17.4190 C   0  0  0  0  0  0  0  0  0  0  0  0
  -27.1290   14.1650  -18.5190 C   0  0  0  0  0  0  0  0  0  0  0  0
  1  6  1  0  0  0  0
  1  2  2  0  0  0  0
  3 11  1  0  0  0  0
  4  3  1  0  0  0  0
  4  5  1  0  0  0  0
  6  4  2  0  0  0  0
  7  6  1  0  0  0  0
  7  9  1  0  0  0  0
  8  7  1  0  0  0  0
  9  3  2  0  0  0  0
 10  9  1  0  0  0  0
 11 13  1  0  0  0  0
 12 11  2  0  0  0  0
 13 15  1  0  0  0  0
 15 14  1  0  0  0  0
 16  1  1  0  0  0  0
 17 19  1  0  0  0  0
 17 16  1  0  0  0  0
 18 17  1  0  0  0  0
 20 17  1  0  0  0  0
 20 21  1  0  0  0  0
 21 22  1  0  0  0  0
 22 23  1  0  0  0  0
 23 24  1  0  0  0  0
 23 29  1  0  0  0  0
 25 23  1  0  0  0  0
 25 26  1  0  0  0  0
 26 27  1  0  0  0  0
 27 28  1  0  0  0  0
 29 28  1  0  0  0  0
M  END
>  <MODEL>
1

>  <REMARK>
 VINA RESULT:      -4.6      0.000      0.000
  Name = ZINC06086015
                            x       y       z     vdW  Elec       q    Type
                         _______ _______ _______ _____ _____    ______ ____

>  <TORSDO>
F 10

>  <vina_score>
-4.6

$$$$
ZINC29937211
 OpenBabel01081722233D

 32 33  0  0  0  0  0  0  0  0999 V2000
  -26.9310   14.7400  -20.2230 N   0  0  0  0  0  0  0  0  0  0  0  0
  -27.1290   15.5960  -19.7780 H   0  0  0  0  0  0  0  0  0  0  0  0
  -26.4680   13.6980  -19.5060 C   0  0  0  0  0  0  0  0  0  0  0  0
  -26.2240   12.6450  -20.0550 O   0  0  0  0  0  0  0  0  0  0  0  0
  -27.1390   14.6020  -21.6670 C   0  0  0  0  0  0  0  0  0  0  0  0
  -29.4900   13.8870  -21.3790 N   0  0  0  0  0  0  0  0  0  0  0  0
  -29.6520   14.7230  -20.8860 H   0  0  0  0  0  0  0  0  0  0  0  0
  -28.2790   13.6490  -21.9210 C   0  0  0  0  0  0  0  0  0  0  0  0
  -28.1070   12.6670  -22.6130 O   0  0  0  0  0  0  0  0  0  0  0  0
  -32.0590   14.5380  -20.3460 C   0  0  0  0  0  0  0  0  0  0  0  0
  -31.7860   13.2230  -21.0280 C   0  0  0  0  0  0  0  0  0  0  0  0
  -30.5160   12.9460  -21.5180 C   0  0  0  0  0  0  0  0  0  0  0  0
  -30.2660   11.7330  -22.1450 C   0  0  0  0  0  0  0  0  0  0  0  0
  -31.2810   10.8040  -22.2810 C   0  0  0  0  0  0  0  0  0  0  0  0
  -32.5430   11.0820  -21.7930 C   0  0  0  0  0  0  0  0  0  0  0  0
  -32.7960   12.2910  -21.1660 C   0  0  0  0  0  0  0  0  0  0  0  0
  -34.3830   12.6360  -20.5550 Cl  0  0  0  0  0  0  0  0  0  0  0  0
  -26.2540   13.8410  -18.0210 C   0  0  0  0  0  0  0  0  0  0  0  0
  -27.4530   14.4180  -17.4090 N   0  0  0  0  0  0  0  0  0  0  0  0
  -27.3990   15.2790  -16.9340 H   0  0  0  0  0  0  0  0  0  0  0  0
  -28.6750   13.7460  -17.5000 C   0  0  0  0  0  0  0  0  0  0  0  0
  -28.7380   12.4940  -18.0950 C   0  0  0  0  0  0  0  0  0  0  0  0
  -29.9460   11.8300  -18.1790 C   0  0  0  0  0  0  0  0  0  0  0  0
  -31.0960   12.4170  -17.6810 C   0  0  0  0  0  0  0  0  0  0  0  0
  -31.0370   13.6670  -17.0930 C   0  0  0  0  0  0  0  0  0  0  0  0
  -29.8310   14.3340  -17.0010 C   0  0  0  0  0  0  0  0  0  0  0  0
  -32.4130   11.6940  -17.7800 C   0  0  0  0  0  0  0  0  0  0  0  0
  -33.4420   12.4070  -16.9410 C   0  0  0  0  0  0  0  0  0  0  0  0
  -33.6020   12.0740  -15.6440 N   0  0  0  0  0  0  0  0  0  0  0  0
  -33.0480   11.3650  -15.2450 H   0  0  0  0  0  0  0  0  0  0  0  0
  -34.6030   12.7680  -14.8280 C   0  0  0  0  0  0  0  0  0  0  0  0
  -34.1250   13.2800  -17.4320 O   0  0  0  0  0  0  0  0  0  0  0  0
  1  2  1  0  0  0  0
  1  3  1  0  0  0  0
  3 18  1  0  0  0  0
  4  3  2  0  0  0  0
  5  1  1  0  0  0  0
  6  7  1  0  0  0  0
  8  5  1  0  0  0  0
  8  6  1  0  0  0  0
  9  8  2  0  0  0  0
 11 10  1  0  0  0  0
 12  6  1  0  0  0  0
 12 11  2  0  0  0  0
 13 12  1  0  0  0  0
 14 13  2  0  0  0  0
 14 15  1  0  0  0  0
 15 16  2  0  0  0  0
 16 11  1  0  0  0  0
 16 17  1  0  0  0  0
 18 19  1  0  0  0  0
 19 20  1  0  0  0  0
 21 19  1  0  0  0  0
 21 26  2  0  0  0  0
 22 21  1  0  0  0  0
 23 22  2  0  0  0  0
 23 24  1  0  0  0  0
 24 25  2  0  0  0  0
 25 26  1  0  0  0  0
 27 24  1  0  0  0  0
 27 28  1  0  0  0  0
 28 29  1  0  0  0  0
 29 30  1  0  0  0  0
 29 31  1  0  0  0  0
 32 28  2  0  0  0  0
M  END
>  <MODEL>
1

>  <REMARK>
 VINA RESULT:      -4.6      0.000      0.000
  Name = ZINC29937211
                            x       y       z     vdW  Elec       q    Type
                         _______ _______ _______ _____ _____    ______ ____

>  <TORSDO>
F 8

>  <vina_score>
-4.6

$$$$
ZINC29005505
 OpenBabel01081722063D

 31 32  0  0  0  0  0  0  0  0999 V2000
  -32.2020   13.1500  -19.4610 C   0  0  0  0  0  0  0  0  0  0  0  0
  -32.7380   12.5840  -18.2830 C   0  0  0  0  0  0  0  0  0  0  0  0
  -33.4780   11.3740  -18.3290 C   0  0  0  0  0  0  0  0  0  0  0  0
  -33.9690   10.8640  -17.1820 N   0  0  0  0  0  0  0  0  0  0  0  0
  -34.4770   10.0210  -17.2030 H   0  0  0  0  0  0  0  0  0  0  0  0
  -33.7730   11.4900  -16.0090 C   0  0  0  0  0  0  0  0  0  0  0  0
  -33.0820   12.6400  -15.9240 N   0  0  0  0  0  0  0  0  0  0  0  0
  -32.9610   13.0690  -15.0470 H   0  0  0  0  0  0  0  0  0  0  0  0
  -34.4220   10.8030  -14.5810 S   0  0  0  0  0  0  0  0  0  0  0  0
  -33.6640   10.8030  -19.3880 O   0  0  0  0  0  0  0  0  0  0  0  0
  -32.5550   13.2130  -17.0240 C   0  0  0  0  0  0  0  0  0  0  0  0
  -31.9300   14.2540  -16.9390 O   0  0  0  0  0  0  0  0  0  0  0  0
  -31.6720   15.4150  -20.0250 C   0  0  0  0  0  0  0  0  0  0  0  0
  -31.3490   14.2570  -19.3790 C   0  0  0  0  0  0  0  0  0  0  0  0
  -30.2090   14.1810  -18.6590 F   0  0  0  0  0  0  0  0  0  0  0  0
  -29.5620   16.4320  -20.3810 C   0  0  0  0  0  0  0  0  0  0  0  0
  -30.8960   16.5090  -19.8750 O   0  0  0  0  0  0  0  0  0  0  0  0
  -32.7640   15.4660  -20.8130 O   0  0  0  0  0  0  0  0  0  0  0  0
  -33.1460   16.2930  -21.0320 H   0  0  0  0  0  0  0  0  0  0  0  0
  -32.5180   12.6150  -20.6850 N   0  0  0  0  0  0  0  0  0  0  0  0
  -33.4500   12.3660  -20.8880 H   0  0  0  0  0  0  0  0  0  0  0  0
  -31.4710   12.4160  -21.6900 C   0  0  0  0  0  0  0  0  0  0  0  0
  -30.3520   11.5570  -21.0970 C   0  0  0  0  0  0  0  0  0  0  0  0
  -29.1210   11.6260  -22.0030 C   0  0  0  0  0  0  0  0  0  0  0  0
  -28.0400   12.3370  -21.3080 N   0  0  0  0  0  0  0  0  0  0  0  0
  -27.1750   11.8210  -21.4650 H   0  0  0  0  0  0  0  0  0  0  0  0
  -28.2870   12.3830  -19.8580 C   0  0  0  0  0  0  0  0  0  0  0  0
  -27.1110   13.0790  -19.1690 C   0  0  0  0  0  0  0  0  0  0  0  0
  -26.9380   14.3820  -19.7300 O   0  0  0  0  0  0  0  0  0  0  0  0
  -26.6960   14.3760  -21.1390 C   0  0  0  0  0  0  0  0  0  0  0  0
  -27.8690   13.6930  -21.8490 C   0  0  0  0  0  0  0  0  0  0  0  0
  1 14  1  0  0  0  0
  1  2  1  0  0  0  0
  2 11  1  0  0  0  0
  3  2  1  0  0  0  0
  3  4  1  0  0  0  0
  4  6  1  0  0  0  0
  5  4  1  0  0  0  0
  6  7  1  0  0  0  0
  6  9  2  0  0  0  0
  7  8  1  0  0  0  0
 10  3  2  0  0  0  0
 11 12  2  0  0  0  0
 11  7  1  0  0  0  0
 13 17  1  0  0  0  0
 13 14  2  0  0  0  0
 14 15  1  0  0  0  0
 16 17  1  0  0  0  0
 18 13  1  0  0  0  0
 19 18  1  0  0  0  0
 20  1  2  0  0  0  0
 21 20  1  0  0  0  0
 22 23  1  0  0  0  0
 22 20  1  0  0  0  0
 24 25  1  0  0  0  0
 24 23  1  0  0  0  0
 25 27  1  0  0  0  0
 26 25  1  0  0  0  0
 27 28  1  0  0  0  0
 29 28  1  0  0  0  0
 30 29  1  0  0  0  0
 31 25  1  0  0  0  0
 31 30  1  0  0  0  0
M  END
>  <MODEL>
1

>  <REMARK>
 VINA RESULT:      -4.6      0.000      0.000
  Name = ZINC29005505
                            x       y       z     vdW  Elec       q    Type
                         _______ _______ _______ _____ _____    ______ ____

>  <TORSDO>
F 8

>  <vina_score>
-4.6

$$$$
ZINC05791983
 OpenBabel01081722083D

 29 30  0  0  1  0  0  0  0  0999 V2000
  -28.2910   12.1410  -20.2650 C   0  0  2  0  0  0  0  0  0  0  0  0
  -28.8510   12.4720  -21.6360 C   0  0  0  0  0  0  0  0  0  0  0  0
  -30.1890   12.6320  -21.7400 N   0  0  0  0  0  0  0  0  0  0  0  0
  -30.5760   12.8520  -22.6180 H   0  0  0  0  0  0  0  0  0  0  0  0
  -31.0020   12.5010  -20.6870 C   0  0  0  0  0  0  0  0  0  0  0  0
  -30.6000   12.2170  -19.4420 N   0  0  0  0  0  0  0  0  0  0  0  0
  -32.1930   12.6570  -20.8710 O   0  0  0  0  0  0  0  0  0  0  0  0
  -28.1280   12.5900  -22.6010 O   0  0  0  0  0  0  0  0  0  0  0  0
  -29.3000   12.0210  -19.1390 C   0  0  0  0  0  0  0  0  0  0  0  0
  -28.9500   11.7600  -18.0080 O   0  0  0  0  0  0  0  0  0  0  0  0
  -31.5600   12.1140  -18.4230 C   0  0  0  0  0  0  0  0  0  0  0  0
  -32.3230   13.2200  -18.0740 C   0  0  0  0  0  0  0  0  0  0  0  0
  -33.2670   13.1180  -17.0720 C   0  0  0  0  0  0  0  0  0  0  0  0
  -33.4540   11.9100  -16.4140 C   0  0  0  0  0  0  0  0  0  0  0  0
  -32.6880   10.8070  -16.7590 C   0  0  0  0  0  0  0  0  0  0  0  0
  -31.7470   10.9060  -17.7650 C   0  0  0  0  0  0  0  0  0  0  0  0
  -34.3830   11.8110  -15.4270 O   0  0  0  0  0  0  0  0  0  0  0  0
  -34.6160   12.9790  -14.6360 C   0  0  0  0  0  0  0  0  0  0  0  0
  -27.2980   13.2120  -19.8940 C   0  0  0  0  0  0  0  0  0  0  0  0
  -26.0510   12.8860  -19.6090 C   0  0  0  0  0  0  0  0  0  0  0  0
  -27.7640   14.5600  -19.8680 N   0  0  0  0  0  0  0  0  0  0  0  0
  -28.1340   15.0070  -20.6630 H   0  0  0  0  0  0  0  0  0  0  0  0
  -27.6490   15.2460  -18.5350 C   0  0  0  0  0  0  0  0  0  0  0  0
  -29.0620   15.6680  -18.1240 C   0  0  0  0  0  0  0  0  0  0  0  0
  -30.0370   15.3650  -19.2630 C   0  0  0  0  0  0  0  0  0  0  0  0
  -29.8370   17.1780  -20.8560 C   0  0  0  0  0  0  0  0  0  0  0  0
  -30.6300   16.6350  -19.7340 N   0  0  0  0  0  0  0  0  0  0  0  0
  -30.6240   17.3070  -18.9670 H   0  0  0  0  0  0  0  0  0  0  0  0
  -32.0270   16.4110  -20.1640 C   0  0  0  0  0  0  0  0  0  0  0  0
  1 19  1  1  0  0  0
  1  9  1  0  0  0  0
  2  1  1  0  0  0  0
  3  2  1  0  0  0  0
  3  5  1  0  0  0  0
  4  3  1  0  0  0  0
  5  6  1  0  0  0  0
  6  9  1  0  0  0  0
  6 11  1  0  0  0  0
  7  5  2  0  0  0  0
  8  2  2  0  0  0  0
  9 10  2  0  0  0  0
 11 12  2  0  0  0  0
 11 16  1  0  0  0  0
 12 13  1  0  0  0  0
 13 14  2  0  0  0  0
 14 17  1  0  0  0  0
 15 14  1  0  0  0  0
 16 15  2  0  0  0  0
 17 18  1  0  0  0  0
 19 21  2  0  0  0  0
 19 20  1  0  0  0  0
 21 23  1  0  0  0  0
 22 21  1  0  0  0  0
 23 24  1  0  0  0  0
 25 24  1  0  0  0  0
 26 27  1  0  0  0  0
 27 25  1  0  0  0  0
 27 28  1  0  0  0  0
 29 27  1  0  0  0  0
M  END
>  <MODEL>
1

>  <REMARK>
 VINA RESULT:      -4.5      0.000      0.000
  Name = ZINC05791983
                            x       y       z     vdW  Elec       q    Type
                         _______ _______ _______ _____ _____    ______ ____

>  <TORSDO>
F 8

>  <vina_score>
-4.5

$$$$
ZINC01846065
 OpenBabel01081722173D

 28 29  0  0  1  0  0  0  0  0999 V2000
  -33.2550   12.7060  -16.9440 C   0  0  0  0  0  0  0  0  0  0  0  0
  -31.9360   13.0890  -16.8320 C   0  0  0  0  0  0  0  0  0  0  0  0
  -31.1030   13.0590  -17.9550 C   0  0  0  0  0  0  0  0  0  0  0  0
  -31.6190   12.6500  -19.1900 C   0  0  0  0  0  0  0  0  0  0  0  0
  -32.9550   12.2700  -19.2870 C   0  0  0  0  0  0  0  0  0  0  0  0
  -33.7660   12.3010  -18.1660 C   0  0  0  0  0  0  0  0  0  0  0  0
  -29.6880   13.4630  -17.8390 C   0  0  0  0  0  0  0  0  0  0  0  0
  -29.2710   14.6180  -18.3930 N   0  0  0  0  0  0  0  0  0  0  0  0
  -29.9090   15.1920  -18.8740 H   0  0  0  0  0  0  0  0  0  0  0  0
  -28.9000   12.7530  -17.2440 O   0  0  0  0  0  0  0  0  0  0  0  0
  -27.8660   15.0190  -18.2780 C   0  0  0  0  0  0  0  0  0  0  0  0
  -27.2140   14.9950  -19.6620 C   0  0  1  0  0  0  0  0  0  0  0  0
  -26.2920   13.8540  -19.7800 N   0  0  0  0  0  0  0  0  0  0  0  0
  -25.3570   14.1890  -20.0130 H   0  0  0  0  0  0  0  0  0  0  0  0
  -26.2170   13.1200  -18.4900 C   0  0  0  0  0  0  0  0  0  0  0  0
  -26.7800   12.9580  -20.8480 C   0  0  0  0  0  0  0  0  0  0  0  0
  -27.6100   13.8790  -21.7750 C   0  0  0  0  0  0  0  0  0  0  0  0
  -28.2950   14.8210  -20.7490 C   0  0  0  0  0  0  0  0  0  0  0  0
  -34.2990   12.7400  -15.5240 S   0  0  0  0  0  0  0  0  0  0  0  0
  -33.5340   13.3080  -14.4700 O   0  0  0  0  0  0  0  0  0  0  0  0
  -35.5400   13.2900  -15.9470 O   0  0  0  0  0  0  0  0  0  0  0  0
  -35.4520   10.8710  -13.9470 C   0  0  0  0  0  0  0  0  0  0  0  0
  -34.5980   11.1680  -15.1000 N   0  0  0  0  0  0  0  0  0  0  0  0
  -35.0310   10.7210  -15.9080 H   0  0  0  0  0  0  0  0  0  0  0  0
  -30.8200   12.6210  -20.2880 O   0  0  0  0  0  0  0  0  0  0  0  0
  -30.2600   11.3570  -20.6480 C   0  0  0  0  0  0  0  0  0  0  0  0
  -33.4640   11.8720  -20.4830 O   0  0  0  0  0  0  0  0  0  0  0  0
  -34.4140   10.8040  -20.4610 C   0  0  0  0  0  0  0  0  0  0  0  0
  1  2  1  0  0  0  0
  1 19  1  0  0  0  0
  3  7  1  0  0  0  0
  3  2  2  0  0  0  0
  4  3  1  0  0  0  0
  5  4  2  0  0  0  0
  5  6  1  0  0  0  0
  6  1  2  0  0  0  0
  7 10  2  0  0  0  0
  8 11  1  0  0  0  0
  8  7  1  0  0  0  0
  9  8  1  0  0  0  0
 12 11  1  1  0  0  0
 13 12  1  0  0  0  0
 13 15  1  0  0  0  0
 14 13  1  0  0  0  0
 16 13  1  0  0  0  0
 17 16  1  0  0  0  0
 17 18  1  0  0  0  0
 18 12  1  0  0  0  0
 19 23  1  0  0  0  0
 19 20  2  0  0  0  0
 21 19  2  0  0  0  0
 23 22  1  0  0  0  0
 24 23  1  0  0  0  0
 25  4  1  0  0  0  0
 26 25  1  0  0  0  0
 27 28  1  0  0  0  0
 27  5  1  0  0  0  0
M  END
>  <MODEL>
1

>  <REMARK>
 VINA RESULT:      -4.4      0.000      0.000
  Name = ZINC01846065
                            x       y       z     vdW  Elec       q    Type
                         _______ _______ _______ _____ _____    ______ ____

>  <TORSDO>
F 7

>  <vina_score>
-4.4

$$$$
ZINC00056328
 OpenBabel01081722103D

 27 29  0  0  0  0  0  0  0  0999 V2000
  -30.4310   12.6920  -18.1910 C   0  0  0  0  0  0  0  0  0  0  0  0
  -31.1260   12.6240  -17.0600 N   0  0  0  0  0  0  0  0  0  0  0  0
  -32.3510   12.1100  -17.0630 C   0  0  0  0  0  0  0  0  0  0  0  0
  -32.8820   11.6640  -18.1970 N   0  0  0  0  0  0  0  0  0  0  0  0
  -32.1870   11.7310  -19.3270 C   0  0  0  0  0  0  0  0  0  0  0  0
  -30.9600   12.2390  -19.3230 N   0  0  0  0  0  0  0  0  0  0  0  0
  -29.2040   14.6950  -18.1490 C   0  0  0  0  0  0  0  0  0  0  0  0
  -27.7760   15.2420  -18.0870 C   0  0  0  0  0  0  0  0  0  0  0  0
  -27.0340   14.7530  -19.2070 O   0  0  0  0  0  0  0  0  0  0  0  0
  -26.9690   13.3260  -19.2760 C   0  0  0  0  0  0  0  0  0  0  0  0
  -28.3890   12.7590  -19.3500 C   0  0  0  0  0  0  0  0  0  0  0  0
  -29.1590   13.2260  -18.1880 N   0  0  0  0  0  0  0  0  0  0  0  0
  -33.0740   12.0400  -15.8880 N   0  0  0  0  0  0  0  0  0  0  0  0
  -33.9730   10.8770  -15.8930 C   0  0  0  0  0  0  0  0  0  0  0  0
  -34.7090   10.8030  -14.5530 C   0  0  0  0  0  0  0  0  0  0  0  0
  -35.4110   12.0290  -14.3310 O   0  0  0  0  0  0  0  0  0  0  0  0
  -34.5660   13.1830  -14.3210 C   0  0  0  0  0  0  0  0  0  0  0  0
  -33.8280   13.2810  -15.6590 C   0  0  0  0  0  0  0  0  0  0  0  0
  -32.7400   11.2650  -20.5090 N   0  0  0  0  0  0  0  0  0  0  0  0
  -34.0790   11.2570  -20.6700 C   0  0  0  0  0  0  0  0  0  0  0  0
  -34.6160   10.8040  -21.8200 N   0  0  0  0  0  0  0  0  0  0  0  0
  -35.5940   10.7980  -21.9360 H   0  0  0  0  0  0  0  0  0  0  0  0
  -34.0320   10.4790  -22.5420 H   0  0  0  0  0  0  0  0  0  0  0  0
  -34.8000   11.6570  -19.7770 O   0  0  0  0  0  0  0  0  0  0  0  0
  -31.9290   10.8150  -21.5130 N   0  0  0  0  0  0  0  0  0  0  0  0
  -31.1060   10.3680  -21.1110 H   0  0  0  0  0  0  0  0  0  0  0  0
  -32.4380   10.1400  -22.0840 H   0  0  0  0  0  0  0  0  0  0  0  0
  1 12  1  0  0  0  0
  1  2  2  0  0  0  0
  3  2  1  0  0  0  0
  3 13  1  0  0  0  0
  4  3  2  0  0  0  0
  5  6  2  0  0  0  0
  5  4  1  0  0  0  0
  6  1  1  0  0  0  0
  7  8  1  0  0  0  0
  9  8  1  0  0  0  0
 10  9  1  0  0  0  0
 11 10  1  0  0  0  0
 11 12  1  0  0  0  0
 12  7  1  0  0  0  0
 13 18  1  0  0  0  0
 14 13  1  0  0  0  0
 14 15  1  0  0  0  0
 15 16  1  0  0  0  0
 16 17  1  0  0  0  0
 18 17  1  0  0  0  0
 19  5  1  0  0  0  0
 20 19  1  0  0  0  0
 20 24  2  0  0  0  0
 21 20  1  0  0  0  0
 22 21  1  0  0  0  0
 23 21  1  0  0  0  0
 25 26  1  0  0  0  0
 25 19  1  0  0  0  0
 27 25  1  0  0  0  0
M  END
>  <MODEL>
1

>  <REMARK>
 VINA RESULT:      -4.4      0.000      0.000
  Name = ZINC00056328
                            x       y       z     vdW  Elec       q    Type
                         _______ _______ _______ _____ _____    ______ ____

>  <TORSDO>
F 4

>  <vina_score>
-4.4

$$$$
ZINC10254186
 OpenBabel01081722143D

 28 29  0  0  0  0  0  0  0  0999 V2000
  -32.3370   12.4400  -18.3800 C   0  0  0  0  0  0  0  0  0  0  0  0
  -31.2580   11.8420  -18.9220 N   0  0  0  0  0  0  0  0  0  0  0  0
  -31.1740   10.8620  -18.8980 H   0  0  0  0  0  0  0  0  0  0  0  0
  -32.4740   13.6430  -18.4690 O   0  0  0  0  0  0  0  0  0  0  0  0
  -30.2630   12.6090  -19.5140 C   0  0  0  0  0  0  0  0  0  0  0  0
  -29.3600   13.5550  -18.8450 C   0  0  0  0  0  0  0  0  0  0  0  0
  -29.1970   13.9720  -17.5240 C   0  0  0  0  0  0  0  0  0  0  0  0
  -28.2360   14.8950  -17.2190 C   0  0  0  0  0  0  0  0  0  0  0  0
  -27.4220   15.4180  -18.2150 C   0  0  0  0  0  0  0  0  0  0  0  0
  -27.5690   15.0180  -19.5250 C   0  0  0  0  0  0  0  0  0  0  0  0
  -28.5400   14.0800  -19.8590 C   0  0  0  0  0  0  0  0  0  0  0  0
  -28.9110   13.5160  -21.0250 O   0  0  0  0  0  0  0  0  0  0  0  0
  -29.9240   12.6400  -20.8380 C   0  0  0  0  0  0  0  0  0  0  0  0
  -30.5630   11.8530  -21.8920 C   0  0  0  0  0  0  0  0  0  0  0  0
  -29.9060   10.8170  -22.4520 N   0  0  0  0  0  0  0  0  0  0  0  0
  -30.3370   10.2870  -23.1610 H   0  0  0  0  0  0  0  0  0  0  0  0
  -28.9960   10.5910  -22.1510 H   0  0  0  0  0  0  0  0  0  0  0  0
  -31.6890   12.1320  -22.2640 O   0  0  0  0  0  0  0  0  0  0  0  0
  -33.4020   11.6060  -16.3220 N   0  0  0  0  0  0  0  0  0  0  0  0
  -32.7520   12.1350  -15.8070 H   0  0  0  0  0  0  0  0  0  0  0  0
  -33.3660   11.6210  -17.6710 C   0  0  0  0  0  0  0  0  0  0  0  0
  -34.1670   10.9700  -18.3060 O   0  0  0  0  0  0  0  0  0  0  0  0
  -34.4110   10.8030  -15.6270 C   0  0  0  0  0  0  0  0  0  0  0  0
  -34.1240   10.8150  -14.1240 C   0  0  0  0  0  0  0  0  0  0  0  0
  -34.9490   13.0820  -14.3340 C   0  0  0  0  0  0  0  0  0  0  0  0
  -34.9460   11.8670  -13.4910 N   0  0  0  0  0  0  0  0  0  0  0  0
  -34.5470   12.0970  -12.5810 H   0  0  0  0  0  0  0  0  0  0  0  0
  -36.3300   11.3810  -13.3000 C   0  0  0  0  0  0  0  0  0  0  0  0
  1 21  1  0  0  0  0
  2  3  1  0  0  0  0
  2  1  1  0  0  0  0
  4  1  2  0  0  0  0
  5  2  1  0  0  0  0
  5  6  1  0  0  0  0
  6  7  2  0  0  0  0
  7  8  1  0  0  0  0
  9  8  2  0  0  0  0
 10  9  1  0  0  0  0
 11 10  2  0  0  0  0
 11  6  1  0  0  0  0
 12 13  1  0  0  0  0
 12 11  1  0  0  0  0
 13  5  2  0  0  0  0
 14 13  1  0  0  0  0
 15 17  1  0  0  0  0
 15 14  1  0  0  0  0
 16 15  1  0  0  0  0
 18 14  2  0  0  0  0
 19 20  1  0  0  0  0
 19 23  1  0  0  0  0
 21 19  1  0  0  0  0
 22 21  2  0  0  0  0
 23 24  1  0  0  0  0
 24 26  1  0  0  0  0
 25 26  1  0  0  0  0
 26 28  1  0  0  0  0
 26 27  1  0  0  0  0
M  END
>  <MODEL>
1

>  <REMARK>
 VINA RESULT:      -4.3      0.000      0.000
  Name = ZINC10254186
                            x       y       z     vdW  Elec       q    Type
                         _______ _______ _______ _____ _____    ______ ____

>  <TORSDO>
F 6

>  <vina_score>
-4.3

$$$$
ZINC04474059
 OpenBabel01081722033D

 33 35  0  0  1  0  0  0  0  0999 V2000
  -29.7110   14.6930  -18.1110 C   0  0  0  0  0  0  0  0  0  0  0  0
  -29.7810   13.5730  -18.9750 C   0  0  0  0  0  0  0  0  0  0  0  0
  -28.6490   12.9970  -19.4030 C   0  0  0  0  0  0  0  0  0  0  0  0
  -28.6520   11.9300  -20.2160 O   0  0  0  0  0  0  0  0  0  0  0  0
  -29.7560   11.6340  -20.9200 C   0  0  0  0  0  0  0  0  0  0  0  0
  -29.6510   10.8040  -22.0050 N   0  0  0  0  0  0  0  0  0  0  0  0
  -30.4520   10.5790  -22.5310 H   0  0  0  0  0  0  0  0  0  0  0  0
  -28.7750   10.4340  -22.2590 H   0  0  0  0  0  0  0  0  0  0  0  0
  -30.9740   12.1360  -20.5860 C   0  0  0  0  0  0  0  0  0  0  0  0
  -32.1020   11.7940  -21.3490 C   0  0  0  0  0  0  0  0  0  0  0  0
  -32.0070   10.9690  -22.2390 O   0  0  0  0  0  0  0  0  0  0  0  0
  -31.1210   13.0510  -19.4050 C   0  0  1  0  0  0  0  0  0  0  0  0
  -31.8030   12.3400  -18.2650 C   0  0  0  0  0  0  0  0  0  0  0  0
  -31.4750   11.2310  -17.5170 C   0  0  0  0  0  0  0  0  0  0  0  0
  -32.3190   10.8030  -16.5080 C   0  0  0  0  0  0  0  0  0  0  0  0
  -33.4920   11.4910  -16.2540 C   0  0  0  0  0  0  0  0  0  0  0  0
  -33.8240   12.6020  -17.0010 C   0  0  0  0  0  0  0  0  0  0  0  0
  -32.9790   13.0390  -18.0190 C   0  0  0  0  0  0  0  0  0  0  0  0
  -33.0920   14.1180  -18.8970 N   0  0  0  0  0  0  0  0  0  0  0  0
  -33.8480   14.7470  -18.9000 H   0  0  0  0  0  0  0  0  0  0  0  0
  -32.0470   14.1970  -19.7420 C   0  0  0  0  0  0  0  0  0  0  0  0
  -31.8800   15.0290  -20.6080 O   0  0  0  0  0  0  0  0  0  0  0  0
  -29.9540   14.5630  -16.9260 O   0  0  0  0  0  0  0  0  0  0  0  0
  -33.2910   12.3820  -21.0950 O   0  0  0  0  0  0  0  0  0  0  0  0
  -34.3720   11.5240  -20.7250 C   0  0  0  0  0  0  0  0  0  0  0  0
  -29.3760   15.9050  -18.6000 O   0  0  0  0  0  0  0  0  0  0  0  0
  -30.0070   16.3120  -19.8160 C   0  0  0  0  0  0  0  0  0  0  0  0
  -28.9670   16.3700  -20.9360 C   0  0  0  0  0  0  0  0  0  0  0  0
  -27.5910   14.9140  -22.2510 C   0  0  0  0  0  0  0  0  0  0  0  0
  -28.7920   15.0660  -21.4940 O   0  0  0  0  0  0  0  0  0  0  0  0
  -27.3280   13.5650  -18.9520 C   0  0  0  0  0  0  0  0  0  0  0  0
  -26.2810   12.6440  -19.2690 O   0  0  0  0  0  0  0  0  0  0  0  0
  -25.4590   13.0540  -20.3650 C   0  0  0  0  0  0  0  0  0  0  0  0
  1 23  2  0  0  0  0
  2  1  1  0  0  0  0
  3  2  2  0  0  0  0
  3 31  1  0  0  0  0
  4  3  1  0  0  0  0
  5  9  2  0  0  0  0
  5  4  1  0  0  0  0
  6  5  1  0  0  0  0
  7  6  1  0  0  0  0
  8  6  1  0  0  0  0
 10 24  1  0  0  0  0
 10  9  1  0  0  0  0
 11 10  2  0  0  0  0
 12  9  1  6  0  0  0
 12  2  1  0  0  0  0
 12 13  1  0  0  0  0
 13 18  2  0  0  0  0
 13 14  1  0  0  0  0
 14 15  2  0  0  0  0
 15 16  1  0  0  0  0
 17 16  2  0  0  0  0
 18 17  1  0  0  0  0
 19 18  1  0  0  0  0
 20 19  1  0  0  0  0
 21 12  1  0  0  0  0
 21 19  1  0  0  0  0
 22 21  2  0  0  0  0
 24 25  1  0  0  0  0
 26  1  1  0  0  0  0
 27 26  1  0  0  0  0
 28 27  1  0  0  0  0
 29 30  1  0  0  0  0
 30 28  1  0  0  0  0
 32 31  1  0  0  0  0
 33 32  1  0  0  0  0
M  END
>  <MODEL>
1

>  <REMARK>
 VINA RESULT:      -4.3      0.000      0.000
  Name = ZINC04474059
                            x       y       z     vdW  Elec       q    Type
                         _______ _______ _______ _____ _____    ______ ____

>  <TORSDO>
F 7

>  <vina_score>
-4.3

$$$$
ZINC02014486
 OpenBabel01081722203D

 27 28  0  0  0  0  0  0  0  0999 V2000
  -29.4890   14.0480  -18.0320 N   0  0  0  0  0  0  0  0  0  0  0  0
  -29.4330   13.8620  -18.9980 H   0  0  0  0  0  0  0  0  0  0  0  0
  -28.6620   14.9540  -17.4710 C   0  0  0  0  0  0  0  0  0  0  0  0
  -28.7320   15.1830  -16.2820 O   0  0  0  0  0  0  0  0  0  0  0  0
  -31.6480   13.2080  -17.6730 C   0  0  0  0  0  0  0  0  0  0  0  0
  -30.4270   13.3720  -17.2410 N   0  0  0  0  0  0  0  0  0  0  0  0
  -32.8570   11.1650  -16.8980 C   0  0  0  0  0  0  0  0  0  0  0  0
  -33.8590   10.9320  -15.9470 C   0  0  0  0  0  0  0  0  0  0  0  0
  -34.1720   12.1270  -15.3930 C   0  0  0  0  0  0  0  0  0  0  0  0
  -33.4110   13.0810  -15.9530 O   0  0  0  0  0  0  0  0  0  0  0  0
  -32.5970   12.5240  -16.8720 C   0  0  0  0  0  0  0  0  0  0  0  0
  -35.2360   12.3580  -14.2930 N   0  0  0  0  0  0  0  0  0  0  0  0
  -36.0870   11.5130  -14.0810 O   0  0  0  0  0  0  0  0  0  0  0  0
  -35.2220   13.3850  -13.6390 O   0  0  0  0  0  0  0  0  0  0  0  0
  -27.6540   15.6810  -18.3220 C   0  0  0  0  0  0  0  0  0  0  0  0
  -27.4330   14.9090  -19.5640 N   0  0  0  0  0  0  0  0  0  0  0  0
  -26.6850   15.3500  -20.0990 H   0  0  0  0  0  0  0  0  0  0  0  0
  -27.0370   13.5240  -19.2330 C   0  0  0  0  0  0  0  0  0  0  0  0
  -26.7640   12.7660  -20.5340 C   0  0  0  0  0  0  0  0  0  0  0  0
  -27.9980   12.7560  -21.3490 N   0  0  0  0  0  0  0  0  0  0  0  0
  -28.7450   12.3160  -20.8130 H   0  0  0  0  0  0  0  0  0  0  0  0
  -28.3940   14.1420  -21.6800 C   0  0  0  0  0  0  0  0  0  0  0  0
  -28.6670   14.8990  -20.3780 C   0  0  0  0  0  0  0  0  0  0  0  0
  -27.7770   11.9840  -22.5910 C   0  0  0  0  0  0  0  0  0  0  0  0
  -28.7510   10.8030  -22.6120 C   0  0  0  0  0  0  0  0  0  0  0  0
  -29.5910   10.8570  -21.4580 O   0  0  0  0  0  0  0  0  0  0  0  0
  -29.2060   10.3160  -20.7520 H   0  0  0  0  0  0  0  0  0  0  0  0
  1  3  1  0  0  0  0
  1  6  1  0  0  0  0
  2  1  1  0  0  0  0
  3  4  2  0  0  0  0
  5  6  2  0  0  0  0
  5 11  1  0  0  0  0
  7 11  2  0  0  0  0
  7  8  1  0  0  0  0
  8  9  2  0  0  0  0
  9 12  1  0  0  0  0
 10  9  1  0  0  0  0
 11 10  1  0  0  0  0
 12 13  2  0  0  0  0
 12 14  2  0  0  0  0
 15  3  1  0  0  0  0
 16 18  1  0  0  0  0
 16 15  1  0  0  0  0
 17 16  1  0  0  0  0
 19 18  1  0  0  0  0
 20 21  1  0  0  0  0
 20 19  1  0  0  0  0
 22 20  1  0  0  0  0
 22 23  1  0  0  0  0
 23 16  1  0  0  0  0
 24 20  1  0  0  0  0
 25 24  1  0  0  0  0
 25 26  1  0  0  0  0
 26 27  1  0  0  0  0
M  END
>  <MODEL>
1

>  <REMARK>
 VINA RESULT:      -4.3      0.000      0.000
  Name = ZINC02014486
                            x       y       z     vdW  Elec       q    Type
                         _______ _______ _______ _____ _____    ______ ____

>  <TORSDO>
F 8

>  <vina_score>
-4.3

$$$$
ZINC26376724
 OpenBabel01081722243D

 30 31  0  0  0  0  0  0  0  0999 V2000
  -29.4420   13.4300  -17.3760 C   0  0  0  0  0  0  0  0  0  0  0  0
  -29.3020   14.7480  -17.6220 N   0  0  0  0  0  0  0  0  0  0  0  0
  -30.0970   15.3220  -17.7010 H   0  0  0  0  0  0  0  0  0  0  0  0
  -28.4650   12.7040  -17.3710 O   0  0  0  0  0  0  0  0  0  0  0  0
  -32.8450   12.5590  -16.3410 C   0  0  0  0  0  0  0  0  0  0  0  0
  -31.7390   13.4140  -16.2950 C   0  0  0  0  0  0  0  0  0  0  0  0
  -30.7720   12.8710  -17.1150 C   0  0  0  0  0  0  0  0  0  0  0  0
  -31.2810   11.7040  -17.6390 N   0  0  0  0  0  0  0  0  0  0  0  0
  -30.5810   10.8030  -18.5580 C   0  0  0  0  0  0  0  0  0  0  0  0
  -32.5380   11.5260  -17.1630 C   0  0  0  0  0  0  0  0  0  0  0  0
  -34.3640   12.7810  -15.4790 S   0  0  0  0  0  0  0  0  0  0  0  0
  -35.3010   13.2730  -16.4270 O   0  0  0  0  0  0  0  0  0  0  0  0
  -34.0540   13.4820  -14.2820 O   0  0  0  0  0  0  0  0  0  0  0  0
  -35.4650   11.0760  -13.6910 C   0  0  0  0  0  0  0  0  0  0  0  0
  -34.8930   11.2790  -15.0240 N   0  0  0  0  0  0  0  0  0  0  0  0
  -35.6090   11.0030  -15.6970 H   0  0  0  0  0  0  0  0  0  0  0  0
  -27.9640   15.3270  -17.7700 C   0  0  0  0  0  0  0  0  0  0  0  0
  -27.5380   15.2570  -19.2380 C   0  0  0  0  0  0  0  0  0  0  0  0
  -28.1500   14.0850  -19.8690 N   0  0  0  0  0  0  0  0  0  0  0  0
  -27.6910   13.2160  -19.8410 H   0  0  0  0  0  0  0  0  0  0  0  0
  -29.3400   14.2000  -20.4900 C   0  0  0  0  0  0  0  0  0  0  0  0
  -29.9090   15.2730  -20.5210 O   0  0  0  0  0  0  0  0  0  0  0  0
  -29.9550   13.0190  -21.1330 C   0  0  0  0  0  0  0  0  0  0  0  0
  -29.1630   12.1180  -21.8470 C   0  0  0  0  0  0  0  0  0  0  0  0
  -29.7390   11.0150  -22.4410 C   0  0  0  0  0  0  0  0  0  0  0  0
  -31.1020   10.8030  -22.3420 C   0  0  0  0  0  0  0  0  0  0  0  0
  -31.8990   11.6950  -21.6390 C   0  0  0  0  0  0  0  0  0  0  0  0
  -31.3300   12.8040  -21.0330 C   0  0  0  0  0  0  0  0  0  0  0  0
  -33.2370   11.4820  -21.5450 O   0  0  0  0  0  0  0  0  0  0  0  0
  -33.9580   12.2890  -20.6110 C   0  0  0  0  0  0  0  0  0  0  0  0
  1  4  2  0  0  0  0
  1  7  1  0  0  0  0
  2  1  1  0  0  0  0
  3  2  1  0  0  0  0
  5  6  1  0  0  0  0
  5 11  1  0  0  0  0
  7  6  2  0  0  0  0
  8 10  1  0  0  0  0
  8  7  1  0  0  0  0
  9  8  1  0  0  0  0
 10  5  2  0  0  0  0
 11 15  1  0  0  0  0
 11 13  2  0  0  0  0
 12 11  2  0  0  0  0
 15 14  1  0  0  0  0
 16 15  1  0  0  0  0
 17  2  1  0  0  0  0
 18 17  1  0  0  0  0
 19 20  1  0  0  0  0
 19 18  1  0  0  0  0
 21 19  1  0  0  0  0
 22 21  2  0  0  0  0
 23 28  1  0  0  0  0
 23 21  1  0  0  0  0
 24 23  2  0  0  0  0
 25 26  2  0  0  0  0
 25 24  1  0  0  0  0
 26 27  1  0  0  0  0
 27 29  1  0  0  0  0
 27 28  2  0  0  0  0
 29 30  1  0  0  0  0
M  END
>  <MODEL>
1

>  <REMARK>
 VINA RESULT:      -4.3      0.000      0.000
  Name = ZINC26376724
                            x       y       z     vdW  Elec       q    Type
                         _______ _______ _______ _____ _____    ______ ____

>  <TORSDO>
F 8

>  <vina_score>
-4.3

$$$$
ZINC09636029
 OpenBabel01081722263D

 24 25  0  0  0  0  0  0  0  0999 V2000
  -32.5090   13.5940  -18.6610 N   0  0  0  0  0  0  0  0  0  0  0  0
  -31.5550   12.7610  -18.9420 C   0  0  0  0  0  0  0  0  0  0  0  0
  -30.2200   13.2650  -19.3120 C   0  0  0  0  0  0  0  0  0  0  0  0
  -29.5480   12.7230  -20.4120 C   0  0  0  0  0  0  0  0  0  0  0  0
  -28.2950   13.1980  -20.7580 C   0  0  0  0  0  0  0  0  0  0  0  0
  -27.7070   14.2160  -20.0140 C   0  0  0  0  0  0  0  0  0  0  0  0
  -28.3700   14.7530  -18.9150 C   0  0  0  0  0  0  0  0  0  0  0  0
  -29.6230   14.2830  -18.5650 C   0  0  0  0  0  0  0  0  0  0  0  0
  -27.6410   12.6710  -21.8280 O   0  0  0  0  0  0  0  0  0  0  0  0
  -28.3400   11.6900  -22.5960 C   0  0  0  0  0  0  0  0  0  0  0  0
  -26.4770   14.6830  -20.3600 O   0  0  0  0  0  0  0  0  0  0  0  0
  -26.2220   15.5540  -20.1220 H   0  0  0  0  0  0  0  0  0  0  0  0
  -27.7890   15.7450  -18.1900 O   0  0  0  0  0  0  0  0  0  0  0  0
  -28.2430   15.9160  -16.8450 C   0  0  0  0  0  0  0  0  0  0  0  0
  -33.7780   13.1140  -18.3090 N   0  0  0  0  0  0  0  0  0  0  0  0
  -34.5170   13.1570  -18.9580 H   0  0  0  0  0  0  0  0  0  0  0  0
  -34.5520   10.8080  -13.3260 C   0  0  0  0  0  0  0  0  0  0  0  0
  -34.3560   11.4650  -14.6680 C   0  0  0  0  0  0  0  0  0  0  0  0
  -34.7720   12.7990  -14.8750 C   0  0  0  0  0  0  0  0  0  0  0  0
  -34.5750   13.3460  -16.0970 N   0  0  0  0  0  0  0  0  0  0  0  0
  -33.9880   12.5860  -17.0640 C   0  0  0  0  0  0  0  0  0  0  0  0
  -33.6260   11.3410  -16.8090 N   0  0  0  0  0  0  0  0  0  0  0  0
  -35.2930   13.4390  -13.9780 O   0  0  0  0  0  0  0  0  0  0  0  0
  -33.7980   10.8030  -15.6550 N   0  0  0  0  0  0  0  0  0  0  0  0
  1 15  1  0  0  0  0
  2  1  2  0  0  0  0
  3  2  1  0  0  0  0
  3  8  2  0  0  0  0
  4  3  1  0  0  0  0
  5  4  2  0  0  0  0
  5  6  1  0  0  0  0
  6  7  2  0  0  0  0
  7  8  1  0  0  0  0
  7 13  1  0  0  0  0
  9  5  1  0  0  0  0
 10  9  1  0  0  0  0
 11 12  1  0  0  0  0
 11  6  1  0  0  0  0
 13 14  1  0  0  0  0
 15 21  1  0  0  0  0
 16 15  1  0  0  0  0
 18 17  1  0  0  0  0
 19 18  1  0  0  0  0
 19 23  2  0  0  0  0
 20 19  1  0  0  0  0
 21 22  2  0  0  0  0
 21 20  1  0  0  0  0
 22 24  1  0  0  0  0
 24 18  2  0  0  0  0
M  END
>  <MODEL>
1

>  <REMARK>
 VINA RESULT:      -4.3      0.000      0.000
  Name = ZINC09636029
                            x       y       z     vdW  Elec       q    Type
                         _______ _______ _______ _____ _____    ______ ____

>  <TORSDO>
F 6

>  <vina_score>
-4.3

$$$$
ZINC31971727
 OpenBabel01081722273D

 28 29  0  0  0  0  0  0  0  0999 V2000
  -33.4570   11.7980  -18.7610 C   0  0  0  0  0  0  0  0  0  0  0  0
  -32.3590   11.4990  -19.5520 C   0  0  0  0  0  0  0  0  0  0  0  0
  -31.1040   11.9770  -19.2070 C   0  0  0  0  0  0  0  0  0  0  0  0
  -30.9470   12.7540  -18.0590 C   0  0  0  0  0  0  0  0  0  0  0  0
  -32.0480   13.0560  -17.2710 C   0  0  0  0  0  0  0  0  0  0  0  0
  -33.3020   12.5770  -17.6190 C   0  0  0  0  0  0  0  0  0  0  0  0
  -29.9930   11.6760  -20.0060 N   0  0  0  0  0  0  0  0  0  0  0  0
  -29.3390   11.0030  -19.7080 H   0  0  0  0  0  0  0  0  0  0  0  0
  -29.8200   12.3080  -21.1840 C   0  0  0  0  0  0  0  0  0  0  0  0
  -30.6750   13.0610  -21.6000 O   0  0  0  0  0  0  0  0  0  0  0  0
  -28.5650   12.0760  -21.9860 C   0  0  0  0  0  0  0  0  0  0  0  0
  -27.4390   12.9530  -21.4340 C   0  0  0  0  0  0  0  0  0  0  0  0
  -27.4720   14.3190  -22.1230 C   0  0  0  0  0  0  0  0  0  0  0  0
  -28.3590   15.2220  -21.3780 N   0  0  0  0  0  0  0  0  0  0  0  0
  -29.2600   15.2810  -21.8520 H   0  0  0  0  0  0  0  0  0  0  0  0
  -28.4950   14.8620  -20.4330 H   0  0  0  0  0  0  0  0  0  0  0  0
  -27.9380   16.1500  -21.3300 H   0  0  0  0  0  0  0  0  0  0  0  0
  -29.6780   13.2330  -17.7040 N   0  0  0  0  0  0  0  0  0  0  0  0
  -29.0670   12.6660  -17.1800 H   0  0  0  0  0  0  0  0  0  0  0  0
  -29.2950   14.4680  -18.0820 C   0  0  0  0  0  0  0  0  0  0  0  0
  -30.0050   15.1280  -18.8110 O   0  0  0  0  0  0  0  0  0  0  0  0
  -27.9840   15.0320  -17.5970 C   0  0  0  0  0  0  0  0  0  0  0  0
  -26.8720   15.2210  -18.6310 C   0  0  0  0  0  0  0  0  0  0  0  0
  -26.7710   14.0990  -17.5960 C   0  0  0  0  0  0  0  0  0  0  0  0
  -34.8430   10.8120  -20.4240 C   0  0  0  0  0  0  0  0  0  0  0  0
  -34.6890   11.3280  -19.1010 O   0  0  0  0  0  0  0  0  0  0  0  0
  -34.3800   12.8700  -16.8430 O   0  0  0  0  0  0  0  0  0  0  0  0
  -34.2630   12.6070  -15.4430 C   0  0  0  0  0  0  0  0  0  0  0  0
  1  6  2  0  0  0  0
  2  3  2  0  0  0  0
  2  1  1  0  0  0  0
  3  4  1  0  0  0  0
  4 18  1  0  0  0  0
  4  5  2  0  0  0  0
  6  5  1  0  0  0  0
  6 27  1  0  0  0  0
  7  8  1  0  0  0  0
  7  3  1  0  0  0  0
  9  7  1  0  0  0  0
 10  9  2  0  0  0  0
 11 12  1  0  0  0  0
 11  9  1  0  0  0  0
 13 12  1  0  0  0  0
 13 14  1  0  0  0  0
 14 17  1  0  0  0  0
 14 16  1  0  0  0  0
 15 14  1  0  0  0  0
 18 19  1  0  0  0  0
 20 18  1  0  0  0  0
 20 22  1  0  0  0  0
 21 20  2  0  0  0  0
 22 24  1  0  0  0  0
 23 22  1  0  0  0  0
 23 24  1  0  0  0  0
 25 26  1  0  0  0  0
 26  1  1  0  0  0  0
 27 28  1  0  0  0  0
M  END
>  <MODEL>
1

>  <REMARK>
 VINA RESULT:      -4.1      0.000      0.000
  Name = ZINC31971727
                            x       y       z     vdW  Elec       q    Type
                         _______ _______ _______ _____ _____    ______ ____

>  <TORSDO>
F 9

>  <vina_score>
-4.1

$$$$
ZINC19526420
 OpenBabel01081722133D

 27 28  0  0  0  0  0  0  0  0999 V2000
  -30.7610   13.3770  -21.1320 C   0  0  0  0  0  0  0  0  0  0  0  0
  -29.7990   12.6700  -21.6920 N   0  0  0  0  0  0  0  0  0  0  0  0
  -28.6390   12.9130  -21.0800 C   0  0  0  0  0  0  0  0  0  0  0  0
  -28.8840   13.8350  -20.0680 C   0  0  0  0  0  0  0  0  0  0  0  0
  -27.8180   14.2690  -19.2610 C   0  0  0  0  0  0  0  0  0  0  0  0
  -26.5800   13.7810  -19.4840 N   0  0  0  0  0  0  0  0  0  0  0  0
  -26.3550   12.8900  -20.4650 C   0  0  0  0  0  0  0  0  0  0  0  0
  -25.2250   12.4730  -20.6380 O   0  0  0  0  0  0  0  0  0  0  0  0
  -27.3470   12.4490  -21.2620 N   0  0  0  0  0  0  0  0  0  0  0  0
  -27.0600   11.4770  -22.3200 C   0  0  0  0  0  0  0  0  0  0  0  0
  -30.2430   14.1220  -20.1200 N   0  0  0  0  0  0  0  0  0  0  0  0
  -32.0820   13.3660  -21.5170 N   0  0  0  0  0  0  0  0  0  0  0  0
  -32.4200   14.0560  -22.1330 H   0  0  0  0  0  0  0  0  0  0  0  0
  -32.9840   12.3300  -21.0100 C   0  0  0  0  0  0  0  0  0  0  0  0
  -33.5730   12.7780  -19.6700 C   0  0  0  0  0  0  0  0  0  0  0  0
  -33.1930   11.8190  -18.6230 N   0  0  0  0  0  0  0  0  0  0  0  0
  -34.0400   11.3430  -18.3120 H   0  0  0  0  0  0  0  0  0  0  0  0
  -30.9550   10.8570  -18.3720 C   0  0  0  0  0  0  0  0  0  0  0  0
  -32.2720   10.8040  -19.1490 C   0  0  0  0  0  0  0  0  0  0  0  0
  -32.6110   12.5090  -17.4640 C   0  0  0  0  0  0  0  0  0  0  0  0
  -33.6780   12.6740  -16.3810 C   0  0  0  0  0  0  0  0  0  0  0  0
  -28.0100   15.0760  -18.3670 O   0  0  0  0  0  0  0  0  0  0  0  0
  -27.2880   15.4040  -17.8700 H   0  0  0  0  0  0  0  0  0  0  0  0
  -30.9750   15.0470  -19.2530 C   0  0  0  0  0  0  0  0  0  0  0  0
  -31.1570   16.3640  -19.9620 C   0  0  0  0  0  0  0  0  0  0  0  0
  -29.9530   17.1730  -20.3710 C   0  0  0  0  0  0  0  0  0  0  0  0
  -32.3620   16.8060  -20.2230 C   0  0  0  0  0  0  0  0  0  0  0  0
  1 11  1  0  0  0  0
  2  1  2  0  0  0  0
  2  3  1  0  0  0  0
  3  4  2  0  0  0  0
  4  5  1  0  0  0  0
  5 22  1  0  0  0  0
  6  5  2  0  0  0  0
  7  6  1  0  0  0  0
  8  7  2  0  0  0  0
  9  3  1  0  0  0  0
  9  7  1  0  0  0  0
 10  9  1  0  0  0  0
 11  4  1  0  0  0  0
 11 24  1  0  0  0  0
 12  1  1  0  0  0  0
 12 14  1  0  0  0  0
 13 12  1  0  0  0  0
 14 15  1  0  0  0  0
 15 16  1  0  0  0  0
 16 17  1  0  0  0  0
 16 20  1  0  0  0  0
 19 16  1  0  0  0  0
 19 18  1  0  0  0  0
 20 21  1  0  0  0  0
 22 23  1  0  0  0  0
 25 24  1  0  0  0  0
 26 25  1  0  0  0  0
 27 25  2  0  0  0  0
M  END
>  <MODEL>
1

>  <REMARK>
 VINA RESULT:      -4.1      0.000      0.000
  Name = ZINC19526420
                            x       y       z     vdW  Elec       q    Type
                         _______ _______ _______ _____ _____    ______ ____

>  <TORSDO>
F 9

>  <vina_score>
-4.1

$$$$
ZINC29577773
 OpenBabel01081722153D

 31 32  0  0  1  0  0  0  0  0999 V2000
  -29.6310   14.1000  -17.6370 C   0  0  0  0  0  0  0  0  0  0  0  0
  -29.9560   12.7990  -17.7670 N   0  0  0  0  0  0  0  0  0  0  0  0
  -29.2480   12.1190  -17.8350 H   0  0  0  0  0  0  0  0  0  0  0  0
  -30.4970   14.9260  -17.4410 O   0  0  0  0  0  0  0  0  0  0  0  0
  -31.3020   12.4150  -17.8070 C   0  0  0  0  0  0  0  0  0  0  0  0
  -32.0590   12.4230  -16.6440 C   0  0  0  0  0  0  0  0  0  0  0  0
  -33.4000   12.0400  -16.6790 C   0  0  0  0  0  0  0  0  0  0  0  0
  -33.9790   11.6490  -17.8850 C   0  0  0  0  0  0  0  0  0  0  0  0
  -33.2170   11.6400  -19.0520 C   0  0  0  0  0  0  0  0  0  0  0  0
  -31.8740   12.0190  -19.0080 C   0  0  0  0  0  0  0  0  0  0  0  0
  -34.2060   12.0490  -15.4410 C   0  0  0  0  0  0  0  0  0  0  0  0
  -34.5800   13.1040  -14.9690 O   0  0  0  0  0  0  0  0  0  0  0  0
  -34.5260   10.8890  -14.8360 O   0  0  0  0  0  0  0  0  0  0  0  0
  -35.5230   10.9490  -13.7820 C   0  0  0  0  0  0  0  0  0  0  0  0
  -33.8260   11.2250  -20.3320 C   0  0  0  0  0  0  0  0  0  0  0  0
  -34.9670   10.8080  -20.3550 O   0  0  0  0  0  0  0  0  0  0  0  0
  -33.1150   11.3070  -21.4730 O   0  0  0  0  0  0  0  0  0  0  0  0
  -32.2040   12.4310  -21.6020 C   0  0  0  0  0  0  0  0  0  0  0  0
  -27.3750   13.8280  -16.6460 C   0  0  0  0  0  0  0  0  0  0  0  0
  -28.1900   14.5300  -17.7340 C   0  0  1  0  0  0  0  0  0  0  0  0
  -27.6600   14.1700  -19.0510 N   0  0  0  0  0  0  0  0  0  0  0  0
  -26.6960   13.2770  -19.1320 C   0  0  0  0  0  0  0  0  0  0  0  0
  -26.1720   12.9060  -20.3590 C   0  0  0  0  0  0  0  0  0  0  0  0
  -26.6650   13.4930  -21.5150 C   0  0  0  0  0  0  0  0  0  0  0  0
  -27.6760   14.4340  -21.3990 C   0  0  0  0  0  0  0  0  0  0  0  0
  -28.1590   14.7550  -20.1320 C   0  0  0  0  0  0  0  0  0  0  0  0
  -29.2390   15.7600  -19.9900 C   0  0  0  0  0  0  0  0  0  0  0  0
  -30.4980   15.4540  -20.3640 N   0  0  0  0  0  0  0  0  0  0  0  0
  -31.2150   16.1210  -20.2700 H   0  0  0  0  0  0  0  0  0  0  0  0
  -30.6990   14.5630  -20.7320 H   0  0  0  0  0  0  0  0  0  0  0  0
  -28.9910   16.8590  -19.5360 O   0  0  0  0  0  0  0  0  0  0  0  0
  1  4  2  0  0  0  0
  2  1  1  0  0  0  0
  3  2  1  0  0  0  0
  5  2  1  0  0  0  0
  5  6  2  0  0  0  0
  7  6  1  0  0  0  0
  7 11  1  0  0  0  0
  8  7  2  0  0  0  0
  9 10  2  0  0  0  0
  9  8  1  0  0  0  0
 10  5  1  0  0  0  0
 11 12  2  0  0  0  0
 11 13  1  0  0  0  0
 13 14  1  0  0  0  0
 15  9  1  0  0  0  0
 16 15  2  0  0  0  0
 17 15  1  0  0  0  0
 18 17  1  0  0  0  0
 20 21  1  6  0  0  0
 20  1  1  0  0  0  0
 20 19  1  0  0  0  0
 22 21  1  0  0  0  0
 23 22  2  0  0  0  0
 24 25  1  0  0  0  0
 24 23  1  0  0  0  0
 25 26  2  0  0  0  0
 26 27  1  0  0  0  0
 26 21  1  0  0  0  0
 27 31  2  0  0  0  0
 28 29  1  0  0  0  0
 28 27  1  0  0  0  0
 30 28  1  0  0  0  0
M  END
>  <MODEL>
1

>  <REMARK>
 VINA RESULT:      -4.0      0.000      0.000
  Name = ZINC29577773
                            x       y       z     vdW  Elec       q    Type
                         _______ _______ _______ _____ _____    ______ ____

>  <TORSDO>
F 8

>  <vina_score>
-4.0

$$$$
ZINC31219118
 OpenBabel01081722273D

 30 31  0  0  0  0  0  0  0  0999 V2000
  -30.0920   14.1470  -20.8310 C   0  0  0  0  0  0  0  0  0  0  0  0
  -30.6690   15.3570  -20.4410 C   0  0  0  0  0  0  0  0  0  0  0  0
  -32.0230   15.4210  -20.1810 C   0  0  0  0  0  0  0  0  0  0  0  0
  -32.8080   14.2890  -20.3100 C   0  0  0  0  0  0  0  0  0  0  0  0
  -32.2420   13.0860  -20.6910 C   0  0  0  0  0  0  0  0  0  0  0  0
  -30.8890   13.0090  -20.9540 C   0  0  0  0  0  0  0  0  0  0  0  0
  -27.9110   13.0530  -20.6190 N   0  0  0  0  0  0  0  0  0  0  0  0
  -28.3420   12.3580  -20.0720 H   0  0  0  0  0  0  0  0  0  0  0  0
  -28.6430   14.0730  -21.1120 C   0  0  0  0  0  0  0  0  0  0  0  0
  -28.1100   14.9320  -21.7870 O   0  0  0  0  0  0  0  0  0  0  0  0
  -26.4750   12.9800  -20.8980 C   0  0  0  0  0  0  0  0  0  0  0  0
  -25.7020   12.9260  -19.5780 C   0  0  0  0  0  0  0  0  0  0  0  0
  -26.6810   13.0510  -18.4090 C   0  0  0  0  0  0  0  0  0  0  0  0
  -26.7750   14.4540  -18.0000 N   0  0  0  0  0  0  0  0  0  0  0  0
  -26.1470   14.5710  -17.2040 H   0  0  0  0  0  0  0  0  0  0  0  0
  -29.3820   13.6820  -17.5680 C   0  0  0  0  0  0  0  0  0  0  0  0
  -28.2380   15.0900  -17.5510 S   0  0  0  0  0  0  0  0  0  0  0  0
  -28.5690   16.0040  -18.5860 O   0  0  0  0  0  0  0  0  0  0  0  0
  -28.0400   15.5440  -16.2190 O   0  0  0  0  0  0  0  0  0  0  0  0
  -33.2500   11.6490  -20.8470 S   0  0  0  0  0  0  0  0  0  0  0  0
  -34.5940   12.1030  -20.9270 O   0  0  0  0  0  0  0  0  0  0  0  0
  -32.6570   10.8440  -21.8570 O   0  0  0  0  0  0  0  0  0  0  0  0
  -33.1200   10.8030  -19.4290 N   0  0  0  0  0  0  0  0  0  0  0  0
  -32.8460    9.8520  -19.6780 H   0  0  0  0  0  0  0  0  0  0  0  0
  -32.1900   11.2530  -18.3910 C   0  0  0  0  0  0  0  0  0  0  0  0
  -32.9690   11.7450  -17.1980 C   0  0  0  0  0  0  0  0  0  0  0  0
  -33.2720   13.0180  -16.8420 C   0  0  0  0  0  0  0  0  0  0  0  0
  -34.0120   13.2340  -15.6950 C   0  0  0  0  0  0  0  0  0  0  0  0
  -34.4020   12.1680  -14.9540 C   0  0  0  0  0  0  0  0  0  0  0  0
  -33.7270   10.8030  -15.8850 S   0  0  0  0  0  0  0  0  0  0  0  0
  1  2  1  0  0  0  0
  2  3  2  0  0  0  0
  4  3  1  0  0  0  0
  5  4  2  0  0  0  0
  6  1  2  0  0  0  0
  6  5  1  0  0  0  0
  7  8  1  0  0  0  0
  9  1  1  0  0  0  0
  9  7  1  0  0  0  0
 10  9  2  0  0  0  0
 11  7  1  0  0  0  0
 11 12  1  0  0  0  0
 12 13  1  0  0  0  0
 13 14  1  0  0  0  0
 14 17  1  0  0  0  0
 14 15  1  0  0  0  0
 16 17  1  0  0  0  0
 17 19  2  0  0  0  0
 18 17  2  0  0  0  0
 20  5  1  0  0  0  0
 20 23  1  0  0  0  0
 21 20  2  0  0  0  0
 22 20  2  0  0  0  0
 23 25  1  0  0  0  0
 24 23  1  0  0  0  0
 25 26  1  0  0  0  0
 26 27  2  0  0  0  0
 26 30  1  0  0  0  0
 27 28  1  0  0  0  0
 28 29  2  0  0  0  0
 30 29  1  0  0  0  0
M  END
>  <MODEL>
1

>  <REMARK>
 VINA RESULT:      -4.0      0.000      0.000
  Name = ZINC31219118
                            x       y       z     vdW  Elec       q    Type
                         _______ _______ _______ _____ _____    ______ ____

>  <TORSDO>
F 10

>  <vina_score>
-4.0

$$$$
ZINC24195016
 OpenBabel01081722193D

 30 31  0  0  1  0  0  0  0  0999 V2000
  -29.6320   13.9530  -20.3470 C   0  0  0  0  0  0  0  0  0  0  0  0
  -30.8550   13.5320  -20.7340 C   0  0  0  0  0  0  0  0  0  0  0  0
  -31.9260   14.3800  -20.7270 N   0  0  0  0  0  0  0  0  0  0  0  0
  -32.7990   14.0280  -21.0170 H   0  0  0  0  0  0  0  0  0  0  0  0
  -31.8570   15.6610  -20.3470 C   0  0  0  0  0  0  0  0  0  0  0  0
  -30.7040   16.2260  -19.9360 N   0  0  0  0  0  0  0  0  0  0  0  0
  -30.6760   17.1710  -19.6610 H   0  0  0  0  0  0  0  0  0  0  0  0
  -32.8670   16.3380  -20.3740 O   0  0  0  0  0  0  0  0  0  0  0  0
  -29.4880   15.3950  -19.9060 C   0  0  2  0  0  0  0  0  0  0  0  0
  -28.4410   16.0610  -20.8010 C   0  0  0  0  0  0  0  0  0  0  0  0
  -28.5210   13.0770  -20.3540 C   0  0  0  0  0  0  0  0  0  0  0  0
  -27.8670   12.9330  -21.3700 O   0  0  0  0  0  0  0  0  0  0  0  0
  -28.1880   12.4010  -19.2360 O   0  0  0  0  0  0  0  0  0  0  0  0
  -27.3240   13.8290  -17.4880 C   0  0  0  0  0  0  0  0  0  0  0  0
  -26.9880   12.8010  -18.5690 C   0  0  0  0  0  0  0  0  0  0  0  0
  -31.0420   12.1060  -21.1810 C   0  0  0  0  0  0  0  0  0  0  0  0
  -32.3810   11.9380  -21.7190 O   0  0  0  0  0  0  0  0  0  0  0  0
  -33.2420   11.2080  -20.9930 C   0  0  0  0  0  0  0  0  0  0  0  0
  -34.2990   10.8690  -21.4710 O   0  0  0  0  0  0  0  0  0  0  0  0
  -32.8900   10.8100  -19.5830 C   0  0  0  0  0  0  0  0  0  0  0  0
  -33.3070   11.8660  -18.6580 N   0  0  0  0  0  0  0  0  0  0  0  0
  -34.4800   12.6890  -18.9660 C   0  0  0  0  0  0  0  0  0  0  0  0
  -32.4560   12.1280  -17.2620 S   0  0  0  0  0  0  0  0  0  0  0  0
  -32.0760   13.4980  -17.2690 O   0  0  0  0  0  0  0  0  0  0  0  0
  -31.5070   11.0750  -17.1610 O   0  0  0  0  0  0  0  0  0  0  0  0
  -33.5790   11.9240  -15.9200 C   0  0  0  0  0  0  0  0  0  0  0  0
  -34.2180   10.8030  -15.5050 C   0  0  0  0  0  0  0  0  0  0  0  0
  -35.0620   10.8790  -14.4120 C   0  0  0  0  0  0  0  0  0  0  0  0
  -35.2350   12.0730  -13.7960 C   0  0  0  0  0  0  0  0  0  0  0  0
  -34.1790   13.1420  -14.7600 S   0  0  0  0  0  0  0  0  0  0  0  0
  1  9  1  0  0  0  0
  2  3  1  0  0  0  0
  2  1  2  0  0  0  0
  3  5  1  0  0  0  0
  4  3  1  0  0  0  0
  5  6  1  0  0  0  0
  6  9  1  0  0  0  0
  6  7  1  0  0  0  0
  8  5  2  0  0  0  0
  9 10  1  6  0  0  0
 11  1  1  0  0  0  0
 11 13  1  0  0  0  0
 12 11  2  0  0  0  0
 13 15  1  0  0  0  0
 15 14  1  0  0  0  0
 16  2  1  0  0  0  0
 17 16  1  0  0  0  0
 17 18  1  0  0  0  0
 18 20  1  0  0  0  0
 19 18  2  0  0  0  0
 20 21  1  0  0  0  0
 21 23  1  0  0  0  0
 22 21  1  0  0  0  0
 23 25  2  0  0  0  0
 23 26  1  0  0  0  0
 24 23  2  0  0  0  0
 26 27  2  0  0  0  0
 26 30  1  0  0  0  0
 27 28  1  0  0  0  0
 28 29  2  0  0  0  0
 30 29  1  0  0  0  0
M  END
>  <MODEL>
1

>  <REMARK>
 VINA RESULT:      -3.8      0.000      0.000
  Name = ZINC24195016
                            x       y       z     vdW  Elec       q    Type
                         _______ _______ _______ _____ _____    ______ ____

>  <TORSDO>
F 10

>  <vina_score>
-3.8

$$$$
ZINC25317503
 OpenBabel01081722253D

 30 31  0  0  0  0  0  0  0  0999 V2000
  -28.9500   13.4690  -20.6220 N   0  0  0  0  0  0  0  0  0  0  0  0
  -27.6480   13.8390  -20.4290 C   0  0  0  0  0  0  0  0  0  0  0  0
  -26.9350   13.2410  -21.3410 N   0  0  0  0  0  0  0  0  0  0  0  0
  -27.6920   12.5190  -22.0890 N   0  0  0  0  0  0  0  0  0  0  0  0
  -28.9390   12.6190  -21.6910 C   0  0  0  0  0  0  0  0  0  0  0  0
  -30.1160   13.8930  -19.8430 C   0  0  0  0  0  0  0  0  0  0  0  0
  -32.3020   14.9950  -20.3450 C   0  0  0  0  0  0  0  0  0  0  0  0
  -30.7870   15.0810  -20.5360 C   0  0  0  0  0  0  0  0  0  0  0  0
  -30.2690   16.3860  -19.9260 C   0  0  0  0  0  0  0  0  0  0  0  0
  -27.1330   14.7700  -19.3620 C   0  0  0  0  0  0  0  0  0  0  0  0
  -26.9740   14.0010  -18.0480 C   0  0  0  0  0  0  0  0  0  0  0  0
  -28.2330   14.1360  -17.2320 C   0  0  0  0  0  0  0  0  0  0  0  0
  -28.7100   15.3590  -16.9250 N   0  0  0  0  0  0  0  0  0  0  0  0
  -29.5320   15.4470  -16.3910 H   0  0  0  0  0  0  0  0  0  0  0  0
  -28.2360   16.1640  -17.2350 H   0  0  0  0  0  0  0  0  0  0  0  0
  -28.8180   13.1440  -16.8500 O   0  0  0  0  0  0  0  0  0  0  0  0
  -30.3340   11.8140  -22.4050 S   0  0  0  0  0  0  0  0  0  0  0  0
  -30.8660   10.8040  -21.0010 C   0  0  0  0  0  0  0  0  0  0  0  0
  -32.3390   11.0150  -20.7600 C   0  0  0  0  0  0  0  0  0  0  0  0
  -32.8020   11.1640  -19.5030 N   0  0  0  0  0  0  0  0  0  0  0  0
  -31.8830   11.1160  -18.3570 C   0  0  0  0  0  0  0  0  0  0  0  0
  -32.0560   12.4080  -17.5420 C   0  0  0  0  0  0  0  0  0  0  0  0
  -33.4900   12.6160  -17.2920 N   0  0  0  0  0  0  0  0  0  0  0  0
  -34.4090   12.6580  -18.4370 C   0  0  0  0  0  0  0  0  0  0  0  0
  -34.2350   11.3710  -19.2530 C   0  0  0  0  0  0  0  0  0  0  0  0
  -33.1080   11.0510  -21.6980 O   0  0  0  0  0  0  0  0  0  0  0  0
  -34.0580   12.7980  -15.7470 S   0  0  0  0  0  0  0  0  0  0  0  0
  -34.1260   11.1160  -15.0730 C   0  0  0  0  0  0  0  0  0  0  0  0
  -35.3710   13.3170  -15.9030 O   0  0  0  0  0  0  0  0  0  0  0  0
  -33.0560   13.5530  -15.0790 O   0  0  0  0  0  0  0  0  0  0  0  0
  1  2  1  0  0  0  0
  1  6  1  0  0  0  0
  2 10  1  0  0  0  0
  3  2  2  0  0  0  0
  4  5  2  0  0  0  0
  4  3  1  0  0  0  0
  5  1  1  0  0  0  0
  8  7  1  0  0  0  0
  8  9  1  0  0  0  0
  8  6  1  0  0  0  0
 10 11  1  0  0  0  0
 11 12  1  0  0  0  0
 12 13  1  0  0  0  0
 12 16  2  0  0  0  0
 13 14  1  0  0  0  0
 15 13  1  0  0  0  0
 17  5  1  0  0  0  0
 17 18  1  0  0  0  0
 18 19  1  0  0  0  0
 19 20  1  0  0  0  0
 20 25  1  0  0  0  0
 20 21  1  0  0  0  0
 21 22  1  0  0  0  0
 22 23  1  0  0  0  0
 23 27  1  0  0  0  0
 24 23  1  0  0  0  0
 25 24  1  0  0  0  0
 26 19  2  0  0  0  0
 27 30  2  0  0  0  0
 27 28  1  0  0  0  0
 29 27  2  0  0  0  0
M  END
>  <MODEL>
1

>  <REMARK>
 VINA RESULT:      -3.8      0.000      0.000
  Name = ZINC25317503
                            x       y       z     vdW  Elec       q    Type
                         _______ _______ _______ _____ _____    ______ ____

>  <TORSDO>
F 9

>  <vina_score>
-3.8

$$$$
ZINC02861235
 OpenBabel01081722063D

 29 30  0  0  1  0  0  0  0  0999 V2000
  -34.4380   12.9990  -18.6680 C   0  0  0  0  0  0  0  0  0  0  0  0
  -33.7260   13.0860  -17.3790 N   0  0  0  0  0  0  0  0  0  0  0  0
  -33.1900   13.9530  -17.3540 H   0  0  0  0  0  0  0  0  0  0  0  0
  -34.4050   13.0730  -16.6180 H   0  0  0  0  0  0  0  0  0  0  0  0
  -32.8030   11.9460  -17.2260 C   0  0  1  0  0  0  0  0  0  0  0  0
  -31.3990   12.4040  -17.5260 C   0  0  0  0  0  0  0  0  0  0  0  0
  -30.4480   11.4890  -17.9420 C   0  0  0  0  0  0  0  0  0  0  0  0
  -29.1600   11.9090  -18.2170 C   0  0  0  0  0  0  0  0  0  0  0  0
  -28.8230   13.2420  -18.0780 C   0  0  0  0  0  0  0  0  0  0  0  0
  -29.7740   14.1560  -17.6620 C   0  0  0  0  0  0  0  0  0  0  0  0
  -31.0610   13.7360  -17.3870 C   0  0  0  0  0  0  0  0  0  0  0  0
  -32.8730   11.4210  -15.7910 C   0  0  0  0  0  0  0  0  0  0  0  0
  -34.1580   11.8810  -15.1500 C   0  0  0  0  0  0  0  0  0  0  0  0
  -34.2470   13.1180  -14.6380 O   0  0  0  0  0  0  0  0  0  0  0  0
  -35.1070   11.1350  -15.0980 O   0  0  0  0  0  0  0  0  0  0  0  0
  -34.0850   11.6750  -19.3480 C   0  0  0  0  0  0  0  0  0  0  0  0
  -33.8510   11.9150  -20.8410 C   0  0  1  0  0  0  0  0  0  0  0  0
  -29.6640   12.3450  -21.5770 C   0  0  0  0  0  0  0  0  0  0  0  0
  -30.4310   13.4560  -21.2600 C   0  0  0  0  0  0  0  0  0  0  0  0
  -31.7840   13.3150  -21.0230 C   0  0  0  0  0  0  0  0  0  0  0  0
  -32.3740   12.0670  -21.1010 C   0  0  0  0  0  0  0  0  0  0  0  0
  -31.6100   10.9560  -21.4110 C   0  0  0  0  0  0  0  0  0  0  0  0
  -30.2580   11.0940  -21.6550 C   0  0  0  0  0  0  0  0  0  0  0  0
  -28.3310   12.4810  -21.8090 O   0  0  0  0  0  0  0  0  0  0  0  0
  -27.8140   13.8120  -21.8630 C   0  0  0  0  0  0  0  0  0  0  0  0
  -25.9370   12.8310  -20.5370 C   0  0  0  0  0  0  0  0  0  0  0  0
  -26.8670   14.0380  -20.6840 C   0  0  0  0  0  0  0  0  0  0  0  0
  -34.3540   10.8040  -21.5870 O   0  0  0  0  0  0  0  0  0  0  0  0
  -35.1290   10.4360  -21.1350 H   0  0  0  0  0  0  0  0  0  0  0  0
  1  2  1  0  0  0  0
  2  3  1  0  0  0  0
  2  5  1  0  0  0  0
  2  4  1  0  0  0  0
  5  6  1  1  0  0  0
  5 12  1  0  0  0  0
  6 11  1  0  0  0  0
  7  6  2  0  0  0  0
  8  9  2  0  0  0  0
  8  7  1  0  0  0  0
  9 10  1  0  0  0  0
 10 11  2  0  0  0  0
 12 13  1  0  0  0  0
 13 15  2  0  0  0  0
 13 14  1  0  0  0  0
 16  1  1  0  0  0  0
 17 28  1  6  0  0  0
 17 16  1  0  0  0  0
 18 19  1  0  0  0  0
 19 20  2  0  0  0  0
 21 20  1  0  0  0  0
 21 17  1  0  0  0  0
 22 21  2  0  0  0  0
 23 18  2  0  0  0  0
 23 22  1  0  0  0  0
 24 18  1  0  0  0  0
 25 24  1  0  0  0  0
 25 27  1  0  0  0  0
 27 26  1  0  0  0  0
 28 29  1  0  0  0  0
M  END
>  <MODEL>
1

>  <REMARK>
 VINA RESULT:      -3.8      0.000      0.000
  Name = ZINC02861235
                            x       y       z     vdW  Elec       q    Type
                         _______ _______ _______ _____ _____    ______ ____

>  <TORSDO>
F 12

>  <vina_score>
-3.8

$$$$
ZINC21993044
 OpenBabel01081722163D

 31 33  0  0  1  0  0  0  0  0999 V2000
  -32.2280   14.2920  -20.2940 C   0  0  1  0  0  0  0  0  0  0  0  0
  -32.6510   13.4210  -21.4910 C   0  0  0  0  0  0  0  0  0  0  0  0
  -33.8030   13.0250  -20.5640 C   0  0  1  0  0  0  0  0  0  0  0  0
  -34.1950   11.2530  -20.5750 S   0  0  0  0  0  0  0  0  0  0  0  0
  -34.2990   10.8030  -18.8290 C   0  0  0  0  0  0  0  0  0  0  0  0
  -33.4110   11.5840  -17.9350 C   0  0  0  0  0  0  0  0  0  0  0  0
  -32.7830   12.7210  -18.1840 C   0  0  0  0  0  0  0  0  0  0  0  0
  -32.8820   13.3130  -19.4410 N   0  0  0  0  0  0  0  0  0  0  0  0
  -29.9860   13.3890  -20.6010 C   0  0  0  0  0  0  0  0  0  0  0  0
  -30.7770   14.3590  -20.1020 N   0  0  0  0  0  0  0  0  0  0  0  0
  -30.3800   15.1120  -19.6070 H   0  0  0  0  0  0  0  0  0  0  0  0
  -30.4760   12.4600  -21.2120 O   0  0  0  0  0  0  0  0  0  0  0  0
  -27.7160   13.0670  -21.3600 N   0  0  0  0  0  0  0  0  0  0  0  0
  -28.5180   13.4560  -20.4070 C   0  0  0  0  0  0  0  0  0  0  0  0
  -27.9640   13.9620  -19.1390 C   0  0  0  0  0  0  0  0  0  0  0  0
  -28.1350   15.2170  -18.6350 C   0  0  0  0  0  0  0  0  0  0  0  0
  -27.4370   15.2620  -17.4140 C   0  0  0  0  0  0  0  0  0  0  0  0
  -26.8790   14.0480  -17.2330 C   0  0  0  0  0  0  0  0  0  0  0  0
  -27.2050   13.2630  -18.2730 O   0  0  0  0  0  0  0  0  0  0  0  0
  -25.7940   14.4610  -21.1280 C   0  0  0  0  0  0  0  0  0  0  0  0
  -26.3140   13.1310  -21.1750 O   0  0  0  0  0  0  0  0  0  0  0  0
  -31.9760   13.3630  -17.1300 C   0  0  0  0  0  0  0  0  0  0  0  0
  -30.6310   13.3040  -17.1820 O   0  0  0  0  0  0  0  0  0  0  0  0
  -32.5240   13.9450  -16.2150 O   0  0  0  0  0  0  0  0  0  0  0  0
  -33.1960   11.0050  -16.5590 C   0  0  0  0  0  0  0  0  0  0  0  0
  -34.4790   10.8030  -15.9130 O   0  0  0  0  0  0  0  0  0  0  0  0
  -34.7800   11.6150  -14.8820 C   0  0  0  0  0  0  0  0  0  0  0  0
  -34.9940   11.0980  -13.6560 N   0  0  0  0  0  0  0  0  0  0  0  0
  -35.2140   11.6930  -12.9030 H   0  0  0  0  0  0  0  0  0  0  0  0
  -34.9310   10.1260  -13.5150 H   0  0  0  0  0  0  0  0  0  0  0  0
  -34.8570   12.8150  -15.0570 O   0  0  0  0  0  0  0  0  0  0  0  0
  1 10  1  1  0  0  0
  1  8  1  0  0  0  0
  2  1  1  0  0  0  0
  3  2  1  6  0  0  0
  3  8  1  0  0  0  0
  4  3  1  0  0  0  0
  4  5  1  0  0  0  0
  5  6  1  0  0  0  0
  6 25  1  0  0  0  0
  7  6  2  0  0  0  0
  7 22  1  0  0  0  0
  8  7  1  0  0  0  0
  9 14  1  0  0  0  0
  9 10  1  0  0  0  0
 10 11  1  0  0  0  0
 12  9  2  0  0  0  0
 13 21  1  0  0  0  0
 13 14  2  0  0  0  0
 14 15  1  0  0  0  0
 15 16  2  0  0  0  0
 15 19  1  0  0  0  0
 16 17  1  0  0  0  0
 17 18  2  0  0  0  0
 19 18  1  0  0  0  0
 21 20  1  0  0  0  0
 22 24  1  0  0  0  0
 23 22  2  0  0  0  0
 25 26  1  0  0  0  0
 26 27  1  0  0  0  0
 27 28  1  0  0  0  0
 28 30  1  0  0  0  0
 28 29  1  0  0  0  0
 31 27  2  0  0  0  0
M  END
>  <MODEL>
1

>  <REMARK>
 VINA RESULT:      -3.7      0.000      0.000
  Name = ZINC21993044
                            x       y       z     vdW  Elec       q    Type
                         _______ _______ _______ _____ _____    ______ ____

>  <TORSDO>
F 8

>  <vina_score>
-3.7

$$$$
ZINC22962643
 OpenBabel01081722103D

 30 31  0  0  0  0  0  0  0  0999 V2000
  -30.9700   12.2970  -20.3130 C   0  0  0  0  0  0  0  0  0  0  0  0
  -29.7120   12.2720  -19.7440 C   0  0  0  0  0  0  0  0  0  0  0  0
  -28.6060   12.2250  -20.5590 N   0  0  0  0  0  0  0  0  0  0  0  0
  -28.7480   12.1990  -21.8970 C   0  0  0  0  0  0  0  0  0  0  0  0
  -29.9640   12.2280  -22.4690 N   0  0  0  0  0  0  0  0  0  0  0  0
  -30.0400   12.2150  -23.4520 H   0  0  0  0  0  0  0  0  0  0  0  0
  -27.7580   12.1520  -22.6010 O   0  0  0  0  0  0  0  0  0  0  0  0
  -31.0800   12.2730  -21.7160 C   0  0  0  0  0  0  0  0  0  0  0  0
  -32.1780   12.2950  -22.2460 O   0  0  0  0  0  0  0  0  0  0  0  0
  -32.5680   13.5290  -19.0350 C   0  0  0  0  0  0  0  0  0  0  0  0
  -32.1220   12.3450  -19.5030 N   0  0  0  0  0  0  0  0  0  0  0  0
  -33.5110   13.5630  -18.2700 O   0  0  0  0  0  0  0  0  0  0  0  0
  -28.5780   16.3090  -19.0710 C   0  0  0  0  0  0  0  0  0  0  0  0
  -30.0160   16.1090  -19.4720 C   0  0  0  0  0  0  0  0  0  0  0  0
  -30.6630   17.0900  -20.2070 C   0  0  0  0  0  0  0  0  0  0  0  0
  -31.9860   16.9000  -20.5760 C   0  0  0  0  0  0  0  0  0  0  0  0
  -32.6170   15.7260  -20.1960 C   0  0  0  0  0  0  0  0  0  0  0  0
  -31.9070   14.7870  -19.4530 C   0  0  0  0  0  0  0  0  0  0  0  0
  -30.6400   15.0070  -19.1210 N   0  0  0  0  0  0  0  0  0  0  0  0
  -32.8360   11.1100  -19.1700 C   0  0  0  0  0  0  0  0  0  0  0  0
  -32.6620   10.8060  -17.6810 C   0  0  0  0  0  0  0  0  0  0  0  0
  -33.9410   10.8180  -17.0400 O   0  0  0  0  0  0  0  0  0  0  0  0
  -33.8750   10.8610  -15.6140 C   0  0  0  0  0  0  0  0  0  0  0  0
  -29.5680   12.2930  -18.3770 N   0  0  0  0  0  0  0  0  0  0  0  0
  -30.1700   11.7580  -17.8100 H   0  0  0  0  0  0  0  0  0  0  0  0
  -28.8640   12.8440  -17.9640 H   0  0  0  0  0  0  0  0  0  0  0  0
  -27.2660   12.1980  -19.9680 C   0  0  0  0  0  0  0  0  0  0  0  0
  -26.7630   13.6310  -19.7780 C   0  0  0  0  0  0  0  0  0  0  0  0
  -25.3890   13.7790  -20.4360 C   0  0  0  0  0  0  0  0  0  0  0  0
  -26.6490   13.9370  -18.2840 C   0  0  0  0  0  0  0  0  0  0  0  0
  1  2  2  0  0  0  0
  1 11  1  0  0  0  0
  2 24  1  0  0  0  0
  3 27  1  0  0  0  0
  3  2  1  0  0  0  0
  4  3  1  0  0  0  0
  5  4  1  0  0  0  0
  5  8  1  0  0  0  0
  6  5  1  0  0  0  0
  7  4  2  0  0  0  0
  8  1  1  0  0  0  0
  9  8  2  0  0  0  0
 10 12  2  0  0  0  0
 11 20  1  0  0  0  0
 11 10  1  0  0  0  0
 14 19  2  0  0  0  0
 14 13  1  0  0  0  0
 15 14  1  0  0  0  0
 16 15  2  0  0  0  0
 16 17  1  0  0  0  0
 17 18  2  0  0  0  0
 18 19  1  0  0  0  0
 18 10  1  0  0  0  0
 20 21  1  0  0  0  0
 21 22  1  0  0  0  0
 22 23  1  0  0  0  0
 24 26  1  0  0  0  0
 24 25  1  0  0  0  0
 27 28  1  0  0  0  0
 28 30  1  0  0  0  0
 29 28  1  0  0  0  0
M  END
>  <MODEL>
1

>  <REMARK>
 VINA RESULT:      -3.7      0.000      0.000
  Name = ZINC22962643
                            x       y       z     vdW  Elec       q    Type
                         _______ _______ _______ _____ _____    ______ ____

>  <TORSDO>
F 8

>  <vina_score>
-3.7

$$$$
ZINC11899088
 OpenBabel01081722123D

 34 36  0  0  1  0  0  0  0  0999 V2000
  -32.7550   12.7330  -21.5590 C   0  0  0  0  0  0  0  0  0  0  0  0
  -31.3380   12.9660  -21.8480 N   0  0  0  0  0  0  0  0  0  0  0  0
  -31.0200   13.8760  -22.0520 H   0  0  0  0  0  0  0  0  0  0  0  0
  -30.4690   11.9360  -21.8360 C   0  0  0  0  0  0  0  0  0  0  0  0
  -30.8600   10.8150  -21.5840 O   0  0  0  0  0  0  0  0  0  0  0  0
  -29.0220   12.1750  -22.1300 C   0  0  0  0  0  0  0  0  0  0  0  0
  -28.4730   13.3790  -21.8760 N   0  0  0  0  0  0  0  0  0  0  0  0
  -29.0230   14.1010  -21.4950 H   0  0  0  0  0  0  0  0  0  0  0  0
  -28.3450   11.2850  -22.5990 O   0  0  0  0  0  0  0  0  0  0  0  0
  -27.0560   13.6120  -22.1630 C   0  0  0  0  0  0  0  0  0  0  0  0
  -26.5780   14.8510  -21.4020 C   0  0  0  0  0  0  0  0  0  0  0  0
  -26.5230   14.5330  -19.9590 N   0  0  0  0  0  0  0  0  0  0  0  0
  -25.5880   14.7440  -19.6100 H   0  0  0  0  0  0  0  0  0  0  0  0
  -27.5070   15.3550  -19.2230 C   0  0  0  0  0  0  0  0  0  0  0  0
  -27.4000   15.0290  -17.7310 C   0  0  0  0  0  0  0  0  0  0  0  0
  -27.6240   13.6300  -17.5360 O   0  0  0  0  0  0  0  0  0  0  0  0
  -26.7070   12.7960  -18.2490 C   0  0  0  0  0  0  0  0  0  0  0  0
  -26.8070   13.0990  -19.7460 C   0  0  0  0  0  0  0  0  0  0  0  0
  -33.1680   13.5540  -20.3360 C   0  0  1  0  0  0  0  0  0  0  0  0
  -33.0350   12.7470  -19.1040 N   0  0  0  0  0  0  0  0  0  0  0  0
  -32.0980   12.3460  -19.0700 H   0  0  0  0  0  0  0  0  0  0  0  0
  -34.0270   11.6510  -19.1080 C   0  0  0  0  0  0  0  0  0  0  0  0
  -33.8310   10.8030  -17.8490 C   0  0  0  0  0  0  0  0  0  0  0  0
  -34.0300   11.6590  -16.6610 N   0  0  0  0  0  0  0  0  0  0  0  0
  -34.9680   12.0590  -16.6940 H   0  0  0  0  0  0  0  0  0  0  0  0
  -33.8980   10.8520  -15.4290 C   0  0  0  0  0  0  0  0  0  0  0  0
  -33.0380   12.7550  -16.6570 C   0  0  0  0  0  0  0  0  0  0  0  0
  -33.2360   13.6030  -17.9150 C   0  0  0  0  0  0  0  0  0  0  0  0
  -30.3530   13.6590  -19.0420 C   0  0  0  0  0  0  0  0  0  0  0  0
  -31.0430   14.7990  -19.6500 N   0  0  0  0  0  0  0  0  0  0  0  0
  -30.5530   16.0680  -19.7410 C   0  0  0  0  0  0  0  0  0  0  0  0
  -31.4770   16.8340  -20.3570 C   0  0  0  0  0  0  0  0  0  0  0  0
  -32.5750   16.0060  -20.6630 C   0  0  0  0  0  0  0  0  0  0  0  0
  -32.2800   14.7660  -20.2210 C   0  0  0  0  0  0  0  0  0  0  0  0
  2  4  1  0  0  0  0
  2  1  1  0  0  0  0
  3  2  1  0  0  0  0
  4  5  2  0  0  0  0
  6  7  1  0  0  0  0
  6  4  1  0  0  0  0
  7  8  1  0  0  0  0
  9  6  2  0  0  0  0
 10  7  1  0  0  0  0
 10 11  1  0  0  0  0
 11 12  1  0  0  0  0
 12 18  1  0  0  0  0
 12 13  1  0  0  0  0
 12 14  1  0  0  0  0
 14 15  1  0  0  0  0
 15 16  1  0  0  0  0
 17 16  1  0  0  0  0
 18 17  1  0  0  0  0
 19  1  1  6  0  0  0
 19 34  1  0  0  0  0
 19 20  1  0  0  0  0
 20 21  1  0  0  0  0
 20 28  1  0  0  0  0
 22 20  1  0  0  0  0
 22 23  1  0  0  0  0
 23 24  1  0  0  0  0
 24 27  1  0  0  0  0
 24 26  1  0  0  0  0
 25 24  1  0  0  0  0
 28 27  1  0  0  0  0
 30 29  1  0  0  0  0
 31 30  1  0  0  0  0
 32 31  2  0  0  0  0
 33 32  1  0  0  0  0
 33 34  2  0  0  0  0
 34 30  1  0  0  0  0
M  END
>  <MODEL>
1

>  <REMARK>
 VINA RESULT:      -3.6      0.000      0.000
  Name = ZINC11899088
                            x       y       z     vdW  Elec       q    Type
                         _______ _______ _______ _____ _____    ______ ____

>  <TORSDO>
F 8

>  <vina_score>
-3.6

$$$$
ZINC09467478
 OpenBabel01081722103D

 33 35  0  0  0  0  0  0  0  0999 V2000
  -31.5070   11.6120  -20.3880 C   0  0  0  0  0  0  0  0  0  0  0  0
  -31.9920   11.7840  -21.5960 N   0  0  0  0  0  0  0  0  0  0  0  0
  -31.0360   11.8000  -22.4540 N   0  0  0  0  0  0  0  0  0  0  0  0
  -29.8810   11.6410  -21.8470 C   0  0  0  0  0  0  0  0  0  0  0  0
  -30.1390   11.5210  -20.5110 N   0  0  0  0  0  0  0  0  0  0  0  0
  -33.5390   12.1400  -19.0490 C   0  0  0  0  0  0  0  0  0  0  0  0
  -34.2630   12.0640  -17.8780 C   0  0  0  0  0  0  0  0  0  0  0  0
  -33.7380   11.3990  -16.7770 C   0  0  0  0  0  0  0  0  0  0  0  0
  -32.4850   10.8040  -16.8550 C   0  0  0  0  0  0  0  0  0  0  0  0
  -31.7590   10.8700  -18.0240 C   0  0  0  0  0  0  0  0  0  0  0  0
  -32.2830   11.5380  -19.1320 C   0  0  0  0  0  0  0  0  0  0  0  0
  -34.4510   11.3300  -15.6240 O   0  0  0  0  0  0  0  0  0  0  0  0
  -34.6730   12.5570  -14.9250 C   0  0  0  0  0  0  0  0  0  0  0  0
  -33.5040   13.3240  -14.9480 F   0  0  0  0  0  0  0  0  0  0  0  0
  -35.0250   12.2820  -13.5990 F   0  0  0  0  0  0  0  0  0  0  0  0
  -29.2300   11.3430  -19.5070 N   0  0  0  0  0  0  0  0  0  0  0  0
  -29.1540   10.4690  -19.0610 H   0  0  0  0  0  0  0  0  0  0  0  0
  -28.6510   12.0890  -19.2300 H   0  0  0  0  0  0  0  0  0  0  0  0
  -28.2950   11.5980  -22.6130 S   0  0  0  0  0  0  0  0  0  0  0  0
  -27.3510   12.6020  -21.4380 C   0  0  0  0  0  0  0  0  0  0  0  0
  -27.7640   14.0460  -21.5670 C   0  0  0  0  0  0  0  0  0  0  0  0
  -28.8700   14.4880  -20.9360 N   0  0  0  0  0  0  0  0  0  0  0  0
  -29.4080   13.8680  -20.3920 H   0  0  0  0  0  0  0  0  0  0  0  0
  -27.1020   14.8080  -22.2370 O   0  0  0  0  0  0  0  0  0  0  0  0
  -29.2720   15.8910  -21.0610 C   0  0  0  0  0  0  0  0  0  0  0  0
  -29.5110   16.4800  -19.6690 C   0  0  0  0  0  0  0  0  0  0  0  0
  -29.4300   15.4130  -18.6680 N   0  0  0  0  0  0  0  0  0  0  0  0
  -28.2760   15.2170  -18.0520 C   0  0  0  0  0  0  0  0  0  0  0  0
  -28.2680   14.0950  -17.0240 C   0  0  0  0  0  0  0  0  0  0  0  0
  -30.0070   13.5210  -17.1710 S   0  0  0  0  0  0  0  0  0  0  0  0
  -27.2920   15.8850  -18.2900 O   0  0  0  0  0  0  0  0  0  0  0  0
  -30.5320   14.6790  -18.4250 C   0  0  0  0  0  0  0  0  0  0  0  0
  -31.6280   14.7820  -18.9410 O   0  0  0  0  0  0  0  0  0  0  0  0
  1 11  1  0  0  0  0
  2  1  2  0  0  0  0
  3  4  2  0  0  0  0
  3  2  1  0  0  0  0
  4  5  1  0  0  0  0
  5  1  1  0  0  0  0
  5 16  1  0  0  0  0
  6  7  1  0  0  0  0
  7  8  2  0  0  0  0
  8 12  1  0  0  0  0
  9  8  1  0  0  0  0
 10  9  2  0  0  0  0
 11  6  2  0  0  0  0
 11 10  1  0  0  0  0
 12 13  1  0  0  0  0
 13 15  1  0  0  0  0
 14 13  1  0  0  0  0
 16 18  1  0  0  0  0
 16 17  1  0  0  0  0
 19  4  1  0  0  0  0
 19 20  1  0  0  0  0
 21 20  1  0  0  0  0
 21 22  1  0  0  0  0
 22 23  1  0  0  0  0
 24 21  2  0  0  0  0
 25 22  1  0  0  0  0
 25 26  1  0  0  0  0
 26 27  1  0  0  0  0
 27 32  1  0  0  0  0
 27 28  1  0  0  0  0
 28 29  1  0  0  0  0
 30 29  2  0  0  0  0
 31 28  2  0  0  0  0
 32 30  1  0  0  0  0
 33 32  2  0  0  0  0
M  END
>  <MODEL>
1

>  <REMARK>
 VINA RESULT:      -3.5      0.000      0.000
  Name = ZINC09467478
                            x       y       z     vdW  Elec       q    Type
                         _______ _______ _______ _____ _____    ______ ____

>  <TORSDO>
F 10

>  <vina_score>
-3.5

$$$$
ZINC27310656
 OpenBabel01081722303D

 29 30  0  0  1  0  0  0  0  0999 V2000
  -30.7570   15.5800  -20.2990 C   0  0  0  0  0  0  0  0  0  0  0  0
  -32.1590   16.5450  -19.8430 S   0  0  0  0  0  0  0  0  0  0  0  0
  -30.9320   14.2870  -20.7810 C   0  0  2  0  0  0  0  0  0  0  0  0
  -29.8370   13.5330  -21.1380 N   0  0  0  0  0  0  0  0  0  0  0  0
  -30.0220   12.3240  -21.6520 C   0  0  0  0  0  0  0  0  0  0  0  0
  -28.9490   11.5400  -22.0210 C   0  0  0  0  0  0  0  0  0  0  0  0
  -27.6610   12.0280  -21.8490 C   0  0  0  0  0  0  0  0  0  0  0  0
  -27.4990   13.3000  -21.3070 C   0  0  0  0  0  0  0  0  0  0  0  0
  -26.2550   13.8170  -21.1220 O   0  0  0  0  0  0  0  0  0  0  0  0
  -28.6210   14.0350  -20.9630 C   0  0  0  0  0  0  0  0  0  0  0  0
  -29.4970   16.1030  -20.1790 N   0  0  0  0  0  0  0  0  0  0  0  0
  -28.9250   16.1960  -20.9750 H   0  0  0  0  0  0  0  0  0  0  0  0
  -28.9990   16.5210  -18.8660 C   0  0  0  0  0  0  0  0  0  0  0  0
  -29.4600   14.5340  -17.2370 C   0  0  0  0  0  0  0  0  0  0  0  0
  -28.5090   15.3150  -18.1070 C   0  0  0  0  0  0  0  0  0  0  0  0
  -27.2550   14.9450  -18.2030 C   0  0  0  0  0  0  0  0  0  0  0  0
  -32.2310   13.7480  -20.9060 C   0  0  0  0  0  0  0  0  0  0  0  0
  -32.9450   14.0840  -21.8380 O   0  0  0  0  0  0  0  0  0  0  0  0
  -32.7250   12.7830  -19.9140 C   0  0  0  0  0  0  0  0  0  0  0  0
  -33.2100   11.5010  -20.1090 C   0  0  0  0  0  0  0  0  0  0  0  0
  -33.6110   10.8060  -18.9940 C   0  0  0  0  0  0  0  0  0  0  0  0
  -33.5140   11.3980  -17.7750 C   0  0  0  0  0  0  0  0  0  0  0  0
  -32.8550   12.9580  -18.1440 S   0  0  0  0  0  0  0  0  0  0  0  0
  -33.8940   10.8360  -16.4290 C   0  0  0  0  0  0  0  0  0  0  0  0
  -33.8790   11.9080  -15.4310 N   0  0  0  0  0  0  0  0  0  0  0  0
  -33.1460   12.5660  -15.4250 H   0  0  0  0  0  0  0  0  0  0  0  0
  -34.8690   11.9950  -14.5210 C   0  0  0  0  0  0  0  0  0  0  0  0
  -34.8540   13.0980  -13.4930 C   0  0  0  0  0  0  0  0  0  0  0  0
  -35.7720   11.1850  -14.5280 O   0  0  0  0  0  0  0  0  0  0  0  0
  1 11  1  0  0  0  0
  1  2  2  0  0  0  0
  3  4  1  6  0  0  0
  3  1  1  0  0  0  0
  4 10  1  0  0  0  0
  5  4  1  0  0  0  0
  6  7  1  0  0  0  0
  6  5  2  0  0  0  0
  7  8  1  0  0  0  0
  8  9  1  0  0  0  0
  8 10  2  0  0  0  0
 11 13  1  0  0  0  0
 12 11  1  0  0  0  0
 13 15  1  0  0  0  0
 15 14  1  0  0  0  0
 16 15  2  0  0  0  0
 17  3  1  0  0  0  0
 17 19  1  0  0  0  0
 18 17  2  0  0  0  0
 19 23  1  0  0  0  0
 20 19  2  0  0  0  0
 20 21  1  0  0  0  0
 21 22  2  0  0  0  0
 22 24  1  0  0  0  0
 23 22  1  0  0  0  0
 24 25  1  0  0  0  0
 25 26  1  0  0  0  0
 25 27  1  0  0  0  0
 27 28  1  0  0  0  0
 29 27  2  0  0  0  0
M  END
>  <MODEL>
1

>  <REMARK>
 VINA RESULT:      -3.4      0.000      0.000
  Name = ZINC27310656
                            x       y       z     vdW  Elec       q    Type
                         _______ _______ _______ _____ _____    ______ ____

>  <TORSDO>
F 8

>  <vina_score>
-3.4

$$$$
ZINC01606538
 OpenBabel01081722103D

 23 23  0  0  0  0  0  0  0  0999 V2000
  -33.9930   10.8440  -15.7270 C   0  0  0  0  0  0  0  0  0  0  0  0
  -33.4730   11.0140  -17.1310 C   0  0  0  0  0  0  0  0  0  0  0  0
  -32.1510   11.3760  -17.3320 C   0  0  0  0  0  0  0  0  0  0  0  0
  -31.6810   11.5230  -18.6480 C   0  0  0  0  0  0  0  0  0  0  0  0
  -32.5800   11.3010  -19.6980 C   0  0  0  0  0  0  0  0  0  0  0  0
  -33.8800   10.9480  -19.4030 C   0  0  0  0  0  0  0  0  0  0  0  0
  -34.2830   10.8200  -18.1530 N   0  0  0  0  0  0  0  0  0  0  0  0
  -31.3220   11.5800  -16.2750 O   0  0  0  0  0  0  0  0  0  0  0  0
  -30.4700   11.1910  -16.2670 H   0  0  0  0  0  0  0  0  0  0  0  0
  -30.2820   11.9030  -18.9150 C   0  0  0  0  0  0  0  0  0  0  0  0
  -29.7300   12.8640  -18.2390 N   0  0  0  0  0  0  0  0  0  0  0  0
  -28.4000   13.2240  -18.4930 N   0  0  0  0  0  0  0  0  0  0  0  0
  -27.6670   12.6290  -18.2160 H   0  0  0  0  0  0  0  0  0  0  0  0
  -28.1240   14.3860  -19.1190 C   0  0  0  0  0  0  0  0  0  0  0  0
  -29.0280   15.1200  -19.4620 O   0  0  0  0  0  0  0  0  0  0  0  0
  -26.6940   14.7740  -19.3930 C   0  0  0  0  0  0  0  0  0  0  0  0
  -26.2570   14.1730  -20.6600 N   0  0  0  0  0  0  0  0  0  0  0  0
  -25.2510   15.0370  -21.2910 C   0  0  0  0  0  0  0  0  0  0  0  0
  -27.4110   14.0290  -21.5570 C   0  0  0  0  0  0  0  0  0  0  0  0
  -25.6730   12.8510  -20.3980 C   0  0  0  0  0  0  0  0  0  0  0  0
  -32.1330   11.4440  -21.1300 C   0  0  0  0  0  0  0  0  0  0  0  0
  -32.5590   12.7100  -21.6380 O   0  0  0  0  0  0  0  0  0  0  0  0
  -31.7830   13.2540  -21.8420 H   0  0  0  0  0  0  0  0  0  0  0  0
  2  1  1  0  0  0  0
  3  2  1  0  0  0  0
  3  8  1  0  0  0  0
  4  3  2  0  0  0  0
  5  6  2  0  0  0  0
  5  4  1  0  0  0  0
  6  7  1  0  0  0  0
  7  2  2  0  0  0  0
  8  9  1  0  0  0  0
 10  4  1  0  0  0  0
 10 11  2  0  0  0  0
 12 11  1  0  0  0  0
 12 13  1  0  0  0  0
 14 12  1  0  0  0  0
 15 14  2  0  0  0  0
 16 14  1  0  0  0  0
 17 20  1  0  0  0  0
 17 16  1  0  0  0  0
 18 17  1  0  0  0  0
 19 17  1  0  0  0  0
 21  5  1  0  0  0  0
 22 21  1  0  0  0  0
 23 22  1  0  0  0  0
M  END
>  <MODEL>
1

>  <REMARK>
 VINA RESULT:      -3.2      0.000      0.000
  Name = ZINC01606538
                            x       y       z     vdW  Elec       q    Type
                         _______ _______ _______ _____ _____    ______ ____

>  <TORSDO>
F 7

>  <vina_score>
-3.2

$$$$
ZINC17480998
 OpenBabel01081722143D

 31 33  0  0  1  0  0  0  0  0999 V2000
  -30.0400   13.2880  -20.0460 N   0  0  0  0  0  0  0  0  0  0  0  0
  -31.2910   13.7560  -20.2380 C   0  0  0  0  0  0  0  0  0  0  0  0
  -32.2170   12.9390  -21.1180 C   0  0  1  0  0  0  0  0  0  0  0  0
  -31.6410   11.6590  -21.6920 C   0  0  0  0  0  0  0  0  0  0  0  0
  -30.3640   11.3550  -21.3800 N   0  0  0  0  0  0  0  0  0  0  0  0
  -29.9680   10.5290  -21.7410 H   0  0  0  0  0  0  0  0  0  0  0  0
  -32.3040   10.9350  -22.4030 O   0  0  0  0  0  0  0  0  0  0  0  0
  -31.6590   14.7930  -19.7280 O   0  0  0  0  0  0  0  0  0  0  0  0
  -29.6190   12.1430  -20.5970 C   0  0  0  0  0  0  0  0  0  0  0  0
  -28.4780   11.7930  -20.3680 O   0  0  0  0  0  0  0  0  0  0  0  0
  -28.3140   14.9730  -19.8160 C   0  0  0  0  0  0  0  0  0  0  0  0
  -27.4410   15.6940  -19.0160 C   0  0  0  0  0  0  0  0  0  0  0  0
  -27.4050   15.4690  -17.6530 C   0  0  0  0  0  0  0  0  0  0  0  0
  -28.2380   14.5250  -17.0820 C   0  0  0  0  0  0  0  0  0  0  0  0
  -29.1120   13.8010  -17.8730 C   0  0  0  0  0  0  0  0  0  0  0  0
  -29.1540   14.0210  -19.2410 C   0  0  0  0  0  0  0  0  0  0  0  0
  -27.4120   14.4740  -21.9580 C   0  0  0  0  0  0  0  0  0  0  0  0
  -28.3500   15.1930  -21.1570 O   0  0  0  0  0  0  0  0  0  0  0  0
  -33.4350   12.5820  -20.3050 C   0  0  0  0  0  0  0  0  0  0  0  0
  -33.2400   12.1930  -19.0650 N   0  0  0  0  0  0  0  0  0  0  0  0
  -34.4110   11.8210  -18.2000 C   0  0  0  0  0  0  0  0  0  0  0  0
  -33.9400   10.8070  -17.1540 C   0  0  0  0  0  0  0  0  0  0  0  0
  -33.9800   11.4360  -15.8160 N   0  0  0  0  0  0  0  0  0  0  0  0
  -33.0870   11.2740  -15.3490 H   0  0  0  0  0  0  0  0  0  0  0  0
  -35.0610   10.8360  -15.0090 C   0  0  0  0  0  0  0  0  0  0  0  0
  -35.0420   11.4650  -13.6130 C   0  0  0  0  0  0  0  0  0  0  0  0
  -35.2440   12.9230  -13.7280 N   0  0  0  0  0  0  0  0  0  0  0  0
  -35.2130   13.3360  -12.7960 H   0  0  0  0  0  0  0  0  0  0  0  0
  -36.1480   13.1050  -14.1620 H   0  0  0  0  0  0  0  0  0  0  0  0
  -34.1780   13.5210  -14.5540 C   0  0  0  0  0  0  0  0  0  0  0  0
  -34.1970   12.8920  -15.9490 C   0  0  0  0  0  0  0  0  0  0  0  0
  1 16  1  0  0  0  0
  2  1  1  0  0  0  0
  2  8  2  0  0  0  0
  3 19  1  1  0  0  0
  3  2  1  0  0  0  0
  4  5  1  0  0  0  0
  4  3  1  0  0  0  0
  5  9  1  0  0  0  0
  6  5  1  0  0  0  0
  7  4  2  0  0  0  0
  9 10  2  0  0  0  0
  9  1  1  0  0  0  0
 11 16  2  0  0  0  0
 11 12  1  0  0  0  0
 12 13  2  0  0  0  0
 13 14  1  0  0  0  0
 15 14  2  0  0  0  0
 16 15  1  0  0  0  0
 17 18  1  0  0  0  0
 18 11  1  0  0  0  0
 19 20  2  0  0  0  0
 20 21  1  0  0  0  0
 21 22  1  0  0  0  0
 22 23  1  0  0  0  0
 23 24  1  0  0  0  0
 23 25  1  0  0  0  0
 25 26  1  0  0  0  0
 27 26  1  0  0  0  0
 27 28  1  0  0  0  0
 29 27  1  0  0  0  0
 30 27  1  0  0  0  0
 31 23  1  0  0  0  0
 31 30  1  0  0  0  0
M  END
>  <MODEL>
1

>  <REMARK>
 VINA RESULT:      -2.9      0.000      0.000
  Name = ZINC17480998
                            x       y       z     vdW  Elec       q    Type
                         _______ _______ _______ _____ _____    ______ ____

>  <TORSDO>
F 6

>  <vina_score>
-2.9

$$$$
ZINC25820808
 OpenBabel01081722243D

 34 36  0  0  0  0  0  0  0  0999 V2000
  -29.8170   15.5040  -19.9320 C   0  0  0  0  0  0  0  0  0  0  0  0
  -30.4190   16.5330  -20.1680 O   0  0  0  0  0  0  0  0  0  0  0  0
  -31.0700   11.8580  -21.7150 C   0  0  0  0  0  0  0  0  0  0  0  0
  -29.7560   12.2610  -21.8440 C   0  0  0  0  0  0  0  0  0  0  0  0
  -29.3340   13.4520  -21.2650 C   0  0  0  0  0  0  0  0  0  0  0  0
  -30.2500   14.2400  -20.5510 C   0  0  0  0  0  0  0  0  0  0  0  0
  -31.5770   13.8160  -20.4290 C   0  0  0  0  0  0  0  0  0  0  0  0
  -31.9770   12.6330  -21.0110 C   0  0  0  0  0  0  0  0  0  0  0  0
  -33.3820   12.1870  -20.8810 N   0  0  0  0  0  0  0  0  0  0  0  0
  -34.1760   12.8540  -20.2420 O   0  0  0  0  0  0  0  0  0  0  0  0
  -33.7440   11.1530  -21.4130 O   0  0  0  0  0  0  0  0  0  0  0  0
  -28.0120   13.8570  -21.3870 N   0  0  0  0  0  0  0  0  0  0  0  0
  -27.8030   14.7630  -21.7060 H   0  0  0  0  0  0  0  0  0  0  0  0
  -26.9280   12.9340  -21.0420 C   0  0  0  0  0  0  0  0  0  0  0  0
  -25.7020   13.7310  -20.5910 C   0  0  0  0  0  0  0  0  0  0  0  0
  -26.0990   15.0620  -20.2550 O   0  0  0  0  0  0  0  0  0  0  0  0
  -25.8520   15.2500  -19.3350 H   0  0  0  0  0  0  0  0  0  0  0  0
  -28.7520   15.5200  -19.1060 O   0  0  0  0  0  0  0  0  0  0  0  0
  -28.9690   15.0720  -17.7420 C   0  0  0  0  0  0  0  0  0  0  0  0
  -28.7260   13.5880  -17.6550 C   0  0  0  0  0  0  0  0  0  0  0  0
  -27.5960   13.1650  -17.5280 O   0  0  0  0  0  0  0  0  0  0  0  0
  -29.8540   12.6550  -17.7240 C   0  0  0  0  0  0  0  0  0  0  0  0
  -31.1570   12.8670  -17.2110 C   0  0  0  0  0  0  0  0  0  0  0  0
  -31.8830   11.7500  -17.4930 C   0  0  0  0  0  0  0  0  0  0  0  0
  -31.0700   10.8590  -18.1600 N   0  0  0  0  0  0  0  0  0  0  0  0
  -31.3430    9.9680  -18.4790 H   0  0  0  0  0  0  0  0  0  0  0  0
  -29.8510   11.3980  -18.3090 C   0  0  0  0  0  0  0  0  0  0  0  0
  -33.2930   11.5310  -17.1440 C   0  0  0  0  0  0  0  0  0  0  0  0
  -33.8210   12.1380  -16.0620 N   0  0  0  0  0  0  0  0  0  0  0  0
  -33.1010   13.0330  -15.1440 C   0  0  0  0  0  0  0  0  0  0  0  0
  -34.0980   13.4640  -14.0490 C   0  0  0  0  0  0  0  0  0  0  0  0
  -35.1620   12.3350  -14.0850 C   0  0  0  0  0  0  0  0  0  0  0  0
  -35.2140   12.0070  -15.5980 C   0  0  0  0  0  0  0  0  0  0  0  0
  -33.9840   10.8030  -17.8310 O   0  0  0  0  0  0  0  0  0  0  0  0
  1 18  1  0  0  0  0
  2  1  2  0  0  0  0
  3  8  1  0  0  0  0
  4  3  2  0  0  0  0
  4  5  1  0  0  0  0
  5  6  2  0  0  0  0
  6  7  1  0  0  0  0
  6  1  1  0  0  0  0
  8  9  1  0  0  0  0
  8  7  2  0  0  0  0
  9 10  2  0  0  0  0
 11  9  2  0  0  0  0
 12  5  1  0  0  0  0
 12 14  1  0  0  0  0
 13 12  1  0  0  0  0
 14 15  1  0  0  0  0
 15 16  1  0  0  0  0
 16 17  1  0  0  0  0
 18 19  1  0  0  0  0
 19 20  1  0  0  0  0
 20 21  2  0  0  0  0
 22 20  1  0  0  0  0
 22 23  1  0  0  0  0
 24 23  2  0  0  0  0
 24 28  1  0  0  0  0
 25 24  1  0  0  0  0
 26 25  1  0  0  0  0
 27 25  1  0  0  0  0
 27 22  2  0  0  0  0
 28 29  1  0  0  0  0
 29 33  1  0  0  0  0
 29 30  1  0  0  0  0
 30 31  1  0  0  0  0
 32 31  1  0  0  0  0
 33 32  1  0  0  0  0
 34 28  2  0  0  0  0
M  END
>  <MODEL>
1

>  <REMARK>
 VINA RESULT:      -2.9      0.000      0.000
  Name = ZINC25820808
                            x       y       z     vdW  Elec       q    Type
                         _______ _______ _______ _____ _____    ______ ____

>  <TORSDO>
F 11

>  <vina_score>
-2.9

$$$$
ZINC29840205
 OpenBabel01081722153D

 31 31  0  0  0  0  0  0  0  0999 V2000
  -28.8600   12.8320  -20.4730 C   0  0  0  0  0  0  0  0  0  0  0  0
  -29.2990   12.7850  -21.7840 C   0  0  0  0  0  0  0  0  0  0  0  0
  -30.4630   12.1120  -22.1040 C   0  0  0  0  0  0  0  0  0  0  0  0
  -31.1880   11.4710  -21.1120 C   0  0  0  0  0  0  0  0  0  0  0  0
  -30.7440   11.5120  -19.7930 C   0  0  0  0  0  0  0  0  0  0  0  0
  -29.5780   12.1950  -19.4780 C   0  0  0  0  0  0  0  0  0  0  0  0
  -31.4730   10.8660  -18.7860 N   0  0  0  0  0  0  0  0  0  0  0  0
  -31.8740    9.9830  -18.9570 H   0  0  0  0  0  0  0  0  0  0  0  0
  -31.6260   11.4520  -17.5820 C   0  0  0  0  0  0  0  0  0  0  0  0
  -31.0680   12.5030  -17.3440 O   0  0  0  0  0  0  0  0  0  0  0  0
  -32.4890   10.8030  -16.5310 C   0  0  0  0  0  0  0  0  0  0  0  0
  -33.5340   11.7430  -16.1050 N   0  0  0  0  0  0  0  0  0  0  0  0
  -34.4240   11.4120  -16.4790 H   0  0  0  0  0  0  0  0  0  0  0  0
  -33.2890   13.0850  -16.6500 C   0  0  0  0  0  0  0  0  0  0  0  0
  -34.2320   13.3380  -17.8270 C   0  0  0  0  0  0  0  0  0  0  0  0
  -33.6440   11.7820  -14.6410 C   0  0  0  0  0  0  0  0  0  0  0  0
  -35.1150   11.6770  -14.2370 C   0  0  0  0  0  0  0  0  0  0  0  0
  -35.6770   12.9880  -14.1380 O   0  0  0  0  0  0  0  0  0  0  0  0
  -35.2400   13.5760  -14.7740 H   0  0  0  0  0  0  0  0  0  0  0  0
  -27.3800   13.6980  -20.0710 S   0  0  0  0  0  0  0  0  0  0  0  0
  -26.9170   14.2930  -21.2750 O   0  0  0  0  0  0  0  0  0  0  0  0
  -26.5820   12.8040  -19.3070 O   0  0  0  0  0  0  0  0  0  0  0  0
  -27.7990   14.9400  -19.0600 N   0  0  0  0  0  0  0  0  0  0  0  0
  -28.6140   14.4560  -16.8050 C   0  0  0  0  0  0  0  0  0  0  0  0
  -27.4140   14.8960  -17.6460 C   0  0  0  0  0  0  0  0  0  0  0  0
  -28.5530   16.0840  -19.5780 C   0  0  0  0  0  0  0  0  0  0  0  0
  -30.0510   15.7820  -19.5050 C   0  0  0  0  0  0  0  0  0  0  0  0
  -32.3300   10.8030  -21.4270 O   0  0  0  0  0  0  0  0  0  0  0  0
  -33.5450   11.5550  -21.4190 C   0  0  0  0  0  0  0  0  0  0  0  0
  -33.2430   13.0090  -21.0550 C   0  0  0  0  0  0  0  0  0  0  0  0
  -34.5060   10.9610  -20.3880 C   0  0  0  0  0  0  0  0  0  0  0  0
  1 20  1  0  0  0  0
  1  6  2  0  0  0  0
  2  1  1  0  0  0  0
  3  2  2  0  0  0  0
  3  4  1  0  0  0  0
  4  5  2  0  0  0  0
  5  6  1  0  0  0  0
  5  7  1  0  0  0  0
  7  9  1  0  0  0  0
  8  7  1  0  0  0  0
  9 10  2  0  0  0  0
  9 11  1  0  0  0  0
 11 12  1  0  0  0  0
 12 16  1  0  0  0  0
 13 12  1  0  0  0  0
 14 12  1  0  0  0  0
 15 14  1  0  0  0  0
 16 17  1  0  0  0  0
 17 18  1  0  0  0  0
 19 18  1  0  0  0  0
 20 22  2  0  0  0  0
 20 23  1  0  0  0  0
 21 20  2  0  0  0  0
 23 25  1  0  0  0  0
 25 24  1  0  0  0  0
 26 27  1  0  0  0  0
 26 23  1  0  0  0  0
 28 29  1  0  0  0  0
 28  4  1  0  0  0  0
 29 30  1  0  0  0  0
 29 31  1  0  0  0  0
M  END
>  <MODEL>
1

>  <REMARK>
 VINA RESULT:      -2.8      0.000      0.000
  Name = ZINC29840205
                            x       y       z     vdW  Elec       q    Type
                         _______ _______ _______ _____ _____    ______ ____

>  <TORSDO>
F 13

>  <vina_score>
-2.8

$$$$
ZINC20119545
 OpenBabel01081722093D

 32 34  0  0  0  0  0  0  0  0999 V2000
  -31.9160   14.1960  -19.2500 C   0  0  0  0  0  0  0  0  0  0  0  0
  -31.2290   13.0920  -20.0100 C   0  0  0  0  0  0  0  0  0  0  0  0
  -30.1020   13.3730  -20.7950 C   0  0  0  0  0  0  0  0  0  0  0  0
  -29.4450   14.6200  -21.0140 C   0  0  0  0  0  0  0  0  0  0  0  0
  -28.3830   14.6600  -21.8030 N   0  0  0  0  0  0  0  0  0  0  0  0
  -27.9080   13.5810  -22.3990 C   0  0  0  0  0  0  0  0  0  0  0  0
  -28.4710   12.3990  -22.2370 N   0  0  0  0  0  0  0  0  0  0  0  0
  -29.5320   12.2660  -21.4680 C   0  0  0  0  0  0  0  0  0  0  0  0
  -30.5740   10.9130  -20.9840 S   0  0  0  0  0  0  0  0  0  0  0  0
  -31.7020   11.8160  -19.9370 C   0  0  0  0  0  0  0  0  0  0  0  0
  -32.8550   11.3110  -19.1820 C   0  0  0  0  0  0  0  0  0  0  0  0
  -32.8290   11.3090  -17.8340 N   0  0  0  0  0  0  0  0  0  0  0  0
  -32.0370   11.6470  -17.3560 H   0  0  0  0  0  0  0  0  0  0  0  0
  -33.8330   10.8930  -19.7720 O   0  0  0  0  0  0  0  0  0  0  0  0
  -33.9800   10.8050  -17.0810 C   0  0  0  0  0  0  0  0  0  0  0  0
  -33.9200   11.3320  -15.6460 C   0  0  0  0  0  0  0  0  0  0  0  0
  -32.6270   10.8560  -14.9810 C   0  0  0  0  0  0  0  0  0  0  0  0
  -35.1220   10.8050  -14.8580 C   0  0  0  0  0  0  0  0  0  0  0  0
  -33.9520   12.8610  -15.6620 C   0  0  0  0  0  0  0  0  0  0  0  0
  -34.8750   13.3300  -14.6770 O   0  0  0  0  0  0  0  0  0  0  0  0
  -34.7710   14.2880  -14.5660 H   0  0  0  0  0  0  0  0  0  0  0  0
  -29.9090   15.7720  -20.4110 N   0  0  0  0  0  0  0  0  0  0  0  0
  -30.8710   15.9810  -20.4260 H   0  0  0  0  0  0  0  0  0  0  0  0
  -28.9720   16.6820  -19.7490 C   0  0  0  0  0  0  0  0  0  0  0  0
  -28.5680   16.1010  -18.3930 C   0  0  0  0  0  0  0  0  0  0  0  0
  -28.3310   14.6580  -18.5300 N   0  0  0  0  0  0  0  0  0  0  0  0
  -28.8170   14.3400  -19.3690 H   0  0  0  0  0  0  0  0  0  0  0  0
  -28.8770   13.9230  -17.3790 C   0  0  0  0  0  0  0  0  0  0  0  0
  -28.6610   12.4220  -17.5920 C   0  0  0  0  0  0  0  0  0  0  0  0
  -27.2660   12.1680  -17.7840 O   0  0  0  0  0  0  0  0  0  0  0  0
  -26.7020   12.8680  -18.8960 C   0  0  0  0  0  0  0  0  0  0  0  0
  -26.8980   14.3730  -18.6980 C   0  0  0  0  0  0  0  0  0  0  0  0
  2 10  2  0  0  0  0
  2  1  1  0  0  0  0
  3  2  1  0  0  0  0
  4  3  1  0  0  0  0
  4 22  1  0  0  0  0
  5  4  2  0  0  0  0
  6  7  2  0  0  0  0
  6  5  1  0  0  0  0
  7  8  1  0  0  0  0
  8  9  1  0  0  0  0
  8  3  2  0  0  0  0
  9 10  1  0  0  0  0
 10 11  1  0  0  0  0
 11 12  1  0  0  0  0
 12 13  1  0  0  0  0
 12 15  1  0  0  0  0
 14 11  2  0  0  0  0
 15 16  1  0  0  0  0
 16 17  1  0  0  0  0
 16 18  1  0  0  0  0
 19 16  1  0  0  0  0
 19 20  1  0  0  0  0
 20 21  1  0  0  0  0
 22 24  1  0  0  0  0
 23 22  1  0  0  0  0
 24 25  1  0  0  0  0
 26 25  1  0  0  0  0
 26 28  1  0  0  0  0
 27 26  1  0  0  0  0
 29 28  1  0  0  0  0
 30 29  1  0  0  0  0
 31 32  1  0  0  0  0
 31 30  1  0  0  0  0
 32 26  1  0  0  0  0
M  END
>  <MODEL>
1

>  <REMARK>
 VINA RESULT:      -2.8      0.000      0.000
  Name = ZINC20119545
                            x       y       z     vdW  Elec       q    Type
                         _______ _______ _______ _____ _____    ______ ____

>  <TORSDO>
F 9

>  <vina_score>
-2.8

$$$$
ZINC06414339
 OpenBabel01081722173D

 34 36  0  0  1  0  0  0  0  0999 V2000
  -26.7020   14.5350  -18.7930 C   0  0  1  0  0  0  0  0  0  0  0  0
  -27.5620   15.0760  -17.7870 O   0  0  0  0  0  0  0  0  0  0  0  0
  -27.2620   15.9670  -17.5490 H   0  0  0  0  0  0  0  0  0  0  0  0
  -26.8690   13.0160  -18.8420 C   0  0  0  0  0  0  0  0  0  0  0  0
  -30.8870   12.6520  -17.5870 N   0  0  0  0  0  0  0  0  0  0  0  0
  -30.2170   11.4530  -18.1100 C   0  0  0  0  0  0  0  0  0  0  0  0
  -29.0020   11.8720  -18.9400 C   0  0  0  0  0  0  0  0  0  0  0  0
  -28.0790   12.6430  -18.0790 N   0  0  0  0  0  0  0  0  0  0  0  0
  -27.8050   12.0640  -17.2850 H   0  0  0  0  0  0  0  0  0  0  0  0
  -28.7560   13.8580  -17.5780 C   0  0  0  0  0  0  0  0  0  0  0  0
  -29.9710   13.4390  -16.7490 C   0  0  0  0  0  0  0  0  0  0  0  0
  -34.3410   11.6390  -15.4880 C   0  0  0  0  0  0  0  0  0  0  0  0
  -34.3040   12.8040  -16.2390 C   0  0  0  0  0  0  0  0  0  0  0  0
  -33.1600   13.1410  -16.9350 C   0  0  0  0  0  0  0  0  0  0  0  0
  -32.0460   12.3120  -16.8810 C   0  0  0  0  0  0  0  0  0  0  0  0
  -32.0840   11.1470  -16.1270 C   0  0  0  0  0  0  0  0  0  0  0  0
  -33.2290   10.8110  -15.4330 C   0  0  0  0  0  0  0  0  0  0  0  0
  -35.3410   11.1200  -13.3920 C   0  0  0  0  0  0  0  0  0  0  0  0
  -35.4690   11.3070  -14.8030 O   0  0  0  0  0  0  0  0  0  0  0  0
  -27.0680   15.1340  -20.1520 C   0  0  0  0  0  0  0  0  0  0  0  0
  -27.5320   14.0980  -21.0200 O   0  0  0  0  0  0  0  0  0  0  0  0
  -28.8690   13.8760  -21.0550 C   0  0  0  0  0  0  0  0  0  0  0  0
  -29.3670   12.7320  -21.6690 C   0  0  0  0  0  0  0  0  0  0  0  0
  -30.7250   12.5020  -21.7020 C   0  0  0  0  0  0  0  0  0  0  0  0
  -31.6020   13.4250  -21.1260 C   0  0  0  0  0  0  0  0  0  0  0  0
  -31.0970   14.5750  -20.5140 C   0  0  0  0  0  0  0  0  0  0  0  0
  -29.7390   14.7960  -20.4810 C   0  0  0  0  0  0  0  0  0  0  0  0
  -33.0580   13.1830  -21.1630 C   0  0  0  0  0  0  0  0  0  0  0  0
  -33.6440   12.4450  -20.1990 N   0  0  0  0  0  0  0  0  0  0  0  0
  -33.1000   12.0670  -19.4700 H   0  0  0  0  0  0  0  0  0  0  0  0
  -33.7290   13.6510  -22.0630 O   0  0  0  0  0  0  0  0  0  0  0  0
  -34.9910   12.2220  -20.2340 N   0  0  0  0  0  0  0  0  0  0  0  0
  -35.2570   11.8900  -21.1620 H   0  0  0  0  0  0  0  0  0  0  0  0
  -35.2370   11.5180  -19.5380 H   0  0  0  0  0  0  0  0  0  0  0  0
  1 20  1  6  0  0  0
  1  2  1  0  0  0  0
  2  3  1  0  0  0  0
  4  1  1  0  0  0  0
  4  8  1  0  0  0  0
  5 15  1  0  0  0  0
  5 11  1  0  0  0  0
  6  5  1  0  0  0  0
  7  6  1  0  0  0  0
  7  8  1  0  0  0  0
  8 10  1  0  0  0  0
  8  9  1  0  0  0  0
 10 11  1  0  0  0  0
 12 17  1  0  0  0  0
 12 19  1  0  0  0  0
 13 12  2  0  0  0  0
 14 15  2  0  0  0  0
 14 13  1  0  0  0  0
 15 16  1  0  0  0  0
 16 17  2  0  0  0  0
 19 18  1  0  0  0  0
 21 20  1  0  0  0  0
 22 21  1  0  0  0  0
 22 27  2  0  0  0  0
 23 22  1  0  0  0  0
 24 23  2  0  0  0  0
 24 25  1  0  0  0  0
 25 26  2  0  0  0  0
 26 27  1  0  0  0  0
 28 25  1  0  0  0  0
 28 29  1  0  0  0  0
 29 30  1  0  0  0  0
 31 28  2  0  0  0  0
 32 29  1  0  0  0  0
 32 34  1  0  0  0  0
 33 32  1  0  0  0  0
M  END
>  <MODEL>
1

>  <REMARK>
 VINA RESULT:      -2.6      0.000      0.000
  Name = ZINC06414339
                            x       y       z     vdW  Elec       q    Type
                         _______ _______ _______ _____ _____    ______ ____

>  <TORSDO>
F 10

>  <vina_score>
-2.6

$$$$
ZINC09600195
 OpenBabel01081722203D

 32 33  0  0  1  0  0  0  0  0999 V2000
  -29.7780   13.3730  -17.3350 C   0  0  0  0  0  0  0  0  0  0  0  0
  -28.9070   12.7110  -18.1220 N   0  0  0  0  0  0  0  0  0  0  0  0
  -29.2000   11.9140  -18.6190 H   0  0  0  0  0  0  0  0  0  0  0  0
  -29.4170   14.3560  -16.7220 O   0  0  0  0  0  0  0  0  0  0  0  0
  -31.4460   11.5800  -17.0840 N   0  0  0  0  0  0  0  0  0  0  0  0
  -30.7050   10.9330  -17.0630 H   0  0  0  0  0  0  0  0  0  0  0  0
  -31.1900   12.8960  -17.2170 C   0  0  0  0  0  0  0  0  0  0  0  0
  -32.1040   13.6930  -17.2420 O   0  0  0  0  0  0  0  0  0  0  0  0
  -32.8300   11.1110  -16.9690 C   0  0  0  0  0  0  0  0  0  0  0  0
  -33.1550   10.8380  -15.4990 C   0  0  0  0  0  0  0  0  0  0  0  0
  -34.5570   11.2320  -15.2390 N   0  0  0  0  0  0  0  0  0  0  0  0
  -35.1620   10.7680  -15.9170 H   0  0  0  0  0  0  0  0  0  0  0  0
  -36.3560   11.3560  -13.5910 C   0  0  0  0  0  0  0  0  0  0  0  0
  -34.9530   10.8180  -13.8780 C   0  0  0  0  0  0  0  0  0  0  0  0
  -34.7050   12.6950  -15.3870 C   0  0  0  0  0  0  0  0  0  0  0  0
  -34.2350   13.3690  -14.0960 C   0  0  0  0  0  0  0  0  0  0  0  0
  -27.5230   13.1790  -18.2370 C   0  0  0  0  0  0  0  0  0  0  0  0
  -27.4710   14.3970  -19.1620 C   0  0  1  0  0  0  0  0  0  0  0  0
  -28.4780   14.2570  -20.2250 N   0  0  0  0  0  0  0  0  0  0  0  0
  -29.3720   15.4310  -20.1040 C   0  0  0  0  0  0  0  0  0  0  0  0
  -28.5030   16.4430  -19.3180 C   0  0  0  0  0  0  0  0  0  0  0  0
  -27.7690   15.5860  -18.4120 O   0  0  0  0  0  0  0  0  0  0  0  0
  -28.5860   13.0340  -21.3380 S   0  0  0  0  0  0  0  0  0  0  0  0
  -27.7850   11.9690  -20.8490 O   0  0  0  0  0  0  0  0  0  0  0  0
  -28.3720   13.6260  -22.6120 O   0  0  0  0  0  0  0  0  0  0  0  0
  -30.2520   12.4620  -21.3220 C   0  0  0  0  0  0  0  0  0  0  0  0
  -31.2360   13.2170  -20.7110 C   0  0  0  0  0  0  0  0  0  0  0  0
  -32.5440   12.7720  -20.7010 C   0  0  0  0  0  0  0  0  0  0  0  0
  -32.8670   11.5620  -21.2940 C   0  0  0  0  0  0  0  0  0  0  0  0
  -34.1450   11.1230  -21.2800 F   0  0  0  0  0  0  0  0  0  0  0  0
  -31.8800   10.8030  -21.9000 C   0  0  0  0  0  0  0  0  0  0  0  0
  -30.5740   11.2540  -21.9120 C   0  0  0  0  0  0  0  0  0  0  0  0
  1  7  1  0  0  0  0
  1  4  2  0  0  0  0
  2  1  1  0  0  0  0
  3  2  1  0  0  0  0
  5  6  1  0  0  0  0
  5  9  1  0  0  0  0
  7  5  1  0  0  0  0
  8  7  2  0  0  0  0
  9 10  1  0  0  0  0
 10 11  1  0  0  0  0
 11 14  1  0  0  0  0
 12 11  1  0  0  0  0
 14 13  1  0  0  0  0
 15 11  1  0  0  0  0
 15 16  1  0  0  0  0
 17  2  1  0  0  0  0
 18 22  1  0  0  0  0
 18 17  1  1  0  0  0
 19 20  1  0  0  0  0
 19 18  1  0  0  0  0
 20 21  1  0  0  0  0
 21 22  1  0  0  0  0
 23 26  1  0  0  0  0
 23 24  2  0  0  0  0
 23 19  1  0  0  0  0
 25 23  2  0  0  0  0
 26 27  2  0  0  0  0
 27 28  1  0  0  0  0
 29 30  1  0  0  0  0
 29 28  2  0  0  0  0
 31 29  1  0  0  0  0
 32 31  2  0  0  0  0
 32 26  1  0  0  0  0
M  END
>  <MODEL>
1

>  <REMARK>
 VINA RESULT:      -2.3      0.000      0.000
  Name = ZINC09600195
                            x       y       z     vdW  Elec       q    Type
                         _______ _______ _______ _____ _____    ______ ____

>  <TORSDO>
F 10

>  <vina_score>
-2.3

$$$$
ZINC29665193
 OpenBabel01081722293D

 35 38  0  0  0  0  0  0  0  0999 V2000
  -31.6710   10.8030  -21.7390 S   0  0  0  0  0  0  0  0  0  0  0  0
  -32.3620   11.3940  -17.9360 C   0  0  0  0  0  0  0  0  0  0  0  0
  -31.0950   11.0430  -17.9500 N   0  0  0  0  0  0  0  0  0  0  0  0
  -30.7190   10.8070  -19.1560 N   0  0  0  0  0  0  0  0  0  0  0  0
  -31.7170   11.0000  -19.9880 C   0  0  0  0  0  0  0  0  0  0  0  0
  -32.7990   11.3770  -19.2430 N   0  0  0  0  0  0  0  0  0  0  0  0
  -34.1850   12.8570  -15.1230 C   0  0  0  0  0  0  0  0  0  0  0  0
  -33.3600   12.9930  -16.2560 C   0  0  0  0  0  0  0  0  0  0  0  0
  -33.1620   11.7390  -16.7510 C   0  0  0  0  0  0  0  0  0  0  0  0
  -33.8210   10.8690  -15.9600 O   0  0  0  0  0  0  0  0  0  0  0  0
  -34.4400   11.5420  -14.9750 C   0  0  0  0  0  0  0  0  0  0  0  0
  -34.1430   11.6960  -19.7320 C   0  0  0  0  0  0  0  0  0  0  0  0
  -34.0630   12.8650  -20.7170 C   0  0  0  0  0  0  0  0  0  0  0  0
  -33.0720   13.8810  -20.2110 C   0  0  0  0  0  0  0  0  0  0  0  0
  -32.1280   14.3720  -21.0400 N   0  0  0  0  0  0  0  0  0  0  0  0
  -31.4810   15.0360  -20.7100 H   0  0  0  0  0  0  0  0  0  0  0  0
  -32.0870   14.0660  -21.9750 H   0  0  0  0  0  0  0  0  0  0  0  0
  -33.1230   14.2580  -19.0600 O   0  0  0  0  0  0  0  0  0  0  0  0
  -29.9010   11.0390  -22.0350 C   0  0  0  0  0  0  0  0  0  0  0  0
  -29.4140   12.2260  -21.2460 C   0  0  0  0  0  0  0  0  0  0  0  0
  -28.7330   12.0380  -20.0980 N   0  0  0  0  0  0  0  0  0  0  0  0
  -28.4870   11.1280  -19.8150 H   0  0  0  0  0  0  0  0  0  0  0  0
  -29.6330   13.3510  -21.6430 O   0  0  0  0  0  0  0  0  0  0  0  0
  -28.3760   13.1390  -19.3070 C   0  0  0  0  0  0  0  0  0  0  0  0
  -29.1480   13.4820  -18.2050 C   0  0  0  0  0  0  0  0  0  0  0  0
  -28.7950   14.5690  -17.4250 C   0  0  0  0  0  0  0  0  0  0  0  0
  -27.6610   15.3150  -17.7430 C   0  0  0  0  0  0  0  0  0  0  0  0
  -27.5340   16.3250  -16.8340 O   0  0  0  0  0  0  0  0  0  0  0  0
  -28.8190   16.4320  -16.1930 C   0  0  0  0  0  0  0  0  0  0  0  0
  -26.8970   14.9720  -18.8470 C   0  0  0  0  0  0  0  0  0  0  0  0
  -29.3720   15.1080  -16.3100 O   0  0  0  0  0  0  0  0  0  0  0  0
  -27.2510   13.8860  -19.6260 C   0  0  0  0  0  0  0  0  0  0  0  0
  -26.4280   13.5200  -20.8000 N   0  0  0  0  0  0  0  0  0  0  0  0
  -25.6350   12.5990  -20.7240 O   0  0  0  0  0  0  0  0  0  0  0  0
  -26.5440   14.1380  -21.8430 O   0  0  0  0  0  0  0  0  0  0  0  0
  1  5  1  0  0  0  0
  2  9  1  0  0  0  0
  3  2  2  0  0  0  0
  4  3  1  0  0  0  0
  5  6  1  0  0  0  0
  5  4  2  0  0  0  0
  6  2  1  0  0  0  0
  7 11  2  0  0  0  0
  8  7  1  0  0  0  0
  9  8  2  0  0  0  0
  9 10  1  0  0  0  0
 10 11  1  0  0  0  0
 12  6  1  0  0  0  0
 13 14  1  0  0  0  0
 13 12  1  0  0  0  0
 14 18  2  0  0  0  0
 15 16  1  0  0  0  0
 15 14  1  0  0  0  0
 17 15  1  0  0  0  0
 19  1  1  0  0  0  0
 19 20  1  0  0  0  0
 20 21  1  0  0  0  0
 21 22  1  0  0  0  0
 21 24  1  0  0  0  0
 23 20  2  0  0  0  0
 24 25  1  0  0  0  0
 25 26  2  0  0  0  0
 26 31  1  0  0  0  0
 27 26  1  0  0  0  0
 27 28  1  0  0  0  0
 28 29  1  0  0  0  0
 30 27  2  0  0  0  0
 31 29  1  0  0  0  0
 32 24  2  0  0  0  0
 32 30  1  0  0  0  0
 33 34  2  0  0  0  0
 33 32  1  0  0  0  0
 35 33  2  0  0  0  0
M  END
>  <MODEL>
1

>  <REMARK>
 VINA RESULT:      -2.3      0.000      0.000
  Name = ZINC29665193
                            x       y       z     vdW  Elec       q    Type
                         _______ _______ _______ _____ _____    ______ ____

>  <TORSDO>
F 9

>  <vina_score>
-2.3

$$$$
ZINC05887406
 OpenBabel01081722123D

 33 33  0  0  1  0  0  0  0  0999 V2000
  -28.4200   13.2490  -19.5430 C   0  0  2  0  0  0  0  0  0  0  0  0
  -29.6850   12.4430  -19.4050 C   0  0  0  0  0  0  0  0  0  0  0  0
  -30.8650   13.0690  -19.2200 N   0  0  0  0  0  0  0  0  0  0  0  0
  -30.9110   14.0520  -19.2470 H   0  0  0  0  0  0  0  0  0  0  0  0
  -29.6430   11.2320  -19.4590 O   0  0  0  0  0  0  0  0  0  0  0  0
  -32.0260   12.3190  -18.9860 C   0  0  0  0  0  0  0  0  0  0  0  0
  -32.6480   11.9180  -20.0630 C   0  0  0  0  0  0  0  0  0  0  0  0
  -33.8770   11.0880  -20.1210 C   0  0  0  0  0  0  0  0  0  0  0  0
  -34.8610   11.3780  -19.0170 C   0  0  0  0  0  0  0  0  0  0  0  0
  -34.4520   10.8040  -17.6850 C   0  0  0  0  0  0  0  0  0  0  0  0
  -33.3890   11.5310  -17.0390 N   0  0  0  0  0  0  0  0  0  0  0  0
  -32.3480   12.1110  -17.5950 C   0  0  0  0  0  0  0  0  0  0  0  0
  -31.5250   12.5430  -16.8110 O   0  0  0  0  0  0  0  0  0  0  0  0
  -33.4790   11.6370  -15.5810 C   0  0  0  0  0  0  0  0  0  0  0  0
  -34.3970   12.8050  -15.2110 C   0  0  0  0  0  0  0  0  0  0  0  0
  -35.0670   12.5140  -13.9830 O   0  0  0  0  0  0  0  0  0  0  0  0
  -35.5470   11.1720  -13.8860 C   0  0  0  0  0  0  0  0  0  0  0  0
  -28.7080   14.7130  -19.2030 C   0  0  0  0  0  0  0  0  0  0  0  0
  -28.9760   15.2460  -16.7770 C   0  0  0  0  0  0  0  0  0  0  0  0
  -27.9690   15.0920  -17.9180 C   0  0  0  0  0  0  0  0  0  0  0  0
  -26.9610   13.9960  -17.5660 C   0  0  0  0  0  0  0  0  0  0  0  0
  -27.9080   13.1510  -20.9820 C   0  0  2  0  0  0  0  0  0  0  0  0
  -28.9700   12.5290  -21.8510 C   0  0  0  0  0  0  0  0  0  0  0  0
  -30.2110   13.0560  -21.8790 N   0  0  0  0  0  0  0  0  0  0  0  0
  -30.4030   13.8890  -21.3900 H   0  0  0  0  0  0  0  0  0  0  0  0
  -28.7100   11.5550  -22.5240 O   0  0  0  0  0  0  0  0  0  0  0  0
  -31.2380   12.4120  -22.6120 O   0  0  0  0  0  0  0  0  0  0  0  0
  -31.4430   12.9310  -23.4050 H   0  0  0  0  0  0  0  0  0  0  0  0
  -26.6490   12.2820  -21.0160 C   0  0  0  0  0  0  0  0  0  0  0  0
  -25.4860   13.0440  -20.3770 C   0  0  0  0  0  0  0  0  0  0  0  0
  -25.2750   14.3680  -21.1150 C   0  0  0  0  0  0  0  0  0  0  0  0
  -25.8610   15.4310  -20.3610 O   0  0  0  0  0  0  0  0  0  0  0  0
  -26.6370   15.0990  -19.8830 H   0  0  0  0  0  0  0  0  0  0  0  0
  1  2  1  6  0  0  0
  1 18  1  0  0  0  0
  2  3  1  0  0  0  0
  3  6  1  0  0  0  0
  4  3  1  0  0  0  0
  5  2  2  0  0  0  0
  6 12  1  0  0  0  0
  7  6  2  0  0  0  0
  8  7  1  0  0  0  0
  8  9  1  0  0  0  0
  9 10  1  0  0  0  0
 10 11  1  0  0  0  0
 11 14  1  0  0  0  0
 12 11  1  0  0  0  0
 12 13  2  0  0  0  0
 14 15  1  0  0  0  0
 15 16  1  0  0  0  0
 16 17  1  0  0  0  0
 18 20  1  0  0  0  0
 20 21  1  0  0  0  0
 20 19  1  0  0  0  0
 22 23  1  6  0  0  0
 22  1  1  0  0  0  0
 24 23  1  0  0  0  0
 24 25  1  0  0  0  0
 26 23  2  0  0  0  0
 27 24  1  0  0  0  0
 28 27  1  0  0  0  0
 29 22  1  0  0  0  0
 29 30  1  0  0  0  0
 31 30  1  0  0  0  0
 31 32  1  0  0  0  0
 32 33  1  0  0  0  0
M  END
>  <MODEL>
1

>  <REMARK>
 VINA RESULT:      -2.2      0.000      0.000
  Name = ZINC05887406
                            x       y       z     vdW  Elec       q    Type
                         _______ _______ _______ _____ _____    ______ ____

>  <TORSDO>
F 14

>  <vina_score>
-2.2

$$$$
ZINC09951579
 OpenBabel01081722143D

 36 38  0  0  1  0  0  0  0  0999 V2000
  -30.6840   14.1850  -20.4260 C   0  0  0  0  0  0  0  0  0  0  0  0
  -31.8130   13.3890  -20.4880 C   0  0  0  0  0  0  0  0  0  0  0  0
  -31.9150   12.2730  -21.4450 C   0  0  0  0  0  0  0  0  0  0  0  0
  -33.0470   11.5390  -21.4490 N   0  0  0  0  0  0  0  0  0  0  0  0
  -33.1320   10.7890  -22.0820 H   0  0  0  0  0  0  0  0  0  0  0  0
  -34.0570   11.8040  -20.6090 C   0  0  0  0  0  0  0  0  0  0  0  0
  -34.0350   12.8050  -19.7180 N   0  0  0  0  0  0  0  0  0  0  0  0
  -34.8160   12.9480  -19.1370 H   0  0  0  0  0  0  0  0  0  0  0  0
  -35.4540   10.8170  -20.6850 S   0  0  0  0  0  0  0  0  0  0  0  0
  -31.0050   12.0220  -22.2110 O   0  0  0  0  0  0  0  0  0  0  0  0
  -32.9660   13.6190  -19.5980 C   0  0  0  0  0  0  0  0  0  0  0  0
  -32.9560   14.5210  -18.7820 O   0  0  0  0  0  0  0  0  0  0  0  0
  -30.5310   15.1890  -19.3120 C   0  0  1  0  0  0  0  0  0  0  0  0
  -29.5280   14.7610  -18.4340 F   0  0  0  0  0  0  0  0  0  0  0  0
  -30.1540   16.5270  -19.8910 C   0  0  0  0  0  0  0  0  0  0  0  0
  -29.0790   17.0160  -19.6340 O   0  0  0  0  0  0  0  0  0  0  0  0
  -32.4120   17.1710  -20.3040 C   0  0  0  0  0  0  0  0  0  0  0  0
  -31.0120   17.1770  -20.6930 O   0  0  0  0  0  0  0  0  0  0  0  0
  -29.7210   14.0630  -21.3630 N   0  0  0  0  0  0  0  0  0  0  0  0
  -29.9550   14.0990  -22.3180 H   0  0  0  0  0  0  0  0  0  0  0  0
  -28.3950   13.8870  -20.9790 C   0  0  0  0  0  0  0  0  0  0  0  0
  -27.4290   14.8090  -21.3620 C   0  0  0  0  0  0  0  0  0  0  0  0
  -26.1160   14.6350  -20.9760 C   0  0  0  0  0  0  0  0  0  0  0  0
  -25.7470   13.5380  -20.2150 C   0  0  0  0  0  0  0  0  0  0  0  0
  -26.6910   12.6100  -19.8300 C   0  0  0  0  0  0  0  0  0  0  0  0
  -28.0250   12.7740  -20.2090 C   0  0  0  0  0  0  0  0  0  0  0  0
  -29.0400   11.7840  -19.8010 C   0  0  0  0  0  0  0  0  0  0  0  0
  -29.5150   11.7870  -18.5390 N   0  0  0  0  0  0  0  0  0  0  0  0
  -29.1840   12.4490  -17.8900 H   0  0  0  0  0  0  0  0  0  0  0  0
  -29.4480   10.9660  -20.6020 O   0  0  0  0  0  0  0  0  0  0  0  0
  -30.5230   10.8030  -18.1330 C   0  0  0  0  0  0  0  0  0  0  0  0
  -31.6240   11.4970  -17.3740 C   0  0  0  0  0  0  0  0  0  0  0  0
  -31.4670   12.5360  -16.5340 C   0  0  0  0  0  0  0  0  0  0  0  0
  -32.7530   12.8670  -16.0480 C   0  0  0  0  0  0  0  0  0  0  0  0
  -33.6180   12.0120  -16.6210 C   0  0  0  0  0  0  0  0  0  0  0  0
  -32.9290   11.1870  -17.4270 O   0  0  0  0  0  0  0  0  0  0  0  0
  2  1  1  0  0  0  0
  2 11  1  0  0  0  0
  3  2  1  0  0  0  0
  4  3  1  0  0  0  0
  4  6  1  0  0  0  0
  5  4  1  0  0  0  0
  6  7  1  0  0  0  0
  7 11  1  0  0  0  0
  7  8  1  0  0  0  0
  9  6  2  0  0  0  0
 10  3  2  0  0  0  0
 11 12  2  0  0  0  0
 13  1  1  6  0  0  0
 13 14  1  0  0  0  0
 15 16  2  0  0  0  0
 15 13  1  0  0  0  0
 18 17  1  0  0  0  0
 18 15  1  0  0  0  0
 19 21  1  0  0  0  0
 19  1  2  0  0  0  0
 20 19  1  0  0  0  0
 21 26  1  0  0  0  0
 22 21  2  0  0  0  0
 22 23  1  0  0  0  0
 23 24  2  0  0  0  0
 24 25  1  0  0  0  0
 26 25  2  0  0  0  0
 26 27  1  0  0  0  0
 27 28  1  0  0  0  0
 28 31  1  0  0  0  0
 28 29  1  0  0  0  0
 30 27  2  0  0  0  0
 31 32  1  0  0  0  0
 32 33  2  0  0  0  0
 33 34  1  0  0  0  0
 35 34  2  0  0  0  0
 36 32  1  0  0  0  0
 36 35  1  0  0  0  0
M  END
>  <MODEL>
1

>  <REMARK>
 VINA RESULT:      -2.0      0.000      0.000
  Name = ZINC09951579
                            x       y       z     vdW  Elec       q    Type
                         _______ _______ _______ _____ _____    ______ ____

>  <TORSDO>
F 8

>  <vina_score>
-2.0

$$$$
ZINC04794950
 OpenBabel01081722083D

 24 24  0  0  0  0  0  0  0  0999 V2000
  -30.4650   15.1960  -19.6180 P   0  0  0  0  0  0  0  0  0  0  0  0
  -31.7220   14.2140  -19.7830 N   0  0  0  0  0  0  0  0  0  0  0  0
  -31.4860   12.6360  -19.6450 P   0  0  0  0  0  0  0  0  0  0  0  0
  -30.2330   12.2300  -20.5570 N   0  0  0  0  0  0  0  0  0  0  0  0
  -28.8870   13.0900  -20.4390 P   0  0  0  0  0  0  0  0  0  0  0  0
  -29.2700   14.6450  -20.5310 N   0  0  0  0  0  0  0  0  0  0  0  0
  -32.3370   16.8490  -20.3440 C   0  0  0  0  0  0  0  0  0  0  0  0
  -30.8890   16.7480  -20.1140 N   0  0  0  0  0  0  0  0  0  0  0  0
  -30.6200   17.4130  -19.3890 H   0  0  0  0  0  0  0  0  0  0  0  0
  -29.9790   15.2290  -18.0070 N   0  0  0  0  0  0  0  0  0  0  0  0
  -29.9640   14.2770  -17.6430 H   0  0  0  0  0  0  0  0  0  0  0  0
  -28.6390   15.8150  -17.8740 C   0  0  0  0  0  0  0  0  0  0  0  0
  -32.8580   11.8110  -20.1660 N   0  0  0  0  0  0  0  0  0  0  0  0
  -32.5120   10.8030  -21.1780 C   0  0  0  0  0  0  0  0  0  0  0  0
  -33.8710   12.7440  -20.6780 C   0  0  0  0  0  0  0  0  0  0  0  0
  -31.1680   12.2490  -18.0380 N   0  0  0  0  0  0  0  0  0  0  0  0
  -31.2960   10.8030  -17.8100 C   0  0  0  0  0  0  0  0  0  0  0  0
  -32.0430   13.0040  -17.1310 C   0  0  0  0  0  0  0  0  0  0  0  0
  -28.1420   12.7780  -18.9630 N   0  0  0  0  0  0  0  0  0  0  0  0
  -26.6890   12.9770  -19.0530 C   0  0  0  0  0  0  0  0  0  0  0  0
  -28.4590   11.4240  -18.4900 C   0  0  0  0  0  0  0  0  0  0  0  0
  -27.8450   12.6890  -21.6980 N   0  0  0  0  0  0  0  0  0  0  0  0
  -27.4920   13.8750  -22.4890 C   0  0  0  0  0  0  0  0  0  0  0  0
  -28.4260   11.6420  -22.5490 C   0  0  0  0  0  0  0  0  0  0  0  0
  1 10  1  0  0  0  0
  2  3  1  0  0  0  0
  2  1  1  0  0  0  0
  3 16  1  0  0  0  0
  4  5  1  0  0  0  0
  4  3  1  0  0  0  0
  5 19  1  0  0  0  0
  6  5  1  0  0  0  0
  6  1  1  0  0  0  0
  7  8  1  0  0  0  0
  8  1  1  0  0  0  0
  8  9  1  0  0  0  0
 10 12  1  0  0  0  0
 10 11  1  0  0  0  0
 13  3  1  0  0  0  0
 14 13  1  0  0  0  0
 15 13  1  0  0  0  0
 16 17  1  0  0  0  0
 16 18  1  0  0  0  0
 19 21  1  0  0  0  0
 20 19  1  0  0  0  0
 22  5  1  0  0  0  0
 23 22  1  0  0  0  0
 24 22  1  0  0  0  0
M  END
>  <MODEL>
1

>  <REMARK>
 VINA RESULT:      -2.0      0.000      0.000
  Name = ZINC04794950
                            x       y       z     vdW  Elec       q    Type
                         _______ _______ _______ _____ _____    ______ ____

>  <TORSDO>
F 6

>  <vina_score>
-2.0

$$$$
ZINC14964419
 OpenBabel01081722193D

 32 34  0  0  0  0  0  0  0  0999 V2000
  -28.5970   13.8980  -17.1610 S   0  0  0  0  0  0  0  0  0  0  0  0
  -27.7410   13.8540  -16.0280 O   0  0  0  0  0  0  0  0  0  0  0  0
  -29.5850   14.9050  -17.3300 O   0  0  0  0  0  0  0  0  0  0  0  0
  -27.6250   15.0630  -19.4370 C   0  0  0  0  0  0  0  0  0  0  0  0
  -26.8010   15.1190  -20.5540 C   0  0  0  0  0  0  0  0  0  0  0  0
  -25.9150   14.0900  -20.8080 C   0  0  0  0  0  0  0  0  0  0  0  0
  -25.8480   13.0060  -19.9520 C   0  0  0  0  0  0  0  0  0  0  0  0
  -26.6620   12.9510  -18.8370 C   0  0  0  0  0  0  0  0  0  0  0  0
  -27.5550   13.9730  -18.5790 C   0  0  0  0  0  0  0  0  0  0  0  0
  -28.5230   16.1020  -19.1770 N   0  0  0  0  0  0  0  0  0  0  0  0
  -28.4450   16.6230  -18.3450 H   0  0  0  0  0  0  0  0  0  0  0  0
  -29.5790   16.4160  -20.1430 C   0  0  0  0  0  0  0  0  0  0  0  0
  -30.4820   15.1950  -20.3270 C   0  0  0  0  0  0  0  0  0  0  0  0
  -32.0120   17.0710  -20.3410 C   0  0  0  0  0  0  0  0  0  0  0  0
  -31.8870   15.6130  -20.1400 N   0  0  0  0  0  0  0  0  0  0  0  0
  -32.1770   15.3830  -19.1890 H   0  0  0  0  0  0  0  0  0  0  0  0
  -32.7580   14.8940  -21.0940 C   0  0  0  0  0  0  0  0  0  0  0  0
  -29.3900   12.4450  -17.2120 N   0  0  0  0  0  0  0  0  0  0  0  0
  -29.2790   11.7980  -16.4780 H   0  0  0  0  0  0  0  0  0  0  0  0
  -30.2080   12.1380  -18.2900 C   0  0  0  0  0  0  0  0  0  0  0  0
  -29.6550   11.8310  -19.5270 C   0  0  0  0  0  0  0  0  0  0  0  0
  -30.4750   11.5310  -20.5900 C   0  0  0  0  0  0  0  0  0  0  0  0
  -31.8620   11.5270  -20.4490 C   0  0  0  0  0  0  0  0  0  0  0  0
  -32.4270   11.8220  -19.2340 C   0  0  0  0  0  0  0  0  0  0  0  0
  -33.9160   11.8220  -19.0080 C   0  0  0  0  0  0  0  0  0  0  0  0
  -34.6620   11.8940  -20.3380 C   0  0  0  0  0  0  0  0  0  0  0  0
  -34.1070   10.8040  -21.2630 C   0  0  0  0  0  0  0  0  0  0  0  0
  -32.6860   11.1920  -21.6660 C   0  0  0  0  0  0  0  0  0  0  0  0
  -31.6020   12.1340  -18.1420 C   0  0  0  0  0  0  0  0  0  0  0  0
  -32.2030   12.4590  -16.8360 C   0  0  0  0  0  0  0  0  0  0  0  0
  -32.4750   13.7420  -16.5210 O   0  0  0  0  0  0  0  0  0  0  0  0
  -32.4520   11.5730  -16.0440 O   0  0  0  0  0  0  0  0  0  0  0  0
  1  2  2  0  0  0  0
  3  1  2  0  0  0  0
  4 10  1  0  0  0  0
  4  9  2  0  0  0  0
  5  4  1  0  0  0  0
  6  5  2  0  0  0  0
  6  7  1  0  0  0  0
  7  8  2  0  0  0  0
  8  9  1  0  0  0  0
  9  1  1  0  0  0  0
 10 11  1  0  0  0  0
 12 10  1  0  0  0  0
 13 12  1  0  0  0  0
 13 15  1  0  0  0  0
 14 15  1  0  0  0  0
 15 16  1  0  0  0  0
 17 15  1  0  0  0  0
 18  1  1  0  0  0  0
 18 19  1  0  0  0  0
 20 29  1  0  0  0  0
 20 18  1  0  0  0  0
 21 20  2  0  0  0  0
 22 23  2  0  0  0  0
 22 21  1  0  0  0  0
 23 24  1  0  0  0  0
 24 25  1  0  0  0  0
 24 29  2  0  0  0  0
 26 25  1  0  0  0  0
 27 26  1  0  0  0  0
 28 27  1  0  0  0  0
 28 23  1  0  0  0  0
 29 30  1  0  0  0  0
 30 31  2  0  0  0  0
 30 32  1  0  0  0  0
M  END
>  <MODEL>
1

>  <REMARK>
 VINA RESULT:      -1.9      0.000      0.000
  Name = ZINC14964419
                            x       y       z     vdW  Elec       q    Type
                         _______ _______ _______ _____ _____    ______ ____

>  <TORSDO>
F 8

>  <vina_score>
-1.9

$$$$
ZINC29462525
 OpenBabel01081722283D

 25 25  0  0  1  0  0  0  0  0999 V2000
  -32.7210   13.9950  -20.1250 C   0  0  1  0  0  0  0  0  0  0  0  0
  -33.1680   13.8660  -21.5820 C   0  0  0  0  0  0  0  0  0  0  0  0
  -33.2910   12.8550  -19.3220 C   0  0  0  0  0  0  0  0  0  0  0  0
  -33.2580   12.8960  -17.9760 N   0  0  0  0  0  0  0  0  0  0  0  0
  -32.8620   13.6710  -17.5150 H   0  0  0  0  0  0  0  0  0  0  0  0
  -33.7690   11.8750  -17.2580 C   0  0  0  0  0  0  0  0  0  0  0  0
  -33.7320   11.9130  -15.9120 N   0  0  0  0  0  0  0  0  0  0  0  0
  -33.3320   12.6870  -15.4520 H   0  0  0  0  0  0  0  0  0  0  0  0
  -34.2630   10.9210  -17.8250 O   0  0  0  0  0  0  0  0  0  0  0  0
  -33.7790   11.9000  -19.8880 O   0  0  0  0  0  0  0  0  0  0  0  0
  -34.2860   10.8040  -15.1320 C   0  0  0  0  0  0  0  0  0  0  0  0
  -34.6510   11.2980  -13.7310 C   0  0  0  0  0  0  0  0  0  0  0  0
  -35.6200   12.3440  -13.8300 O   0  0  0  0  0  0  0  0  0  0  0  0
  -35.0580   13.6390  -14.0490 C   0  0  0  0  0  0  0  0  0  0  0  0
  -28.5280   13.8860  -19.9340 C   0  0  1  0  0  0  0  0  0  0  0  0
  -29.2670   12.7140  -19.9800 C   0  0  0  0  0  0  0  0  0  0  0  0
  -30.6460   12.7890  -20.0410 C   0  0  0  0  0  0  0  0  0  0  0  0
  -31.2570   13.9570  -20.0570 N   0  0  0  0  0  0  0  0  0  0  0  0
  -30.5870   15.0920  -20.0200 C   0  0  0  0  0  0  0  0  0  0  0  0
  -29.2060   15.0950  -19.9520 C   0  0  0  0  0  0  0  0  0  0  0  0
  -27.0230   13.8470  -19.8660 C   0  0  0  0  0  0  0  0  0  0  0  0
  -27.4520   14.5230  -22.2320 C   0  0  0  0  0  0  0  0  0  0  0  0
  -26.4380   14.5590  -21.0880 C   0  0  0  0  0  0  0  0  0  0  0  0
  -26.5520   14.5510  -18.5910 C   0  0  0  0  0  0  0  0  0  0  0  0
  -27.2500   13.9320  -17.3790 C   0  0  0  0  0  0  0  0  0  0  0  0
  1  2  1  6  0  0  0
  1 18  1  0  0  0  0
  1  3  1  0  0  0  0
  3  4  1  0  0  0  0
  4  5  1  0  0  0  0
  4  6  1  0  0  0  0
  6  7  1  0  0  0  0
  7  8  1  0  0  0  0
  7 11  1  0  0  0  0
  9  6  2  0  0  0  0
 10  3  2  0  0  0  0
 11 12  1  0  0  0  0
 13 12  1  0  0  0  0
 14 13  1  0  0  0  0
 15 21  1  1  0  0  0
 16 15  1  0  0  0  0
 17 16  2  0  0  0  0
 18 17  1  0  0  0  0
 18 19  1  0  0  0  0
 19 20  2  0  0  0  0
 20 15  1  0  0  0  0
 21 24  1  0  0  0  0
 22 23  1  0  0  0  0
 23 21  1  0  0  0  0
 24 25  1  0  0  0  0
M  END
>  <MODEL>
1

>  <REMARK>
 VINA RESULT:      -1.9      0.000      0.000
  Name = ZINC29462525
                            x       y       z     vdW  Elec       q    Type
                         _______ _______ _______ _____ _____    ______ ____

>  <TORSDO>
F 8

>  <vina_score>
-1.9

$$$$
ZINC09216860
 OpenBabel01081722133D

 34 36  0  0  0  0  0  0  0  0999 V2000
  -31.6310   13.4170  -20.7870 C   0  0  0  0  0  0  0  0  0  0  0  0
  -32.6480   12.5570  -20.9920 N   0  0  0  0  0  0  0  0  0  0  0  0
  -32.4660   11.6550  -21.3460 H   0  0  0  0  0  0  0  0  0  0  0  0
  -31.8550   14.5300  -20.3510 O   0  0  0  0  0  0  0  0  0  0  0  0
  -29.1700   13.7080  -20.5360 C   0  0  0  0  0  0  0  0  0  0  0  0
  -30.2440   13.0080  -21.0900 C   0  0  0  0  0  0  0  0  0  0  0  0
  -30.0010   11.9140  -21.9250 C   0  0  0  0  0  0  0  0  0  0  0  0
  -31.3300   11.0330  -22.6120 Cl  0  0  0  0  0  0  0  0  0  0  0  0
  -28.7020   11.5410  -22.2080 C   0  0  0  0  0  0  0  0  0  0  0  0
  -27.6430   12.2410  -21.6550 C   0  0  0  0  0  0  0  0  0  0  0  0
  -26.0130   11.7610  -22.0100 Cl  0  0  0  0  0  0  0  0  0  0  0  0
  -27.8780   13.3220  -20.8210 C   0  0  0  0  0  0  0  0  0  0  0  0
  -26.5220   14.2050  -20.1250 S   0  0  0  0  0  0  0  0  0  0  0  0
  -25.9250   14.9360  -21.1880 O   0  0  0  0  0  0  0  0  0  0  0  0
  -25.7920   13.2730  -19.3380 O   0  0  0  0  0  0  0  0  0  0  0  0
  -27.1500   15.3210  -19.0770 N   0  0  0  0  0  0  0  0  0  0  0  0
  -28.0490   15.6130  -19.4600 H   0  0  0  0  0  0  0  0  0  0  0  0
  -27.3860   14.9600  -17.6770 C   0  0  0  0  0  0  0  0  0  0  0  0
  -28.3490   13.8040  -17.3970 C   0  0  0  0  0  0  0  0  0  0  0  0
  -28.7740   15.2430  -17.0980 C   0  0  0  0  0  0  0  0  0  0  0  0
  -34.0220   12.9620  -20.6910 C   0  0  0  0  0  0  0  0  0  0  0  0
  -34.8940   11.7170  -20.5120 C   0  0  0  0  0  0  0  0  0  0  0  0
  -34.8760   11.2890  -19.0430 C   0  0  0  0  0  0  0  0  0  0  0  0
  -33.4650   11.3510  -18.5190 C   0  0  0  0  0  0  0  0  0  0  0  0
  -33.0450   12.0140  -17.3420 C   0  0  0  0  0  0  0  0  0  0  0  0
  -31.6700   11.8200  -17.2340 C   0  0  0  0  0  0  0  0  0  0  0  0
  -31.2890   11.0780  -18.2940 N   0  0  0  0  0  0  0  0  0  0  0  0
  -30.3710   10.7810  -18.4890 H   0  0  0  0  0  0  0  0  0  0  0  0
  -32.4200   10.8030  -19.0720 N   0  0  0  0  0  0  0  0  0  0  0  0
  -30.8510   12.2980  -16.2300 N   0  0  0  0  0  0  0  0  0  0  0  0
  -30.4550   13.1970  -16.3030 H   0  0  0  0  0  0  0  0  0  0  0  0
  -30.6620   11.7400  -15.4410 H   0  0  0  0  0  0  0  0  0  0  0  0
  -33.8760   12.7450  -16.4340 C   0  0  0  0  0  0  0  0  0  0  0  0
  -34.5350   13.3250  -15.7130 N   0  0  0  0  0  0  0  0  0  0  0  0
  1  4  2  0  0  0  0
  2  1  1  0  0  0  0
  2 21  1  0  0  0  0
  3  2  1  0  0  0  0
  6  1  1  0  0  0  0
  6  5  2  0  0  0  0
  7  6  1  0  0  0  0
  8  7  1  0  0  0  0
  9  7  2  0  0  0  0
  9 10  1  0  0  0  0
 10 12  2  0  0  0  0
 11 10  1  0  0  0  0
 12  5  1  0  0  0  0
 12 13  1  0  0  0  0
 13 15  2  0  0  0  0
 13 16  1  0  0  0  0
 14 13  2  0  0  0  0
 16 18  1  0  0  0  0
 17 16  1  0  0  0  0
 18 19  1  0  0  0  0
 18 20  1  0  0  0  0
 19 20  1  0  0  0  0
 21 22  1  0  0  0  0
 22 23  1  0  0  0  0
 23 24  1  0  0  0  0
 24 25  1  0  0  0  0
 25 26  2  0  0  0  0
 25 33  1  0  0  0  0
 26 30  1  0  0  0  0
 27 26  1  0  0  0  0
 28 27  1  0  0  0  0
 29 24  2  0  0  0  0
 29 27  1  0  0  0  0
 30 32  1  0  0  0  0
 31 30  1  0  0  0  0
 33 34  3  0  0  0  0
M  END
>  <MODEL>
1

>  <REMARK>
 VINA RESULT:      -1.8      0.000      0.000
  Name = ZINC09216860
                            x       y       z     vdW  Elec       q    Type
                         _______ _______ _______ _____ _____    ______ ____

>  <TORSDO>
F 10

>  <vina_score>
-1.8

$$$$
ZINC08713733
 OpenBabel01081722033D

 25 26  0  0  1  0  0  0  0  0999 V2000
  -31.1510   12.4370  -20.8100 N   0  0  0  0  0  0  0  0  0  0  0  0
  -30.1410   13.1540  -20.2760 C   0  0  0  0  0  0  0  0  0  0  0  0
  -29.2040   13.3090  -21.2590 C   0  0  0  0  0  0  0  0  0  0  0  0
  -29.6410   12.6850  -22.3660 N   0  0  0  0  0  0  0  0  0  0  0  0
  -30.7930   12.1570  -22.1360 N   0  0  0  0  0  0  0  0  0  0  0  0
  -32.3470   11.9060  -18.8210 C   0  0  0  0  0  0  0  0  0  0  0  0
  -32.3290   12.0430  -20.1620 N   0  0  0  0  0  0  0  0  0  0  0  0
  -33.1430   11.8660  -20.6860 H   0  0  0  0  0  0  0  0  0  0  0  0
  -31.3410   12.1250  -18.1740 O   0  0  0  0  0  0  0  0  0  0  0  0
  -33.5790   11.4940  -18.1440 C   0  0  2  0  0  0  0  0  0  0  0  0
  -34.5690   11.1310  -18.8140 N   0  0  0  0  0  0  0  0  0  0  0  0
  -35.4590   10.8040  -19.4170 N   0  0  0  0  0  0  0  0  0  0  0  0
  -34.6110   12.3190  -14.5950 C   0  0  0  0  0  0  0  0  0  0  0  0
  -34.5410   12.3050  -16.0580 N   0  0  0  0  0  0  0  0  0  0  0  0
  -35.1430   12.8760  -16.5860 H   0  0  0  0  0  0  0  0  0  0  0  0
  -33.6490   11.5090  -16.6820 C   0  0  0  0  0  0  0  0  0  0  0  0
  -32.9030   10.8030  -16.0290 O   0  0  0  0  0  0  0  0  0  0  0  0
  -27.9260   14.0320  -21.1240 C   0  0  0  0  0  0  0  0  0  0  0  0
  -27.1120   14.5970  -22.5190 S   0  0  0  0  0  0  0  0  0  0  0  0
  -27.4000   14.2460  -19.9020 N   0  0  0  0  0  0  0  0  0  0  0  0
  -27.6070   15.5230  -19.2000 C   0  0  0  0  0  0  0  0  0  0  0  0
  -28.1010   15.2200  -17.7810 C   0  0  0  0  0  0  0  0  0  0  0  0
  -27.2080   14.2930  -17.1600 O   0  0  0  0  0  0  0  0  0  0  0  0
  -27.1390   13.0210  -17.8110 C   0  0  0  0  0  0  0  0  0  0  0  0
  -26.5960   13.2120  -19.2330 C   0  0  0  0  0  0  0  0  0  0  0  0
  1  2  1  0  0  0  0
  1  7  1  0  0  0  0
  3 18  1  0  0  0  0
  3  2  2  0  0  0  0
  4  5  2  0  0  0  0
  4  3  1  0  0  0  0
  5  1  1  0  0  0  0
  6  9  2  0  0  0  0
  7  6  1  0  0  0  0
  8  7  1  0  0  0  0
 10  6  1  6  0  0  0
 10 16  1  0  0  0  0
 11 10  1  0  0  0  0
 12 11  1  0  0  0  0
 14 13  1  0  0  0  0
 15 14  1  0  0  0  0
 16 14  1  0  0  0  0
 16 17  2  0  0  0  0
 18 20  1  0  0  0  0
 19 18  2  0  0  0  0
 20 25  1  0  0  0  0
 20 21  1  0  0  0  0
 21 22  1  0  0  0  0
 22 23  1  0  0  0  0
 24 23  1  0  0  0  0
 25 24  1  0  0  0  0
M  END
>  <MODEL>
1

>  <REMARK>
 VINA RESULT:      -1.7      0.000      0.000
  Name = ZINC08713733
                            x       y       z     vdW  Elec       q    Type
                         _______ _______ _______ _____ _____    ______ ____

>  <TORSDO>
F 5

>  <vina_score>
-1.7

$$$$
ZINC20573659
 OpenBabel01081722053D

 37 40  0  0  0  0  0  0  0  0999 V2000
  -25.9170   13.1420  -19.9890 C   0  0  0  0  0  0  0  0  0  0  0  0
  -26.9100   14.0390  -20.1520 N   0  0  0  0  0  0  0  0  0  0  0  0
  -27.2620   14.5300  -21.4910 C   0  0  0  0  0  0  0  0  0  0  0  0
  -28.7620   14.3150  -21.7170 C   0  0  0  0  0  0  0  0  0  0  0  0
  -29.5450   14.9680  -20.5790 C   0  0  0  0  0  0  0  0  0  0  0  0
  -31.0230   14.7940  -20.8140 C   0  0  0  0  0  0  0  0  0  0  0  0
  -31.9240   15.7870  -20.6380 C   0  0  0  0  0  0  0  0  0  0  0  0
  -31.5520   17.1750  -20.1820 C   0  0  0  0  0  0  0  0  0  0  0  0
  -30.1320   17.1160  -19.6010 C   0  0  0  0  0  0  0  0  0  0  0  0
  -33.1470   15.2800  -20.9430 N   0  0  0  0  0  0  0  0  0  0  0  0
  -34.0050   15.7610  -20.9130 H   0  0  0  0  0  0  0  0  0  0  0  0
  -32.9600   13.9870  -21.2980 C   0  0  0  0  0  0  0  0  0  0  0  0
  -31.6850   13.7070  -21.2150 N   0  0  0  0  0  0  0  0  0  0  0  0
  -29.1570   14.3250  -19.2470 C   0  0  0  0  0  0  0  0  0  0  0  0
  -29.2450   16.4080  -20.5370 N   0  0  0  0  0  0  0  0  0  0  0  0
  -28.2850   16.5260  -20.2160 H   0  0  0  0  0  0  0  0  0  0  0  0
  -29.3680   16.7990  -21.4700 H   0  0  0  0  0  0  0  0  0  0  0  0
  -27.6620   14.5420  -18.9950 C   0  0  0  0  0  0  0  0  0  0  0  0
  -25.3030   12.7340  -20.9520 O   0  0  0  0  0  0  0  0  0  0  0  0
  -25.5670   12.6470  -18.6080 C   0  0  0  0  0  0  0  0  0  0  0  0
  -26.6790   13.0370  -17.6320 C   0  0  0  0  0  0  0  0  0  0  0  0
  -29.0910   12.7610  -17.4280 C   0  0  0  0  0  0  0  0  0  0  0  0
  -27.9620   12.5270  -18.1240 N   0  0  0  0  0  0  0  0  0  0  0  0
  -27.9970   12.0130  -18.9630 H   0  0  0  0  0  0  0  0  0  0  0  0
  -29.0470   13.3960  -16.3930 O   0  0  0  0  0  0  0  0  0  0  0  0
  -31.7010   11.2790  -19.6890 C   0  0  0  0  0  0  0  0  0  0  0  0
  -30.4890   11.7590  -19.2270 C   0  0  0  0  0  0  0  0  0  0  0  0
  -30.3840   12.2480  -17.9240 C   0  0  0  0  0  0  0  0  0  0  0  0
  -31.5020   12.2450  -17.0870 C   0  0  0  0  0  0  0  0  0  0  0  0
  -32.7130   11.7700  -17.5550 C   0  0  0  0  0  0  0  0  0  0  0  0
  -32.8160   11.2830  -18.8540 C   0  0  0  0  0  0  0  0  0  0  0  0
  -30.6350   10.8760  -21.7770 C   0  0  0  0  0  0  0  0  0  0  0  0
  -31.8050   10.8040  -20.9590 O   0  0  0  0  0  0  0  0  0  0  0  0
  -33.8040   11.7730  -16.7410 O   0  0  0  0  0  0  0  0  0  0  0  0
  -33.9640   12.8970  -15.8740 C   0  0  0  0  0  0  0  0  0  0  0  0
  -34.0050   10.8100  -19.3090 O   0  0  0  0  0  0  0  0  0  0  0  0
  -34.8450   11.7300  -20.0100 C   0  0  0  0  0  0  0  0  0  0  0  0
  1 20  1  0  0  0  0
  2  1  1  0  0  0  0
  2 18  1  0  0  0  0
  3  2  1  0  0  0  0
  4  3  1  0  0  0  0
  4  5  1  0  0  0  0
  5 15  1  0  0  0  0
  5 14  1  0  0  0  0
  6  7  2  0  0  0  0
  6  5  1  0  0  0  0
  7  8  1  0  0  0  0
  8  9  1  0  0  0  0
 10 11  1  0  0  0  0
 10  7  1  0  0  0  0
 12 13  2  0  0  0  0
 12 10  1  0  0  0  0
 13  6  1  0  0  0  0
 14 18  1  0  0  0  0
 15 16  1  0  0  0  0
 15  9  1  0  0  0  0
 17 15  1  0  0  0  0
 19  1  2  0  0  0  0
 20 21  1  0  0  0  0
 22 25  2  0  0  0  0
 23 21  1  0  0  0  0
 23 22  1  0  0  0  0
 24 23  1  0  0  0  0
 26 27  2  0  0  0  0
 26 31  1  0  0  0  0
 27 28  1  0  0  0  0
 28 22  1  0  0  0  0
 28 29  2  0  0  0  0
 30 29  1  0  0  0  0
 30 34  1  0  0  0  0
 31 30  2  0  0  0  0
 32 33  1  0  0  0  0
 33 26  1  0  0  0  0
 34 35  1  0  0  0  0
 36 31  1  0  0  0  0
 37 36  1  0  0  0  0
M  END
>  <MODEL>
1

>  <REMARK>
 VINA RESULT:      -1.5      0.000      0.000
  Name = ZINC20573659
                            x       y       z     vdW  Elec       q    Type
                         _______ _______ _______ _____ _____    ______ ____

>  <TORSDO>
F 7

>  <vina_score>
-1.5

$$$$
ZINC13693206
 OpenBabel01081722253D

 29 31  0  0  1  0  0  0  0  0999 V2000
  -27.3350   13.5450  -19.6240 C   0  0  2  0  0  0  0  0  0  0  0  0
  -27.7590   14.8470  -20.2750 C   0  0  0  0  0  0  0  0  0  0  0  0
  -28.9100   14.5910  -20.8900 N   0  0  0  0  0  0  0  0  0  0  0  0
  -29.2980   13.3430  -20.7330 C   0  0  0  0  0  0  0  0  0  0  0  0
  -27.1640   15.9060  -20.2470 O   0  0  0  0  0  0  0  0  0  0  0  0
  -28.4210   12.6170  -19.9870 N   0  0  0  0  0  0  0  0  0  0  0  0
  -28.4980   11.6670  -19.7400 H   0  0  0  0  0  0  0  0  0  0  0  0
  -30.4450   12.8340  -21.2630 N   0  0  0  0  0  0  0  0  0  0  0  0
  -31.6350   13.6820  -21.4420 C   0  0  0  0  0  0  0  0  0  0  0  0
  -32.8400   12.9750  -20.8130 C   0  0  0  0  0  0  0  0  0  0  0  0
  -32.9540   11.6200  -21.3950 N   0  0  0  0  0  0  0  0  0  0  0  0
  -32.9930   11.7000  -22.4110 H   0  0  0  0  0  0  0  0  0  0  0  0
  -34.1870   10.9660  -20.9130 C   0  0  0  0  0  0  0  0  0  0  0  0
  -31.7750   10.8050  -21.0270 C   0  0  0  0  0  0  0  0  0  0  0  0
  -30.5290   11.4240  -21.6700 C   0  0  0  0  0  0  0  0  0  0  0  0
  -27.2450   13.7020  -18.1050 C   0  0  0  0  0  0  0  0  0  0  0  0
  -29.6810   13.2730  -18.1360 N   0  0  0  0  0  0  0  0  0  0  0  0
  -29.7200   13.7300  -19.0050 H   0  0  0  0  0  0  0  0  0  0  0  0
  -28.5120   13.1880  -17.4700 C   0  0  0  0  0  0  0  0  0  0  0  0
  -28.4790   12.6990  -16.3610 O   0  0  0  0  0  0  0  0  0  0  0  0
  -33.1320   11.5900  -16.5060 C   0  0  0  0  0  0  0  0  0  0  0  0
  -32.8580   12.9360  -16.3110 C   0  0  0  0  0  0  0  0  0  0  0  0
  -31.7160   13.4940  -16.8500 C   0  0  0  0  0  0  0  0  0  0  0  0
  -30.8400   12.7080  -17.5870 C   0  0  0  0  0  0  0  0  0  0  0  0
  -31.1170   11.3610  -17.7870 C   0  0  0  0  0  0  0  0  0  0  0  0
  -32.2580   10.8030  -17.2430 C   0  0  0  0  0  0  0  0  0  0  0  0
  -34.2560   11.0420  -15.9750 O   0  0  0  0  0  0  0  0  0  0  0  0
  -35.4590   12.3100  -14.3050 C   0  0  0  0  0  0  0  0  0  0  0  0
  -34.4480   11.1930  -14.5670 C   0  0  0  0  0  0  0  0  0  0  0  0
  1 16  1  1  0  0  0
  2  5  2  0  0  0  0
  2  1  1  0  0  0  0
  3  4  2  0  0  0  0
  3  2  1  0  0  0  0
  4  6  1  0  0  0  0
  6  7  1  0  0  0  0
  6  1  1  0  0  0  0
  8  4  1  0  0  0  0
  9  8  1  0  0  0  0
  9 10  1  0  0  0  0
 11 14  1  0  0  0  0
 11 13  1  0  0  0  0
 11 10  1  0  0  0  0
 12 11  1  0  0  0  0
 15  8  1  0  0  0  0
 15 14  1  0  0  0  0
 16 19  1  0  0  0  0
 17 24  1  0  0  0  0
 17 19  1  0  0  0  0
 18 17  1  0  0  0  0
 19 20  2  0  0  0  0
 21 22  1  0  0  0  0
 21 27  1  0  0  0  0
 23 22  2  0  0  0  0
 24 23  1  0  0  0  0
 25 24  2  0  0  0  0
 25 26  1  0  0  0  0
 26 21  2  0  0  0  0
 27 29  1  0  0  0  0
 29 28  1  0  0  0  0
M  END
>  <MODEL>
1

>  <REMARK>
 VINA RESULT:      -1.5      0.000      0.000
  Name = ZINC13693206
                            x       y       z     vdW  Elec       q    Type
                         _______ _______ _______ _____ _____    ______ ____

>  <TORSDO>
F 6

>  <vina_score>
-1.5

$$$$
ZINC21195156
 OpenBabel01081722113D

 34 36  0  0  0  0  0  0  0  0999 V2000
  -31.8820   14.6850  -20.4240 C   0  0  0  0  0  0  0  0  0  0  0  0
  -32.5780   14.4190  -21.6100 C   0  0  0  0  0  0  0  0  0  0  0  0
  -32.7190   13.1330  -22.0460 C   0  0  0  0  0  0  0  0  0  0  0  0
  -32.1830   12.0770  -21.3120 C   0  0  0  0  0  0  0  0  0  0  0  0
  -32.3330   10.8030  -21.7540 O   0  0  0  0  0  0  0  0  0  0  0  0
  -31.4950   12.3220  -20.1330 C   0  0  0  0  0  0  0  0  0  0  0  0
  -31.3390   13.6210  -19.6810 C   0  0  0  0  0  0  0  0  0  0  0  0
  -31.7250   16.0650  -19.9560 C   0  0  0  0  0  0  0  0  0  0  0  0
  -32.6950   16.7870  -19.8600 O   0  0  0  0  0  0  0  0  0  0  0  0
  -30.3570   16.5860  -19.5940 C   0  0  0  0  0  0  0  0  0  0  0  0
  -29.4670   16.3900  -20.6950 O   0  0  0  0  0  0  0  0  0  0  0  0
  -26.4630   13.6020  -20.2020 C   0  0  0  0  0  0  0  0  0  0  0  0
  -26.8580   14.3930  -19.1330 C   0  0  0  0  0  0  0  0  0  0  0  0
  -27.8620   15.3260  -19.2980 C   0  0  0  0  0  0  0  0  0  0  0  0
  -28.4780   15.4710  -20.5320 C   0  0  0  0  0  0  0  0  0  0  0  0
  -28.0840   14.6790  -21.6010 C   0  0  0  0  0  0  0  0  0  0  0  0
  -27.0790   13.7470  -21.4360 C   0  0  0  0  0  0  0  0  0  0  0  0
  -25.3660   11.6630  -21.0330 C   0  0  0  0  0  0  0  0  0  0  0  0
  -25.4740   12.6840  -20.0390 O   0  0  0  0  0  0  0  0  0  0  0  0
  -30.6670   13.8660  -18.5280 O   0  0  0  0  0  0  0  0  0  0  0  0
  -30.5140   14.7500  -18.2550 H   0  0  0  0  0  0  0  0  0  0  0  0
  -30.9170   11.1750  -19.3440 C   0  0  0  0  0  0  0  0  0  0  0  0
  -31.8430   10.8060  -18.2650 N   0  0  0  0  0  0  0  0  0  0  0  0
  -31.8660    9.7880  -18.2070 H   0  0  0  0  0  0  0  0  0  0  0  0
  -33.2050   11.2740  -18.5570 C   0  0  0  0  0  0  0  0  0  0  0  0
  -34.1520   10.8040  -17.4500 C   0  0  0  0  0  0  0  0  0  0  0  0
  -33.6850   11.3220  -16.1570 N   0  0  0  0  0  0  0  0  0  0  0  0
  -33.6610   12.3390  -16.2150 H   0  0  0  0  0  0  0  0  0  0  0  0
  -32.3230   10.8530  -15.8650 C   0  0  0  0  0  0  0  0  0  0  0  0
  -31.3760   11.3240  -16.9720 C   0  0  0  0  0  0  0  0  0  0  0  0
  -34.6110   10.9540  -15.0770 C   0  0  0  0  0  0  0  0  0  0  0  0
  -34.9580   12.1970  -14.2560 C   0  0  0  0  0  0  0  0  0  0  0  0
  -34.5820   13.3680  -14.9850 O   0  0  0  0  0  0  0  0  0  0  0  0
  -34.8410   14.1580  -14.4830 H   0  0  0  0  0  0  0  0  0  0  0  0
  1  8  1  0  0  0  0
  1  7  2  0  0  0  0
  2  1  1  0  0  0  0
  3  2  2  0  0  0  0
  3  4  1  0  0  0  0
  4  6  2  0  0  0  0
  5  4  1  0  0  0  0
  6  7  1  0  0  0  0
  6 22  1  0  0  0  0
  7 20  1  0  0  0  0
  8  9  2  0  0  0  0
  8 10  1  0  0  0  0
 11 15  1  0  0  0  0
 11 10  1  0  0  0  0
 12 19  1  0  0  0  0
 12 13  2  0  0  0  0
 14 13  1  0  0  0  0
 15 14  2  0  0  0  0
 16 17  2  0  0  0  0
 16 15  1  0  0  0  0
 17 12  1  0  0  0  0
 18 19  1  0  0  0  0
 20 21  1  0  0  0  0
 22 23  1  0  0  0  0
 23 24  1  0  0  0  0
 23 30  1  0  0  0  0
 25 23  1  0  0  0  0
 25 26  1  0  0  0  0
 26 27  1  0  0  0  0
 27 29  1  0  0  0  0
 27 31  1  0  0  0  0
 28 27  1  0  0  0  0
 30 29  1  0  0  0  0
 31 32  1  0  0  0  0
 33 34  1  0  0  0  0
 33 32  1  0  0  0  0
M  END
>  <MODEL>
1

>  <REMARK>
 VINA RESULT:      -1.4      0.000      0.000
  Name = ZINC21195156
                            x       y       z     vdW  Elec       q    Type
                         _______ _______ _______ _____ _____    ______ ____

>  <TORSDO>
F 11

>  <vina_score>
-1.4

$$$$
ZINC14953235
 OpenBabel01081722093D

 35 37  0  0  1  0  0  0  0  0999 V2000
  -32.3140   10.8030  -18.7610 C   0  0  2  0  0  0  0  0  0  0  0  0
  -32.1150   13.7590  -21.1090 C   0  0  0  0  0  0  0  0  0  0  0  0
  -32.5180   12.9200  -20.0800 C   0  0  0  0  0  0  0  0  0  0  0  0
  -31.8700   11.7170  -19.8750 C   0  0  0  0  0  0  0  0  0  0  0  0
  -30.8130   11.3520  -20.6860 C   0  0  0  0  0  0  0  0  0  0  0  0
  -30.4060   12.1870  -21.7150 C   0  0  0  0  0  0  0  0  0  0  0  0
  -31.0580   13.3930  -21.9270 C   0  0  0  0  0  0  0  0  0  0  0  0
  -32.7570   14.9400  -21.3140 O   0  0  0  0  0  0  0  0  0  0  0  0
  -30.9490   16.0160  -20.1280 C   0  0  0  0  0  0  0  0  0  0  0  0
  -32.4520   16.0080  -20.4160 C   0  0  0  0  0  0  0  0  0  0  0  0
  -29.3690   11.8260  -22.5170 O   0  0  0  0  0  0  0  0  0  0  0  0
  -28.1330   12.5180  -22.3290 C   0  0  0  0  0  0  0  0  0  0  0  0
  -27.4410   11.9970  -21.0660 C   0  0  0  0  0  0  0  0  0  0  0  0
  -26.1600   12.8000  -20.8280 C   0  0  0  0  0  0  0  0  0  0  0  0
  -26.4800   14.1890  -20.7200 O   0  0  0  0  0  0  0  0  0  0  0  0
  -27.0860   14.7400  -21.8910 C   0  0  0  0  0  0  0  0  0  0  0  0
  -28.4060   14.0170  -22.1700 C   0  0  0  0  0  0  0  0  0  0  0  0
  -33.7920   10.9780  -18.5270 C   0  0  0  0  0  0  0  0  0  0  0  0
  -34.6570   10.8040  -19.5380 O   0  0  0  0  0  0  0  0  0  0  0  0
  -34.1990   11.2730  -17.4270 O   0  0  0  0  0  0  0  0  0  0  0  0
  -31.5820   11.1370  -17.5360 N   0  0  0  0  0  0  0  0  0  0  0  0
  -31.7040   10.5920  -16.7260 H   0  0  0  0  0  0  0  0  0  0  0  0
  -30.7130   12.2250  -17.5190 C   0  0  0  0  0  0  0  0  0  0  0  0
  -29.4110   12.0820  -17.9890 C   0  0  0  0  0  0  0  0  0  0  0  0
  -28.5520   13.1590  -17.9780 C   0  0  0  0  0  0  0  0  0  0  0  0
  -28.9850   14.3910  -17.4860 C   0  0  0  0  0  0  0  0  0  0  0  0
  -30.2910   14.5300  -17.0100 C   0  0  0  0  0  0  0  0  0  0  0  0
  -31.1480   13.4530  -17.0280 C   0  0  0  0  0  0  0  0  0  0  0  0
  -28.0640   15.5460  -17.4680 C   0  0  0  0  0  0  0  0  0  0  0  0
  -27.1060   15.5680  -18.3850 N   0  0  0  0  0  0  0  0  0  0  0  0
  -26.4680   16.3180  -18.4130 H   0  0  0  0  0  0  0  0  0  0  0  0
  -27.0330   14.8350  -19.0370 H   0  0  0  0  0  0  0  0  0  0  0  0
  -28.2220   16.5410  -16.5270 N   0  0  0  0  0  0  0  0  0  0  0  0
  -27.5990   17.3030  -16.5050 H   0  0  0  0  0  0  0  0  0  0  0  0
  -28.9580   16.4890  -15.8760 H   0  0  0  0  0  0  0  0  0  0  0  0
  1  4  1  6  0  0  0
  1 18  1  0  0  0  0
  1 21  1  0  0  0  0
  2  3  2  0  0  0  0
  3  4  1  0  0  0  0
  5  4  2  0  0  0  0
  6  5  1  0  0  0  0
  7  6  2  0  0  0  0
  7  2  1  0  0  0  0
  8  2  1  0  0  0  0
  8 10  1  0  0  0  0
 10  9  1  0  0  0  0
 11 12  1  0  0  0  0
 11  6  1  0  0  0  0
 12 17  1  0  0  0  0
 12 13  1  0  0  0  0
 13 14  1  0  0  0  0
 14 15  1  0  0  0  0
 16 15  1  0  0  0  0
 17 16  1  0  0  0  0
 18 20  1  0  0  0  0
 19 18  2  0  0  0  0
 21 23  1  0  0  0  0
 21 22  1  0  0  0  0
 23 28  2  0  0  0  0
 24 25  2  0  0  0  0
 24 23  1  0  0  0  0
 25 26  1  0  0  0  0
 26 29  1  0  0  0  0
 26 27  2  0  0  0  0
 28 27  1  0  0  0  0
 29 33  1  0  0  0  0
 30 29  2  0  0  0  0
 31 30  1  0  0  0  0
 32 30  1  0  0  0  0
 33 34  1  0  0  0  0
 33 35  1  0  0  0  0
M  END
>  <MODEL>
1

>  <REMARK>
 VINA RESULT:      -1.3      0.000      0.000
  Name = ZINC14953235
                            x       y       z     vdW  Elec       q    Type
                         _______ _______ _______ _____ _____    ______ ____

>  <TORSDO>
F 10

>  <vina_score>
-1.3

$$$$
ZINC29188439
 OpenBabel01081722263D

 34 35  0  0  1  0  0  0  0  0999 V2000
  -32.9320   10.8710  -21.6280 N   0  0  0  0  0  0  0  0  0  0  0  0
  -32.8360   10.1480  -20.9170 H   0  0  0  0  0  0  0  0  0  0  0  0
  -33.7640   10.7090  -22.1950 H   0  0  0  0  0  0  0  0  0  0  0  0
  -33.0530   12.1730  -20.9590 C   0  0  1  0  0  0  0  0  0  0  0  0
  -34.3400   12.8640  -21.4160 C   0  0  0  0  0  0  0  0  0  0  0  0
  -33.1760   11.5870  -16.7250 C   0  0  0  0  0  0  0  0  0  0  0  0
  -33.9610   10.8070  -17.5580 C   0  0  0  0  0  0  0  0  0  0  0  0
  -33.9190   10.9990  -18.9270 C   0  0  0  0  0  0  0  0  0  0  0  0
  -33.0950   11.9690  -19.4670 C   0  0  0  0  0  0  0  0  0  0  0  0
  -32.3050   12.7470  -18.6420 C   0  0  0  0  0  0  0  0  0  0  0  0
  -32.3470   12.5630  -17.2690 C   0  0  0  0  0  0  0  0  0  0  0  0
  -33.2160   11.3990  -15.3790 O   0  0  0  0  0  0  0  0  0  0  0  0
  -34.4020   10.8120  -14.8400 C   0  0  0  0  0  0  0  0  0  0  0  0
  -34.5810   13.1610  -14.0060 C   0  0  0  0  0  0  0  0  0  0  0  0
  -35.3720   11.9170  -14.4190 C   0  0  0  0  0  0  0  0  0  0  0  0
  -31.5740   13.3320  -16.4550 O   0  0  0  0  0  0  0  0  0  0  0  0
  -30.5190   14.0710  -17.0710 C   0  0  0  0  0  0  0  0  0  0  0  0
  -29.3110   13.1570  -17.2840 C   0  0  0  0  0  0  0  0  0  0  0  0
  -28.0230   13.9600  -17.0950 C   0  0  0  0  0  0  0  0  0  0  0  0
  -31.7470   10.8330  -22.4960 C   0  0  0  0  0  0  0  0  0  0  0  0
  -30.5720   11.4340  -21.7690 C   0  0  0  0  0  0  0  0  0  0  0  0
  -30.0830   12.6300  -22.1510 N   0  0  0  0  0  0  0  0  0  0  0  0
  -30.4940   13.1110  -22.9060 H   0  0  0  0  0  0  0  0  0  0  0  0
  -30.0660   10.8410  -20.8400 O   0  0  0  0  0  0  0  0  0  0  0  0
  -28.9900   13.1890  -21.4760 N   0  0  0  0  0  0  0  0  0  0  0  0
  -27.7150   12.7870  -21.6350 C   0  0  0  0  0  0  0  0  0  0  0  0
  -26.8900   13.6650  -20.7160 C   0  0  2  0  0  0  0  0  0  0  0  0
  -26.1750   12.8190  -19.6600 C   0  0  0  0  0  0  0  0  0  0  0  0
  -27.8900   14.5440  -20.0870 N   0  0  0  0  0  0  0  0  0  0  0  0
  -27.3110   11.9050  -22.3630 O   0  0  0  0  0  0  0  0  0  0  0  0
  -29.0850   14.1900  -20.5930 C   0  0  0  0  0  0  0  0  0  0  0  0
  -30.1330   14.7210  -20.2830 O   0  0  0  0  0  0  0  0  0  0  0  0
  -25.8790   14.4880  -21.5180 C   0  0  0  0  0  0  0  0  0  0  0  0
  -25.2650   15.5620  -20.6160 C   0  0  0  0  0  0  0  0  0  0  0  0
  1  2  1  0  0  0  0
  3  1  1  0  0  0  0
  4  1  1  6  0  0  0
  4  9  1  0  0  0  0
  5  4  1  0  0  0  0
  6 12  1  0  0  0  0
  7  6  2  0  0  0  0
  8  7  1  0  0  0  0
  9  8  2  0  0  0  0
  9 10  1  0  0  0  0
 10 11  2  0  0  0  0
 11  6  1  0  0  0  0
 11 16  1  0  0  0  0
 12 13  1  0  0  0  0
 13 15  1  0  0  0  0
 15 14  1  0  0  0  0
 17 16  1  0  0  0  0
 18 19  1  0  0  0  0
 18 17  1  0  0  0  0
 20 21  1  0  0  0  0
 20  1  1  0  0  0  0
 21 24  2  0  0  0  0
 22 21  1  0  0  0  0
 22 25  1  0  0  0  0
 23 22  1  0  0  0  0
 25 31  1  0  0  0  0
 26 25  1  0  0  0  0
 26 27  1  0  0  0  0
 27 33  1  6  0  0  0
 27 29  1  0  0  0  0
 27 28  1  0  0  0  0
 30 26  2  0  0  0  0
 31 32  2  0  0  0  0
 31 29  1  0  0  0  0
 33 34  1  0  0  0  0
M  END
>  <MODEL>
1

>  <REMARK>
 VINA RESULT:      -0.1      0.000      0.000
  Name = ZINC29188439
                            x       y       z     vdW  Elec       q    Type
                         _______ _______ _______ _____ _____    ______ ____

>  <TORSDO>
F 12

>  <vina_score>
-0.1

$$$$
ZINC19848804
 OpenBabel01081722103D

 33 35  0  0  1  0  0  0  0  0999 V2000
  -30.8460   15.2060  -20.1560 N   0  0  0  0  0  0  0  0  0  0  0  0
  -31.7540   14.2310  -20.0260 C   0  0  0  0  0  0  0  0  0  0  0  0
  -31.4060   13.0940  -20.9600 C   0  0  2  0  0  0  0  0  0  0  0  0
  -30.9570   11.8740  -20.1290 C   0  0  1  0  0  0  0  0  0  0  0  0
  -29.5050   12.0850  -19.9030 N   0  0  0  0  0  0  0  0  0  0  0  0
  -29.3190   12.7120  -19.1200 H   0  0  0  0  0  0  0  0  0  0  0  0
  -29.0430   11.2040  -19.6770 H   0  0  0  0  0  0  0  0  0  0  0  0
  -29.0090   12.6250  -21.1940 C   0  0  2  0  0  0  0  0  0  0  0  0
  -30.1160   13.5910  -21.6650 C   0  0  2  0  0  0  0  0  0  0  0  0
  -32.7070   14.2560  -19.2760 O   0  0  0  0  0  0  0  0  0  0  0  0
  -29.8830   14.9520  -21.0480 C   0  0  0  0  0  0  0  0  0  0  0  0
  -28.9650   15.6980  -21.3200 O   0  0  0  0  0  0  0  0  0  0  0  0
  -31.6930   11.8350  -18.8140 C   0  0  0  0  0  0  0  0  0  0  0  0
  -33.0340   11.5020  -18.7820 C   0  0  0  0  0  0  0  0  0  0  0  0
  -33.7100   11.4660  -17.5780 C   0  0  0  0  0  0  0  0  0  0  0  0
  -33.0440   11.7640  -16.3970 C   0  0  0  0  0  0  0  0  0  0  0  0
  -31.6980   12.0970  -16.4270 C   0  0  0  0  0  0  0  0  0  0  0  0
  -31.0210   12.1280  -17.6360 C   0  0  0  0  0  0  0  0  0  0  0  0
  -33.7100   11.7280  -15.2130 O   0  0  0  0  0  0  0  0  0  0  0  0
  -34.8160   12.6200  -15.0630 C   0  0  0  0  0  0  0  0  0  0  0  0
  -29.7010   12.4500  -17.6680 O   0  0  0  0  0  0  0  0  0  0  0  0
  -29.1790   12.2140  -18.4090 H   0  0  0  0  0  0  0  0  0  0  0  0
  -28.8230   11.5110  -22.1920 C   0  0  0  0  0  0  0  0  0  0  0  0
  -29.8840   10.8030  -22.6120 O   0  0  0  0  0  0  0  0  0  0  0  0
  -27.7200   11.2540  -22.6120 O   0  0  0  0  0  0  0  0  0  0  0  0
  -30.9030   16.4490  -19.3830 C   0  0  0  0  0  0  0  0  0  0  0  0
  -29.5540   16.6890  -18.7020 C   0  0  0  0  0  0  0  0  0  0  0  0
  -28.8450   15.4870  -16.6300 C   0  0  0  0  0  0  0  0  0  0  0  0
  -29.0220   15.3670  -18.1440 C   0  0  0  0  0  0  0  0  0  0  0  0
  -27.6950   13.3790  -20.9870 C   0  0  0  0  0  0  0  0  0  0  0  0
  -26.8460   12.6490  -19.9440 C   0  0  0  0  0  0  0  0  0  0  0  0
  -26.9790   13.3580  -18.5940 C   0  0  0  0  0  0  0  0  0  0  0  0
  -25.3810   12.6560  -20.3810 C   0  0  0  0  0  0  0  0  0  0  0  0
  1  2  1  0  0  0  0
  1 26  1  0  0  0  0
  2 10  2  0  0  0  0
  3  4  1  0  0  0  0
  3  2  1  1  0  0  0
  4  5  1  0  0  0  0
  4 13  1  1  0  0  0
  5  7  1  0  0  0  0
  5  6  1  0  0  0  0
  8 23  1  6  0  0  0
  8 30  1  0  0  0  0
  8  5  1  0  0  0  0
  9  8  1  0  0  0  0
  9 11  1  1  0  0  0
  9  3  1  0  0  0  0
 11  1  1  0  0  0  0
 12 11  2  0  0  0  0
 13 14  2  0  0  0  0
 13 18  1  0  0  0  0
 14 15  1  0  0  0  0
 15 16  2  0  0  0  0
 16 19  1  0  0  0  0
 17 16  1  0  0  0  0
 18 17  2  0  0  0  0
 19 20  1  0  0  0  0
 21 18  1  0  0  0  0
 22 21  1  0  0  0  0
 24 23  1  0  0  0  0
 25 23  2  0  0  0  0
 26 27  1  0  0  0  0
 27 29  1  0  0  0  0
 29 28  1  0  0  0  0
 30 31  1  0  0  0  0
 31 32  1  0  0  0  0
 33 31  1  0  0  0  0
M  END
>  <MODEL>
1

>  <REMARK>
 VINA RESULT:      -0.1      0.000      0.000
  Name = ZINC19848804
                            x       y       z     vdW  Elec       q    Type
                         _______ _______ _______ _____ _____    ______ ____

>  <TORSDO>
F 9

>  <vina_score>
-0.1

$$$$
ZINC02441083
 OpenBabel01081722123D

 40 43  0  0  1  0  0  0  0  0999 V2000
  -28.4490   14.7440  -19.9820 C   0  0  0  0  0  0  0  0  0  0  0  0
  -27.3010   14.1150  -20.0290 N   0  0  0  0  0  0  0  0  0  0  0  0
  -27.4030   13.0570  -20.8730 C   0  0  0  0  0  0  0  0  0  0  0  0
  -26.5190   12.0530  -21.3050 C   0  0  0  0  0  0  0  0  0  0  0  0
  -26.9650   11.1450  -22.1660 N   0  0  0  0  0  0  0  0  0  0  0  0
  -28.2080   11.1770  -22.6100 C   0  0  0  0  0  0  0  0  0  0  0  0
  -29.0700   12.0970  -22.2330 N   0  0  0  0  0  0  0  0  0  0  0  0
  -28.7130   13.0470  -21.3760 C   0  0  0  0  0  0  0  0  0  0  0  0
  -29.3520   14.1210  -20.7980 N   0  0  0  0  0  0  0  0  0  0  0  0
  -30.7430   14.5220  -21.0170 C   0  0  2  0  0  0  0  0  0  0  0  0
  -31.2450   15.4130  -19.8530 C   0  0  2  0  0  0  0  0  0  0  0  0
  -32.7760   15.1940  -19.9120 C   0  0  2  0  0  0  0  0  0  0  0  0
  -32.9380   13.8650  -20.6760 C   0  0  1  0  0  0  0  0  0  0  0  0
  -31.6190   13.3750  -20.9640 O   0  0  0  0  0  0  0  0  0  0  0  0
  -30.9170   16.7850  -20.0830 O   0  0  0  0  0  0  0  0  0  0  0  0
  -30.2260   17.0610  -19.4620 H   0  0  0  0  0  0  0  0  0  0  0  0
  -33.4100   16.2600  -20.6220 O   0  0  0  0  0  0  0  0  0  0  0  0
  -34.3140   16.0000  -20.8560 H   0  0  0  0  0  0  0  0  0  0  0  0
  -33.6920   12.8550  -19.8090 C   0  0  0  0  0  0  0  0  0  0  0  0
  -34.9790   12.6050  -20.3780 O   0  0  0  0  0  0  0  0  0  0  0  0
  -35.5020   12.0630  -19.7680 H   0  0  0  0  0  0  0  0  0  0  0  0
  -25.2140   12.0120  -20.8430 N   0  0  0  0  0  0  0  0  0  0  0  0
  -24.4690   11.9230  -21.4810 H   0  0  0  0  0  0  0  0  0  0  0  0
  -25.0300   12.0720  -19.8780 H   0  0  0  0  0  0  0  0  0  0  0  0
  -28.7070   15.8680  -19.2240 N   0  0  0  0  0  0  0  0  0  0  0  0
  -29.2170   16.6170  -19.6110 H   0  0  0  0  0  0  0  0  0  0  0  0
  -28.2420   15.9450  -17.9040 N   0  0  0  0  0  0  0  0  0  0  0  0
  -27.6190   16.6610  -17.6430 H   0  0  0  0  0  0  0  0  0  0  0  0
  -28.6600   15.0110  -16.9650 C   0  0  0  0  0  0  0  0  0  0  0  0
  -29.1790   15.4120  -15.8200 C   0  0  0  0  0  0  0  0  0  0  0  0
  -28.5220   13.5380  -17.2540 C   0  0  0  0  0  0  0  0  0  0  0  0
  -29.5510   13.1310  -18.1590 O   0  0  0  0  0  0  0  0  0  0  0  0
  -33.0120   11.6210  -16.4980 C   0  0  0  0  0  0  0  0  0  0  0  0
  -32.6650   12.9430  -16.2880 C   0  0  0  0  0  0  0  0  0  0  0  0
  -31.5070   13.4520  -16.8440 C   0  0  0  0  0  0  0  0  0  0  0  0
  -30.6910   12.6330  -17.6120 C   0  0  0  0  0  0  0  0  0  0  0  0
  -31.0430   11.3090  -17.8250 C   0  0  0  0  0  0  0  0  0  0  0  0
  -32.2000   10.8050  -17.2620 C   0  0  0  0  0  0  0  0  0  0  0  0
  -34.5480   11.7690  -14.5560 C   0  0  0  0  0  0  0  0  0  0  0  0
  -34.2760   11.0700  -15.8900 C   0  0  0  0  0  0  0  0  0  0  0  0
  1 25  1  0  0  0  0
  2  1  2  0  0  0  0
  3  2  1  0  0  0  0
  4  3  1  0  0  0  0
  4 22  1  0  0  0  0
  5  4  2  0  0  0  0
  6  7  2  0  0  0  0
  6  5  1  0  0  0  0
  7  8  1  0  0  0  0
  8  3  2  0  0  0  0
  8  9  1  0  0  0  0
  9  1  1  0  0  0  0
 10 14  1  0  0  0  0
 10  9  1  1  0  0  0
 10 11  1  0  0  0  0
 11 15  1  6  0  0  0
 12 17  1  6  0  0  0
 12 11  1  0  0  0  0
 13 12  1  0  0  0  0
 13 19  1  1  0  0  0
 14 13  1  0  0  0  0
 15 16  1  0  0  0  0
 18 17  1  0  0  0  0
 20 19  1  0  0  0  0
 20 21  1  0  0  0  0
 22 24  1  0  0  0  0
 23 22  1  0  0  0  0
 25 27  1  0  0  0  0
 26 25  1  0  0  0  0
 27 28  1  0  0  0  0
 27 29  1  0  0  0  0
 29 30  2  0  0  0  0
 31 29  1  0  0  0  0
 32 36  1  0  0  0  0
 32 31  1  0  0  0  0
 33 34  1  0  0  0  0
 33 40  1  0  0  0  0
 35 34  2  0  0  0  0
 36 35  1  0  0  0  0
 37 36  2  0  0  0  0
 37 38  1  0  0  0  0
 38 33  2  0  0  0  0
 40 39  1  0  0  0  0
M  END
>  <MODEL>
1

>  <REMARK>
 VINA RESULT:       0.0      0.000      0.000
  Name = ZINC02441083
                            x       y       z     vdW  Elec       q    Type
                         _______ _______ _______ _____ _____    ______ ____

>  <TORSDO>
F 13

>  <vina_score>
0.0

$$$$
ZINC30969187
 OpenBabel01081722213D

 32 33  0  0  1  0  0  0  0  0999 V2000
  -31.7310   10.9790  -22.4040 C   0  0  0  0  0  0  0  0  0  0  0  0
  -33.2500   11.6120  -18.4570 C   0  0  2  0  0  0  0  0  0  0  0  0
  -34.2210   11.2880  -19.5970 C   0  0  0  0  0  0  0  0  0  0  0  0
  -33.5520   11.6030  -20.9360 C   0  0  0  0  0  0  0  0  0  0  0  0
  -32.3270   10.8050  -21.0720 N   0  0  0  0  0  0  0  0  0  0  0  0
  -32.5810    9.8230  -20.9670 H   0  0  0  0  0  0  0  0  0  0  0  0
  -31.3600   11.1330  -20.0170 C   0  0  0  0  0  0  0  0  0  0  0  0
  -31.9640   10.8030  -18.6500 C   0  0  0  0  0  0  0  0  0  0  0  0
  -33.1920   11.4120  -15.9930 N   0  0  0  0  0  0  0  0  0  0  0  0
  -32.2760   11.7720  -16.0170 H   0  0  0  0  0  0  0  0  0  0  0  0
  -33.8820   11.2470  -17.1390 C   0  0  0  0  0  0  0  0  0  0  0  0
  -35.0100   10.8040  -17.1090 O   0  0  0  0  0  0  0  0  0  0  0  0
  -33.8050   11.0580  -14.7110 C   0  0  0  0  0  0  0  0  0  0  0  0
  -34.3320   12.3230  -14.0300 C   0  0  0  0  0  0  0  0  0  0  0  0
  -36.1930   10.8030  -13.3450 C   0  0  0  0  0  0  0  0  0  0  0  0
  -35.8460   12.2080  -13.8430 C   0  0  0  0  0  0  0  0  0  0  0  0
  -30.7020   12.0790  -22.3540 C   0  0  0  0  0  0  0  0  0  0  0  0
  -29.3890   11.7760  -22.4030 N   0  0  0  0  0  0  0  0  0  0  0  0
  -29.1040   10.8370  -22.4730 H   0  0  0  0  0  0  0  0  0  0  0  0
  -31.0550   13.2360  -22.2670 O   0  0  0  0  0  0  0  0  0  0  0  0
  -28.4320   12.7980  -22.3560 N   0  0  0  0  0  0  0  0  0  0  0  0
  -28.2760   13.3640  -23.1470 H   0  0  0  0  0  0  0  0  0  0  0  0
  -27.7250   13.0060  -21.2290 C   0  0  0  0  0  0  0  0  0  0  0  0
  -27.9160   12.3100  -20.2550 O   0  0  0  0  0  0  0  0  0  0  0  0
  -26.6950   14.1060  -21.1780 C   0  0  0  0  0  0  0  0  0  0  0  0
  -27.1670   15.2030  -20.2210 C   0  0  1  0  0  0  0  0  0  0  0  0
  -28.5160   15.7580  -20.7070 C   0  0  0  0  0  0  0  0  0  0  0  0
  -29.1170   16.6320  -19.5700 C   0  0  0  0  0  0  0  0  0  0  0  0
  -28.7040   15.6020  -18.0990 S   0  0  0  0  0  0  0  0  0  0  0  0
  -28.1990   16.4430  -17.0710 O   0  0  0  0  0  0  0  0  0  0  0  0
  -29.7960   14.7350  -17.8200 O   0  0  0  0  0  0  0  0  0  0  0  0
  -27.3210   14.6130  -18.7980 C   0  0  0  0  0  0  0  0  0  0  0  0
  1 17  1  0  0  0  0
  1  5  1  0  0  0  0
  2 11  1  1  0  0  0
  3  2  1  0  0  0  0
  4  3  1  0  0  0  0
  5  6  1  0  0  0  0
  5  4  1  0  0  0  0
  5  7  1  0  0  0  0
  7  8  1  0  0  0  0
  8  2  1  0  0  0  0
  9 13  1  0  0  0  0
 10  9  1  0  0  0  0
 11 12  2  0  0  0  0
 11  9  1  0  0  0  0
 13 14  1  0  0  0  0
 14 16  1  0  0  0  0
 16 15  1  0  0  0  0
 17 20  2  0  0  0  0
 18 21  1  0  0  0  0
 18 17  1  0  0  0  0
 19 18  1  0  0  0  0
 21 23  1  0  0  0  0
 22 21  1  0  0  0  0
 23 25  1  0  0  0  0
 23 24  2  0  0  0  0
 26 25  1  6  0  0  0
 26 32  1  0  0  0  0
 27 26  1  0  0  0  0
 27 28  1  0  0  0  0
 28 29  1  0  0  0  0
 29 31  2  0  0  0  0
 29 30  2  0  0  0  0
 32 29  1  0  0  0  0
M  END
>  <MODEL>
1

>  <REMARK>
 VINA RESULT:       0.3      0.000      0.000
  Name = ZINC30969187
                            x       y       z     vdW  Elec       q    Type
                         _______ _______ _______ _____ _____    ______ ____

>  <TORSDO>
F 9

>  <vina_score>
0.3

$$$$
ZINC03766761
 OpenBabel01081722063D

 29 31  0  0  0  0  0  0  0  0999 V2000
  -32.3750   12.1530  -19.1360 C   0  0  0  0  0  0  0  0  0  0  0  0
  -32.7740   12.4340  -17.8260 C   0  0  0  0  0  0  0  0  0  0  0  0
  -32.3430   13.3230  -16.9160 N   0  0  0  0  0  0  0  0  0  0  0  0
  -32.8750   13.3990  -15.7480 N   0  0  0  0  0  0  0  0  0  0  0  0
  -33.8850   12.5920  -15.3950 C   0  0  0  0  0  0  0  0  0  0  0  0
  -34.3650   11.6460  -16.3090 C   0  0  0  0  0  0  0  0  0  0  0  0
  -33.7950   11.5840  -17.5340 N   0  0  0  0  0  0  0  0  0  0  0  0
  -34.0300   10.8160  -18.5840 C   0  0  0  0  0  0  0  0  0  0  0  0
  -33.1910   11.1300  -19.5750 N   0  0  0  0  0  0  0  0  0  0  0  0
  -34.4810   12.6960  -14.0540 C   0  0  0  0  0  0  0  0  0  0  0  0
  -34.6420   13.9050  -13.4800 N   0  0  0  0  0  0  0  0  0  0  0  0
  -35.0410   13.9730  -12.5820 H   0  0  0  0  0  0  0  0  0  0  0  0
  -34.3600   14.7180  -13.9570 H   0  0  0  0  0  0  0  0  0  0  0  0
  -34.8290   11.6900  -13.4650 O   0  0  0  0  0  0  0  0  0  0  0  0
  -30.1380   12.1980  -19.9870 N   0  0  0  0  0  0  0  0  0  0  0  0
  -29.9970   11.2920  -19.6290 H   0  0  0  0  0  0  0  0  0  0  0  0
  -31.3420   12.7910  -19.8660 C   0  0  0  0  0  0  0  0  0  0  0  0
  -31.5430   13.8740  -20.3840 O   0  0  0  0  0  0  0  0  0  0  0  0
  -27.2130   14.3660  -20.5220 C   0  0  0  0  0  0  0  0  0  0  0  0
  -27.0130   14.1990  -21.8860 C   0  0  0  0  0  0  0  0  0  0  0  0
  -27.8460   13.3710  -22.6130 C   0  0  0  0  0  0  0  0  0  0  0  0
  -28.8820   12.7070  -21.9860 C   0  0  0  0  0  0  0  0  0  0  0  0
  -29.0890   12.8700  -20.6220 C   0  0  0  0  0  0  0  0  0  0  0  0
  -28.2550   13.7060  -19.8900 C   0  0  0  0  0  0  0  0  0  0  0  0
  -26.7540   15.4370  -18.4500 C   0  0  0  0  0  0  0  0  0  0  0  0
  -26.3930   15.1810  -19.8090 O   0  0  0  0  0  0  0  0  0  0  0  0
  -35.3930   10.8030  -15.9710 N   0  0  0  0  0  0  0  0  0  0  0  0
  -35.6610   10.7070  -15.0280 H   0  0  0  0  0  0  0  0  0  0  0  0
  -35.8630   10.2940  -16.6710 H   0  0  0  0  0  0  0  0  0  0  0  0
  1  2  2  0  0  0  0
  2  7  1  0  0  0  0
  2  3  1  0  0  0  0
  3  4  2  0  0  0  0
  4  5  1  0  0  0  0
  5 10  1  0  0  0  0
  6 27  1  0  0  0  0
  6  5  2  0  0  0  0
  7  6  1  0  0  0  0
  8  7  1  0  0  0  0
  9  1  1  0  0  0  0
  9  8  2  0  0  0  0
 10 11  1  0  0  0  0
 10 14  2  0  0  0  0
 11 12  1  0  0  0  0
 13 11  1  0  0  0  0
 15 17  1  0  0  0  0
 15 16  1  0  0  0  0
 17  1  1  0  0  0  0
 18 17  2  0  0  0  0
 19 24  1  0  0  0  0
 19 26  1  0  0  0  0
 20 19  2  0  0  0  0
 21 22  2  0  0  0  0
 21 20  1  0  0  0  0
 22 23  1  0  0  0  0
 23 15  1  0  0  0  0
 23 24  2  0  0  0  0
 26 25  1  0  0  0  0
 27 28  1  0  0  0  0
 29 27  1  0  0  0  0
M  END
>  <MODEL>
1

>  <REMARK>
 VINA RESULT:       1.0      0.000      0.000
  Name = ZINC03766761
                            x       y       z     vdW  Elec       q    Type
                         _______ _______ _______ _____ _____    ______ ____

>  <TORSDO>
F 5

>  <vina_score>
1.0

$$$$
ZINC29372671
 OpenBabel01081722223D

 33 34  0  0  1  0  0  0  0  0999 V2000
  -30.7210   14.5480  -18.3580 N   0  0  0  0  0  0  0  0  0  0  0  0
  -29.7820   14.5830  -18.0630 H   0  0  0  0  0  0  0  0  0  0  0  0
  -31.0920   15.1610  -19.4990 C   0  0  0  0  0  0  0  0  0  0  0  0
  -32.2490   15.1180  -19.8620 O   0  0  0  0  0  0  0  0  0  0  0  0
  -32.2310   12.6190  -17.8370 C   0  0  0  0  0  0  0  0  0  0  0  0
  -33.1560   12.1470  -16.9170 C   0  0  0  0  0  0  0  0  0  0  0  0
  -33.8170   10.8040  -17.0940 C   0  0  0  0  0  0  0  0  0  0  0  0
  -33.4480   12.9450  -15.8450 C   0  0  0  0  0  0  0  0  0  0  0  0
  -32.4170   14.3720  -16.1240 S   0  0  0  0  0  0  0  0  0  0  0  0
  -31.6580   13.8720  -17.6000 C   0  0  0  0  0  0  0  0  0  0  0  0
  -34.3770   12.6890  -14.7420 C   0  0  0  0  0  0  0  0  0  0  0  0
  -35.0750   11.5360  -14.7030 N   0  0  0  0  0  0  0  0  0  0  0  0
  -34.9610   10.8670  -15.4170 H   0  0  0  0  0  0  0  0  0  0  0  0
  -36.0040   11.2800  -13.6010 C   0  0  0  0  0  0  0  0  0  0  0  0
  -34.5190   13.5160  -13.8610 O   0  0  0  0  0  0  0  0  0  0  0  0
  -31.8600   11.8260  -19.0150 C   0  0  0  0  0  0  0  0  0  0  0  0
  -30.9530   11.0190  -18.9440 O   0  0  0  0  0  0  0  0  0  0  0  0
  -32.5270   11.9910  -20.1760 O   0  0  0  0  0  0  0  0  0  0  0  0
  -34.7290   11.1800  -20.8250 C   0  0  0  0  0  0  0  0  0  0  0  0
  -33.9490   12.2690  -20.0850 C   0  0  0  0  0  0  0  0  0  0  0  0
  -30.0710   15.8990  -20.3250 C   0  0  1  0  0  0  0  0  0  0  0  0
  -29.5850   17.1290  -19.5570 C   0  0  0  0  0  0  0  0  0  0  0  0
  -28.9340   15.0150  -20.5990 N   0  0  0  0  0  0  0  0  0  0  0  0
  -27.7160   15.4300  -20.3090 C   0  0  0  0  0  0  0  0  0  0  0  0
  -26.6130   14.6300  -20.5500 C   0  0  0  0  0  0  0  0  0  0  0  0
  -26.7950   13.3750  -21.1020 C   0  0  0  0  0  0  0  0  0  0  0  0
  -28.0990   12.9620  -21.3980 C   0  0  0  0  0  0  0  0  0  0  0  0
  -29.1590   13.8280  -21.1210 C   0  0  0  0  0  0  0  0  0  0  0  0
  -28.3510   11.6310  -21.9890 C   0  0  0  0  0  0  0  0  0  0  0  0
  -27.3540   10.9710  -22.6130 N   0  0  0  0  0  0  0  0  0  0  0  0
  -27.5220   10.0840  -23.0060 H   0  0  0  0  0  0  0  0  0  0  0  0
  -26.4590   11.3760  -22.6720 H   0  0  0  0  0  0  0  0  0  0  0  0
  -29.4560   11.1320  -21.9150 O   0  0  0  0  0  0  0  0  0  0  0  0
  1  2  1  0  0  0  0
  1 10  1  0  0  0  0
  3  1  1  0  0  0  0
  4  3  2  0  0  0  0
  5 10  2  0  0  0  0
  5  6  1  0  0  0  0
  6  8  2  0  0  0  0
  7  6  1  0  0  0  0
  8 11  1  0  0  0  0
  9  8  1  0  0  0  0
 10  9  1  0  0  0  0
 11 12  1  0  0  0  0
 11 15  2  0  0  0  0
 12 14  1  0  0  0  0
 13 12  1  0  0  0  0
 16 17  2  0  0  0  0
 16  5  1  0  0  0  0
 18 20  1  0  0  0  0
 18 16  1  0  0  0  0
 19 20  1  0  0  0  0
 21 23  1  1  0  0  0
 21 22  1  0  0  0  0
 21  3  1  0  0  0  0
 23 24  1  0  0  0  0
 25 24  2  0  0  0  0
 26 25  1  0  0  0  0
 27 28  2  0  0  0  0
 27 26  1  0  0  0  0
 28 23  1  0  0  0  0
 29 33  2  0  0  0  0
 29 27  1  0  0  0  0
 30 29  1  0  0  0  0
 31 30  1  0  0  0  0
 32 30  1  0  0  0  0
M  END
>  <MODEL>
1

>  <REMARK>
 VINA RESULT:       1.1      0.000      0.000
  Name = ZINC29372671
                            x       y       z     vdW  Elec       q    Type
                         _______ _______ _______ _____ _____    ______ ____

>  <TORSDO>
F 8

>  <vina_score>
1.1

$$$$
ZINC28887676
 OpenBabel01081722063D

 34 37  0  0  1  0  0  0  0  0999 V2000
  -27.1360   14.3390  -19.3280 C   0  0  0  0  0  0  0  0  0  0  0  0
  -26.7120   15.3420  -18.4760 C   0  0  0  0  0  0  0  0  0  0  0  0
  -27.4400   15.6440  -17.3400 C   0  0  0  0  0  0  0  0  0  0  0  0
  -28.5980   14.9390  -17.0530 C   0  0  0  0  0  0  0  0  0  0  0  0
  -29.0230   13.9250  -17.9080 C   0  0  0  0  0  0  0  0  0  0  0  0
  -28.2900   13.6320  -19.0490 C   0  0  0  0  0  0  0  0  0  0  0  0
  -30.1900   13.2050  -17.6200 N   0  0  0  0  0  0  0  0  0  0  0  0
  -30.9560   13.6590  -17.1990 H   0  0  0  0  0  0  0  0  0  0  0  0
  -30.2630   11.8930  -17.9170 C   0  0  0  0  0  0  0  0  0  0  0  0
  -29.3600   11.3580  -18.5250 O   0  0  0  0  0  0  0  0  0  0  0  0
  -31.4670   11.0900  -17.4940 C   0  0  1  0  0  0  0  0  0  0  0  0
  -32.2060   11.7770  -16.3230 C   0  0  0  0  0  0  0  0  0  0  0  0
  -33.6700   11.5210  -16.6070 C   0  0  0  0  0  0  0  0  0  0  0  0
  -33.8320   11.1370  -17.8850 N   0  0  0  0  0  0  0  0  0  0  0  0
  -34.5660   11.6460  -15.7990 O   0  0  0  0  0  0  0  0  0  0  0  0
  -32.5500   11.0960  -18.5970 C   0  0  0  0  0  0  0  0  0  0  0  0
  -35.1240   10.8030  -18.4890 C   0  0  0  0  0  0  0  0  0  0  0  0
  -35.1980   11.3970  -19.8970 C   0  0  0  0  0  0  0  0  0  0  0  0
  -34.1010   11.0040  -20.8890 C   0  0  0  0  0  0  0  0  0  0  0  0
  -34.1260   12.4140  -20.2920 C   0  0  0  0  0  0  0  0  0  0  0  0
  -26.2020   13.9620  -20.7740 S   0  0  0  0  0  0  0  0  0  0  0  0
  -25.7230   12.6330  -20.6140 O   0  0  0  0  0  0  0  0  0  0  0  0
  -25.3310   15.0640  -20.9930 O   0  0  0  0  0  0  0  0  0  0  0  0
  -27.2590   13.9340  -22.0480 N   0  0  0  0  0  0  0  0  0  0  0  0
  -29.5990   13.6630  -21.4970 C   0  0  0  0  0  0  0  0  0  0  0  0
  -30.7330   12.8670  -21.4390 C   0  0  0  0  0  0  0  0  0  0  0  0
  -30.6790   11.5540  -21.8690 C   0  0  0  0  0  0  0  0  0  0  0  0
  -29.4950   11.0300  -22.3570 C   0  0  0  0  0  0  0  0  0  0  0  0
  -28.3620   11.8190  -22.4220 C   0  0  0  0  0  0  0  0  0  0  0  0
  -28.4070   13.1350  -21.9880 C   0  0  0  0  0  0  0  0  0  0  0  0
  -30.8070   15.3480  -20.3330 C   0  0  0  0  0  0  0  0  0  0  0  0
  -29.6510   14.9540  -21.0740 O   0  0  0  0  0  0  0  0  0  0  0  0
  -29.3150   15.2330  -15.9350 O   0  0  0  0  0  0  0  0  0  0  0  0
  -29.0160   15.9000  -15.3490 H   0  0  0  0  0  0  0  0  0  0  0  0
  1  6  2  0  0  0  0
  1  2  1  0  0  0  0
  2  3  2  0  0  0  0
  3  4  1  0  0  0  0
  4 33  1  0  0  0  0
  5  7  1  0  0  0  0
  5  4  2  0  0  0  0
  6  5  1  0  0  0  0
  7  8  1  0  0  0  0
  9  7  1  0  0  0  0
 10  9  2  0  0  0  0
 11  9  1  6  0  0  0
 11 12  1  0  0  0  0
 13 12  1  0  0  0  0
 13 15  2  0  0  0  0
 14 13  1  0  0  0  0
 16 14  1  0  0  0  0
 16 11  1  0  0  0  0
 17 14  1  0  0  0  0
 18 17  1  0  0  0  0
 19 20  1  0  0  0  0
 19 18  1  0  0  0  0
 20 18  1  0  0  0  0
 21 22  2  0  0  0  0
 21  1  1  0  0  0  0
 23 21  2  0  0  0  0
 24 30  1  0  0  0  0
 24 21  1  0  0  0  0
 25 26  1  0  0  0  0
 25 32  1  0  0  0  0
 27 26  2  0  0  0  0
 28 27  1  0  0  0  0
 29 28  2  0  0  0  0
 29 30  1  0  0  0  0
 30 25  2  0  0  0  0
 32 31  1  0  0  0  0
 33 34  1  0  0  0  0
M  END
>  <MODEL>
1

>  <REMARK>
 VINA RESULT:       1.3      0.000      0.000
  Name = ZINC28887676
                            x       y       z     vdW  Elec       q    Type
                         _______ _______ _______ _____ _____    ______ ____

>  <TORSDO>
F 9

>  <vina_score>
1.3

$$$$
ZINC25049844
 OpenBabel01081722083D

 35 37  0  0  0  0  0  0  0  0999 V2000
  -27.7670   13.5640  -19.4410 N   0  0  0  0  0  0  0  0  0  0  0  0
  -27.9880   14.3240  -20.0250 H   0  0  0  0  0  0  0  0  0  0  0  0
  -26.4980   13.1150  -19.3700 C   0  0  0  0  0  0  0  0  0  0  0  0
  -26.2260   12.1780  -18.6500 O   0  0  0  0  0  0  0  0  0  0  0  0
  -29.7410   13.6940  -18.1160 C   0  0  0  0  0  0  0  0  0  0  0  0
  -28.7710   12.9480  -18.6830 N   0  0  0  0  0  0  0  0  0  0  0  0
  -28.7690   11.9710  -18.5640 H   0  0  0  0  0  0  0  0  0  0  0  0
  -29.7430   14.9020  -18.2640 O   0  0  0  0  0  0  0  0  0  0  0  0
  -30.8170   10.8030  -18.4660 C   0  0  0  0  0  0  0  0  0  0  0  0
  -31.3160   11.7710  -17.4250 C   0  0  0  0  0  0  0  0  0  0  0  0
  -30.7890   13.0510  -17.3250 C   0  0  0  0  0  0  0  0  0  0  0  0
  -31.7530   13.6980  -15.9660 S   0  0  0  0  0  0  0  0  0  0  0  0
  -32.7090   12.2800  -15.6700 C   0  0  0  0  0  0  0  0  0  0  0  0
  -32.2590   11.4330  -16.5840 N   0  0  0  0  0  0  0  0  0  0  0  0
  -33.6920   12.0840  -14.7230 N   0  0  0  0  0  0  0  0  0  0  0  0
  -34.6250   11.0280  -15.1430 C   0  0  0  0  0  0  0  0  0  0  0  0
  -35.6610   10.8030  -14.0380 C   0  0  0  0  0  0  0  0  0  0  0  0
  -36.3300   12.0360  -13.7600 O   0  0  0  0  0  0  0  0  0  0  0  0
  -35.4510   13.0860  -13.3490 C   0  0  0  0  0  0  0  0  0  0  0  0
  -34.4120   13.3350  -14.4450 C   0  0  0  0  0  0  0  0  0  0  0  0
  -25.4180   13.7770  -20.1860 C   0  0  0  0  0  0  0  0  0  0  0  0
  -25.9980   14.9980  -20.9030 C   0  0  0  0  0  0  0  0  0  0  0  0
  -26.4260   14.6030  -22.3180 C   0  0  0  0  0  0  0  0  0  0  0  0
  -27.6000   13.7290  -22.2470 N   0  0  0  0  0  0  0  0  0  0  0  0
  -27.5580   12.8190  -22.6210 H   0  0  0  0  0  0  0  0  0  0  0  0
  -28.7360   14.1700  -21.6710 C   0  0  0  0  0  0  0  0  0  0  0  0
  -28.7870   15.2940  -21.2100 O   0  0  0  0  0  0  0  0  0  0  0  0
  -29.9180   13.2890  -21.6020 C   0  0  0  0  0  0  0  0  0  0  0  0
  -29.8080   11.9410  -21.9530 C   0  0  0  0  0  0  0  0  0  0  0  0
  -30.9130   11.1220  -21.8870 C   0  0  0  0  0  0  0  0  0  0  0  0
  -32.1370   11.6350  -21.4710 C   0  0  0  0  0  0  0  0  0  0  0  0
  -32.2500   12.9750  -21.1210 C   0  0  0  0  0  0  0  0  0  0  0  0
  -31.1490   13.8010  -21.1850 C   0  0  0  0  0  0  0  0  0  0  0  0
  -33.2230   10.8240  -21.4070 O   0  0  0  0  0  0  0  0  0  0  0  0
  -34.2000   11.1270  -20.4090 C   0  0  0  0  0  0  0  0  0  0  0  0
  1  3  1  0  0  0  0
  1  6  1  0  0  0  0
  2  1  1  0  0  0  0
  3  4  2  0  0  0  0
  5 11  1  0  0  0  0
  6  7  1  0  0  0  0
  6  5  1  0  0  0  0
  8  5  2  0  0  0  0
  9 10  1  0  0  0  0
 10 11  2  0  0  0  0
 10 14  1  0  0  0  0
 11 12  1  0  0  0  0
 12 13  1  0  0  0  0
 13 15  1  0  0  0  0
 14 13  2  0  0  0  0
 15 20  1  0  0  0  0
 16 15  1  0  0  0  0
 16 17  1  0  0  0  0
 17 18  1  0  0  0  0
 18 19  1  0  0  0  0
 20 19  1  0  0  0  0
 21  3  1  0  0  0  0
 22 21  1  0  0  0  0
 23 24  1  0  0  0  0
 23 22  1  0  0  0  0
 24 26  1  0  0  0  0
 25 24  1  0  0  0  0
 26 28  1  0  0  0  0
 26 27  2  0  0  0  0
 28 33  2  0  0  0  0
 29 30  2  0  0  0  0
 29 28  1  0  0  0  0
 30 31  1  0  0  0  0
 31 34  1  0  0  0  0
 31 32  2  0  0  0  0
 33 32  1  0  0  0  0
 34 35  1  0  0  0  0
M  END
>  <MODEL>
1

>  <REMARK>
 VINA RESULT:       3.1      0.000      0.000
  Name = ZINC25049844
                            x       y       z     vdW  Elec       q    Type
                         _______ _______ _______ _____ _____    ______ ____

>  <TORSDO>
F 9

>  <vina_score>
3.1

$$$$
ZINC12801698
 OpenBabel01081722113D

 33 35  0  0  0  0  0  0  0  0999 V2000
  -28.3100   14.5450  -21.7640 C   0  0  0  0  0  0  0  0  0  0  0  0
  -28.9100   13.3490  -21.9200 N   0  0  0  0  0  0  0  0  0  0  0  0
  -28.5700   12.7120  -22.5900 H   0  0  0  0  0  0  0  0  0  0  0  0
  -28.7280   15.3310  -20.9390 O   0  0  0  0  0  0  0  0  0  0  0  0
  -30.0170   13.0120  -21.1300 N   0  0  0  0  0  0  0  0  0  0  0  0
  -30.1770   13.4820  -20.2810 H   0  0  0  0  0  0  0  0  0  0  0  0
  -30.8640   12.0450  -21.5350 C   0  0  0  0  0  0  0  0  0  0  0  0
  -30.6660   11.4630  -22.5850 O   0  0  0  0  0  0  0  0  0  0  0  0
  -32.0270   11.6900  -20.7050 C   0  0  0  0  0  0  0  0  0  0  0  0
  -33.1350   11.1140  -21.2720 C   0  0  0  0  0  0  0  0  0  0  0  0
  -34.1800   10.9190  -19.8330 S   0  0  0  0  0  0  0  0  0  0  0  0
  -33.0520   11.6160  -18.6350 C   0  0  0  0  0  0  0  0  0  0  0  0
  -32.0160   11.9210  -19.3900 N   0  0  0  0  0  0  0  0  0  0  0  0
  -33.2200   11.7850  -17.2710 N   0  0  0  0  0  0  0  0  0  0  0  0
  -34.1720   10.8030  -16.7330 C   0  0  0  0  0  0  0  0  0  0  0  0
  -34.2820   10.9860  -15.2170 C   0  0  0  0  0  0  0  0  0  0  0  0
  -34.6720   12.3320  -14.9310 O   0  0  0  0  0  0  0  0  0  0  0  0
  -33.7660   13.3140  -15.4410 C   0  0  0  0  0  0  0  0  0  0  0  0
  -33.6510   13.1550  -16.9600 C   0  0  0  0  0  0  0  0  0  0  0  0
  -27.1180   14.9080  -22.6130 C   0  0  0  0  0  0  0  0  0  0  0  0
  -25.6970   15.2580  -21.5420 S   0  0  0  0  0  0  0  0  0  0  0  0
  -25.3590   13.6710  -20.7280 C   0  0  0  0  0  0  0  0  0  0  0  0
  -26.8680   14.0920  -18.8140 N   0  0  0  0  0  0  0  0  0  0  0  0
  -26.3160   14.8750  -18.5910 H   0  0  0  0  0  0  0  0  0  0  0  0
  -26.5260   13.2990  -19.8490 C   0  0  0  0  0  0  0  0  0  0  0  0
  -27.1590   12.2890  -20.0760 O   0  0  0  0  0  0  0  0  0  0  0  0
  -29.6250   12.2180  -17.2610 C   0  0  0  0  0  0  0  0  0  0  0  0
  -30.2690   13.2250  -16.5640 C   0  0  0  0  0  0  0  0  0  0  0  0
  -29.7860   14.5190  -16.6110 C   0  0  0  0  0  0  0  0  0  0  0  0
  -28.6580   14.8110  -17.3570 C   0  0  0  0  0  0  0  0  0  0  0  0
  -28.1870   16.0770  -17.4040 F   0  0  0  0  0  0  0  0  0  0  0  0
  -28.0100   13.8010  -18.0580 C   0  0  0  0  0  0  0  0  0  0  0  0
  -28.5030   12.5030  -18.0120 C   0  0  0  0  0  0  0  0  0  0  0  0
  1  4  2  0  0  0  0
  2  1  1  0  0  0  0
  2  5  1  0  0  0  0
  3  2  1  0  0  0  0
  5  6  1  0  0  0  0
  7  5  1  0  0  0  0
  7  9  1  0  0  0  0
  8  7  2  0  0  0  0
  9 13  1  0  0  0  0
 10  9  2  0  0  0  0
 10 11  1  0  0  0  0
 11 12  1  0  0  0  0
 12 14  1  0  0  0  0
 13 12  2  0  0  0  0
 14 19  1  0  0  0  0
 14 15  1  0  0  0  0
 15 16  1  0  0  0  0
 16 17  1  0  0  0  0
 18 17  1  0  0  0  0
 19 18  1  0  0  0  0
 20  1  1  0  0  0  0
 20 21  1  0  0  0  0
 21 22  1  0  0  0  0
 22 25  1  0  0  0  0
 23 24  1  0  0  0  0
 23 32  1  0  0  0  0
 25 23  1  0  0  0  0
 26 25  2  0  0  0  0
 27 28  2  0  0  0  0
 29 28  1  0  0  0  0
 30 29  2  0  0  0  0
 31 30  1  0  0  0  0
 32 33  2  0  0  0  0
 32 30  1  0  0  0  0
 33 27  1  0  0  0  0
M  END
>  <MODEL>
1

>  <REMARK>
 VINA RESULT:       3.2      0.000      0.000
  Name = ZINC12801698
                            x       y       z     vdW  Elec       q    Type
                         _______ _______ _______ _____ _____    ______ ____

>  <TORSDO>
F 8

>  <vina_score>
3.2

$$$$
ZINC15636405
 OpenBabel01081722243D

 36 39  0  0  1  0  0  0  0  0999 V2000
  -28.0810   12.6910  -19.0780 C   0  0  0  0  0  0  0  0  0  0  0  0
  -28.9030   11.7010  -18.9070 N   0  0  0  0  0  0  0  0  0  0  0  0
  -28.3810   16.1460  -16.6320 C   0  0  0  0  0  0  0  0  0  0  0  0
  -29.2860   15.1120  -16.4760 C   0  0  0  0  0  0  0  0  0  0  0  0
  -29.1950   13.9850  -17.2670 C   0  0  0  0  0  0  0  0  0  0  0  0
  -28.1850   13.8910  -18.2280 C   0  0  0  0  0  0  0  0  0  0  0  0
  -27.2710   14.9370  -18.3760 C   0  0  0  0  0  0  0  0  0  0  0  0
  -27.3770   16.0590  -17.5820 C   0  0  0  0  0  0  0  0  0  0  0  0
  -29.8010   11.7140  -17.8330 N   0  0  0  0  0  0  0  0  0  0  0  0
  -29.4640   11.7830  -16.9100 H   0  0  0  0  0  0  0  0  0  0  0  0
  -31.1270   11.6330  -18.0610 C   0  0  0  0  0  0  0  0  0  0  0  0
  -31.5430   11.5480  -19.2010 O   0  0  0  0  0  0  0  0  0  0  0  0
  -32.0750   11.6480  -16.9270 C   0  0  0  0  0  0  0  0  0  0  0  0
  -31.8660   10.8130  -15.8280 C   0  0  0  0  0  0  0  0  0  0  0  0
  -32.7520   10.8350  -14.7710 C   0  0  0  0  0  0  0  0  0  0  0  0
  -33.8530   11.6730  -14.8040 C   0  0  0  0  0  0  0  0  0  0  0  0
  -34.0660   12.5020  -15.8910 C   0  0  0  0  0  0  0  0  0  0  0  0
  -33.1840   12.4940  -16.9520 C   0  0  0  0  0  0  0  0  0  0  0  0
  -35.2420   13.4000  -15.9150 N   0  0  0  0  0  0  0  0  0  0  0  0
  -35.7550   13.7620  -14.8710 O   0  0  0  0  0  0  0  0  0  0  0  0
  -35.7000   13.7750  -16.9810 O   0  0  0  0  0  0  0  0  0  0  0  0
  -27.0200   12.6130  -20.1470 C   0  0  0  0  0  0  0  0  0  0  0  0
  -27.6130   13.0560  -21.4860 C   0  0  1  0  0  0  0  0  0  0  0  0
  -29.1170   12.9930  -21.4140 C   0  0  1  0  0  0  0  0  0  0  0  0
  -29.9160   12.1220  -22.0420 C   0  0  0  0  0  0  0  0  0  0  0  0
  -31.2470   12.3940  -21.7670 N   0  0  0  0  0  0  0  0  0  0  0  0
  -31.9930   11.7530  -21.7620 H   0  0  0  0  0  0  0  0  0  0  0  0
  -31.3160   13.8010  -21.4910 C   0  0  1  0  0  0  0  0  0  0  0  0
  -32.4160   14.3640  -20.6560 C   0  0  0  0  0  0  0  0  0  0  0  0
  -32.0890   15.5040  -19.9920 C   0  0  0  0  0  0  0  0  0  0  0  0
  -30.7600   16.1190  -20.1900 C   0  0  0  0  0  0  0  0  0  0  0  0
  -29.7030   15.3380  -20.4960 C   0  0  0  0  0  0  0  0  0  0  0  0
  -30.0150   13.8890  -20.6230 C   0  0  2  0  0  0  0  0  0  0  0  0
  -27.1820   14.4690  -21.7830 C   0  0  0  0  0  0  0  0  0  0  0  0
  -27.9100   15.2320  -22.6130 O   0  0  0  0  0  0  0  0  0  0  0  0
  -26.1810   14.9150  -21.2740 O   0  0  0  0  0  0  0  0  0  0  0  0
  1  2  2  0  0  0  0
  1  6  1  0  0  0  0
  2  9  1  0  0  0  0
  3  4  1  0  0  0  0
  5  4  2  0  0  0  0
  6  5  1  0  0  0  0
  7  6  2  0  0  0  0
  7  8  1  0  0  0  0
  8  3  2  0  0  0  0
  9 10  1  0  0  0  0
 11  9  1  0  0  0  0
 11 13  1  0  0  0  0
 12 11  2  0  0  0  0
 13 14  1  0  0  0  0
 14 15  2  0  0  0  0
 16 15  1  0  0  0  0
 17 16  2  0  0  0  0
 18 13  2  0  0  0  0
 18 17  1  0  0  0  0
 19 17  1  0  0  0  0
 19 20  2  0  0  0  0
 21 19  2  0  0  0  0
 22  1  1  0  0  0  0
 23 34  1  1  0  0  0
 23 24  1  0  0  0  0
 23 22  1  0  0  0  0
 24 25  1  1  0  0  0
 24 33  1  0  0  0  0
 25 26  1  0  0  0  0
 26 27  1  0  0  0  0
 28 26  1  1  0  0  0
 28 29  1  0  0  0  0
 28 33  1  0  0  0  0
 29 30  1  0  0  0  0
 31 30  1  0  0  0  0
 32 31  1  0  0  0  0
 33 32  1  6  0  0  0
 34 36  1  0  0  0  0
 35 34  2  0  0  0  0
M  END
>  <MODEL>
1

>  <REMARK>
 VINA RESULT:       4.0      0.000      0.000
  Name = ZINC15636405
                            x       y       z     vdW  Elec       q    Type
                         _______ _______ _______ _____ _____    ______ ____

>  <TORSDO>
F 8

>  <vina_score>
4.0

$$$$
ZINC11190076
 OpenBabel01081722163D

 36 38  0  0  1  0  0  0  0  0999 V2000
  -28.3310   13.4520  -21.7880 C   0  0  0  0  0  0  0  0  0  0  0  0
  -29.1350   12.4240  -22.1240 N   0  0  0  0  0  0  0  0  0  0  0  0
  -28.9150   11.8610  -22.9020 H   0  0  0  0  0  0  0  0  0  0  0  0
  -28.6440   14.1950  -20.8820 O   0  0  0  0  0  0  0  0  0  0  0  0
  -30.2840   12.1570  -21.3680 C   0  0  0  0  0  0  0  0  0  0  0  0
  -31.3940   12.9850  -21.4760 C   0  0  0  0  0  0  0  0  0  0  0  0
  -32.5260   12.7220  -20.7300 C   0  0  0  0  0  0  0  0  0  0  0  0
  -32.5540   11.6290  -19.8730 C   0  0  0  0  0  0  0  0  0  0  0  0
  -31.4420   10.8060  -19.7610 C   0  0  0  0  0  0  0  0  0  0  0  0
  -30.3120   11.0650  -20.5110 C   0  0  0  0  0  0  0  0  0  0  0  0
  -33.7020   11.3620  -19.1180 N   0  0  0  0  0  0  0  0  0  0  0  0
  -34.5930   11.4440  -19.5290 H   0  0  0  0  0  0  0  0  0  0  0  0
  -33.5890   10.9950  -17.8250 C   0  0  0  0  0  0  0  0  0  0  0  0
  -32.4910   10.8190  -17.3390 O   0  0  0  0  0  0  0  0  0  0  0  0
  -34.8250   10.8040  -16.9850 C   0  0  0  0  0  0  0  0  0  0  0  0
  -34.5330   11.2340  -15.6010 N   0  0  0  0  0  0  0  0  0  0  0  0
  -33.6840   10.7680  -15.2810 H   0  0  0  0  0  0  0  0  0  0  0  0
  -34.3240   12.6970  -15.5580 C   0  0  0  0  0  0  0  0  0  0  0  0
  -33.9890   13.1030  -14.1210 C   0  0  0  0  0  0  0  0  0  0  0  0
  -35.0510   12.6930  -13.2550 O   0  0  0  0  0  0  0  0  0  0  0  0
  -35.3030   11.2860  -13.2800 C   0  0  0  0  0  0  0  0  0  0  0  0
  -35.6510   10.8600  -14.7090 C   0  0  0  0  0  0  0  0  0  0  0  0
  -27.0410   13.6760  -22.5350 C   0  0  0  0  0  0  0  0  0  0  0  0
  -25.6850   12.8470  -21.6630 S   0  0  0  0  0  0  0  0  0  0  0  0
  -25.2670   13.9880  -20.3160 C   0  0  1  0  0  0  0  0  0  0  0  0
  -25.2830   15.4250  -20.8410 C   0  0  0  0  0  0  0  0  0  0  0  0
  -27.3520   14.6590  -19.1660 N   0  0  0  0  0  0  0  0  0  0  0  0
  -27.4760   15.3450  -19.8610 H   0  0  0  0  0  0  0  0  0  0  0  0
  -26.2770   13.8470  -19.2060 C   0  0  0  0  0  0  0  0  0  0  0  0
  -26.1230   13.0030  -18.3500 O   0  0  0  0  0  0  0  0  0  0  0  0
  -31.3160   13.3790  -16.4280 C   0  0  0  0  0  0  0  0  0  0  0  0
  -30.0270   13.9630  -16.9460 C   0  0  0  0  0  0  0  0  0  0  0  0
  -29.4810   13.7620  -18.1670 C   0  0  0  0  0  0  0  0  0  0  0  0
  -28.2870   14.5280  -18.1390 C   0  0  0  0  0  0  0  0  0  0  0  0
  -28.2360   15.0830  -16.9570 N   0  0  0  0  0  0  0  0  0  0  0  0
  -29.1960   14.7830  -16.2860 O   0  0  0  0  0  0  0  0  0  0  0  0
  1  4  2  0  0  0  0
  2  1  1  0  0  0  0
  2  5  1  0  0  0  0
  3  2  1  0  0  0  0
  5 10  1  0  0  0  0
  6  5  2  0  0  0  0
  6  7  1  0  0  0  0
  7  8  2  0  0  0  0
  8  9  1  0  0  0  0
  8 11  1  0  0  0  0
 10  9  2  0  0  0  0
 11 13  1  0  0  0  0
 12 11  1  0  0  0  0
 13 14  2  0  0  0  0
 13 15  1  0  0  0  0
 15 16  1  0  0  0  0
 16 18  1  0  0  0  0
 16 17  1  0  0  0  0
 16 22  1  0  0  0  0
 18 19  1  0  0  0  0
 19 20  1  0  0  0  0
 21 20  1  0  0  0  0
 22 21  1  0  0  0  0
 23  1  1  0  0  0  0
 23 24  1  0  0  0  0
 25 24  1  6  0  0  0
 25 29  1  0  0  0  0
 26 25  1  0  0  0  0
 27 34  1  0  0  0  0
 28 27  1  0  0  0  0
 29 27  1  0  0  0  0
 29 30  2  0  0  0  0
 32 31  1  0  0  0  0
 32 36  1  0  0  0  0
 33 34  1  0  0  0  0
 33 32  2  0  0  0  0
 34 35  2  0  0  0  0
 35 36  1  0  0  0  0
M  END
>  <MODEL>
1

>  <REMARK>
 VINA RESULT:       5.5      0.000      0.000
  Name = ZINC11190076
                            x       y       z     vdW  Elec       q    Type
                         _______ _______ _______ _____ _____    ______ ____

>  <TORSDO>
F 9

>  <vina_score>
5.5

$$$$
ZINC19925920
 OpenBabel01081722123D

 37 40  0  0  0  0  0  0  0  0999 V2000
  -28.9960   12.9540  -20.5170 C   0  0  0  0  0  0  0  0  0  0  0  0
  -29.1680   12.4610  -21.7850 C   0  0  0  0  0  0  0  0  0  0  0  0
  -28.4880   13.2690  -22.5980 N   0  0  0  0  0  0  0  0  0  0  0  0
  -27.9290   14.1990  -21.9100 N   0  0  0  0  0  0  0  0  0  0  0  0
  -28.2020   14.0660  -20.6590 N   0  0  0  0  0  0  0  0  0  0  0  0
  -27.7640   14.9020  -19.6280 C   0  0  0  0  0  0  0  0  0  0  0  0
  -28.5770   15.9030  -18.9310 C   0  0  0  0  0  0  0  0  0  0  0  0
  -27.8310   16.4850  -18.0330 N   0  0  0  0  0  0  0  0  0  0  0  0
  -26.5390   15.9070  -18.1010 O   0  0  0  0  0  0  0  0  0  0  0  0
  -26.5650   14.9190  -19.1160 N   0  0  0  0  0  0  0  0  0  0  0  0
  -29.9140   16.1850  -19.1860 N   0  0  0  0  0  0  0  0  0  0  0  0
  -30.1630   17.0220  -19.6410 H   0  0  0  0  0  0  0  0  0  0  0  0
  -30.6130   15.5480  -18.9120 H   0  0  0  0  0  0  0  0  0  0  0  0
  -30.0870   13.2390  -18.3520 N   0  0  0  0  0  0  0  0  0  0  0  0
  -30.0530   14.2140  -18.4890 H   0  0  0  0  0  0  0  0  0  0  0  0
  -29.5490   12.4090  -19.2680 C   0  0  0  0  0  0  0  0  0  0  0  0
  -29.5210   11.2110  -19.0610 O   0  0  0  0  0  0  0  0  0  0  0  0
  -31.9580   12.4170  -17.2150 C   0  0  0  0  0  0  0  0  0  0  0  0
  -30.6940   12.7150  -17.2030 N   0  0  0  0  0  0  0  0  0  0  0  0
  -34.5790   11.3310  -14.7430 C   0  0  0  0  0  0  0  0  0  0  0  0
  -33.7880   10.8060  -13.7340 C   0  0  0  0  0  0  0  0  0  0  0  0
  -32.4090   10.8040  -13.8560 C   0  0  0  0  0  0  0  0  0  0  0  0
  -31.8090   11.3260  -14.9830 C   0  0  0  0  0  0  0  0  0  0  0  0
  -32.5950   11.8590  -16.0090 C   0  0  0  0  0  0  0  0  0  0  0  0
  -33.9890   11.8660  -15.8820 C   0  0  0  0  0  0  0  0  0  0  0  0
  -36.4630   11.0000  -13.3310 C   0  0  0  0  0  0  0  0  0  0  0  0
  -35.9330   11.3290  -14.6160 O   0  0  0  0  0  0  0  0  0  0  0  0
  -34.7620   12.3870  -16.8710 O   0  0  0  0  0  0  0  0  0  0  0  0
  -34.1130   13.2310  -17.8250 C   0  0  0  0  0  0  0  0  0  0  0  0
  -29.9680   11.2470  -22.1800 C   0  0  0  0  0  0  0  0  0  0  0  0
  -31.4010   11.5360  -22.0340 N   0  0  0  0  0  0  0  0  0  0  0  0
  -31.8720   11.2050  -22.8770 H   0  0  0  0  0  0  0  0  0  0  0  0
  -31.6380   12.9820  -21.9180 C   0  0  0  0  0  0  0  0  0  0  0  0
  -33.1430   13.2420  -21.8280 C   0  0  0  0  0  0  0  0  0  0  0  0
  -33.6830   12.5140  -20.7220 O   0  0  0  0  0  0  0  0  0  0  0  0
  -33.4720   11.1010  -20.8040 C   0  0  0  0  0  0  0  0  0  0  0  0
  -31.9690   10.8200  -20.8830 C   0  0  0  0  0  0  0  0  0  0  0  0
  1 16  1  0  0  0  0
  2  1  2  0  0  0  0
  3  4  2  0  0  0  0
  3  2  1  0  0  0  0
  4  5  1  0  0  0  0
  5  1  1  0  0  0  0
  5  6  1  0  0  0  0
  6 10  2  0  0  0  0
  6  7  1  0  0  0  0
  7  8  2  0  0  0  0
  9  8  1  0  0  0  0
 10  9  1  0  0  0  0
 11  7  1  0  0  0  0
 11 13  1  0  0  0  0
 12 11  1  0  0  0  0
 14 19  1  0  0  0  0
 15 14  1  0  0  0  0
 16 17  2  0  0  0  0
 16 14  1  0  0  0  0
 18 19  2  0  0  0  0
 18 24  1  0  0  0  0
 20 27  1  0  0  0  0
 20 21  2  0  0  0  0
 22 21  1  0  0  0  0
 23 22  2  0  0  0  0
 24 25  2  0  0  0  0
 24 23  1  0  0  0  0
 25 20  1  0  0  0  0
 27 26  1  0  0  0  0
 28 25  1  0  0  0  0
 29 28  1  0  0  0  0
 30 31  1  0  0  0  0
 30  2  1  0  0  0  0
 31 33  1  0  0  0  0
 31 37  1  0  0  0  0
 32 31  1  0  0  0  0
 33 34  1  0  0  0  0
 34 35  1  0  0  0  0
 36 35  1  0  0  0  0
 37 36  1  0  0  0  0
M  END
>  <MODEL>
1

>  <REMARK>
 VINA RESULT:       6.4      0.000      0.000
  Name = ZINC19925920
                            x       y       z     vdW  Elec       q    Type
                         _______ _______ _______ _____ _____    ______ ____

>  <TORSDO>
F 9

>  <vina_score>
6.4

$$$$
ZINC24962321
 OpenBabel01081722133D

 26 27  0  0  1  0  0  0  0  0999 V2000
  -28.1250   14.8050  -18.0470 C   0  0  0  0  0  0  0  0  0  0  0  0
  -29.3120   14.3310  -18.4760 N   0  0  0  0  0  0  0  0  0  0  0  0
  -29.5640   14.4210  -19.4250 H   0  0  0  0  0  0  0  0  0  0  0  0
  -30.1540   13.7370  -17.6080 C   0  0  0  0  0  0  0  0  0  0  0  0
  -31.3410   13.2640  -18.0390 N   0  0  0  0  0  0  0  0  0  0  0  0
  -31.5610   13.2830  -18.9980 H   0  0  0  0  0  0  0  0  0  0  0  0
  -29.8440   13.6260  -16.4390 O   0  0  0  0  0  0  0  0  0  0  0  0
  -27.8150   14.6950  -16.8810 O   0  0  0  0  0  0  0  0  0  0  0  0
  -32.2630   12.7470  -17.1200 C   0  0  0  0  0  0  0  0  0  0  0  0
  -31.8580   11.8070  -16.1820 C   0  0  0  0  0  0  0  0  0  0  0  0
  -32.7690   11.3000  -15.2770 C   0  0  0  0  0  0  0  0  0  0  0  0
  -34.0840   11.7270  -15.3050 C   0  0  0  0  0  0  0  0  0  0  0  0
  -34.4910   12.6630  -16.2370 C   0  0  0  0  0  0  0  0  0  0  0  0
  -33.5830   13.1750  -17.1460 C   0  0  0  0  0  0  0  0  0  0  0  0
  -35.0590   11.1820  -14.3330 N   0  0  0  0  0  0  0  0  0  0  0  0
  -34.6820   10.8060  -13.2380 O   0  0  0  0  0  0  0  0  0  0  0  0
  -36.2380   11.1090  -14.6290 O   0  0  0  0  0  0  0  0  0  0  0  0
  -25.8210   15.6660  -18.3530 C   0  0  0  0  0  0  0  0  0  0  0  0
  -27.1840   15.4700  -19.0180 C   0  0  1  0  0  0  0  0  0  0  0  0
  -27.0300   14.6250  -20.2050 N   0  0  0  0  0  0  0  0  0  0  0  0
  -27.6290   14.9790  -21.3260 C   0  0  0  0  0  0  0  0  0  0  0  0
  -27.5050   14.2120  -22.4690 C   0  0  0  0  0  0  0  0  0  0  0  0
  -26.7470   13.0530  -22.4280 C   0  0  0  0  0  0  0  0  0  0  0  0
  -26.1330   12.7070  -21.2290 C   0  0  0  0  0  0  0  0  0  0  0  0
  -25.3810   11.5790  -21.1390 O   0  0  0  0  0  0  0  0  0  0  0  0
  -26.3010   13.5310  -20.1240 C   0  0  0  0  0  0  0  0  0  0  0  0
  1  8  2  0  0  0  0
  2  1  1  0  0  0  0
  2  4  1  0  0  0  0
  3  2  1  0  0  0  0
  4  7  2  0  0  0  0
  5  4  1  0  0  0  0
  5  9  1  0  0  0  0
  6  5  1  0  0  0  0
  9 10  1  0  0  0  0
 10 11  2  0  0  0  0
 12 11  1  0  0  0  0
 12 15  1  0  0  0  0
 13 12  2  0  0  0  0
 14  9  2  0  0  0  0
 14 13  1  0  0  0  0
 15 16  2  0  0  0  0
 17 15  2  0  0  0  0
 19 20  1  6  0  0  0
 19 18  1  0  0  0  0
 19  1  1  0  0  0  0
 20 26  1  0  0  0  0
 21 20  1  0  0  0  0
 22 23  1  0  0  0  0
 22 21  2  0  0  0  0
 23 24  1  0  0  0  0
 24 25  1  0  0  0  0
 24 26  2  0  0  0  0
M  END
>  <MODEL>
1

>  <REMARK>
 VINA RESULT:       6.9      0.000      0.000
  Name = ZINC24962321
                            x       y       z     vdW  Elec       q    Type
                         _______ _______ _______ _____ _____    ______ ____

>  <TORSDO>
F 4

>  <vina_score>
6.9

$$$$
ZINC15686069
 OpenBabel01081722293D

 32 33  0  0  0  0  0  0  0  0999 V2000
  -27.2230   15.0980  -22.6110 C   0  0  0  0  0  0  0  0  0  0  0  0
  -28.3350   14.6220  -21.7130 C   0  0  0  0  0  0  0  0  0  0  0  0
  -29.6530   14.8080  -22.0910 C   0  0  0  0  0  0  0  0  0  0  0  0
  -30.6770   14.3700  -21.2760 C   0  0  0  0  0  0  0  0  0  0  0  0
  -30.3790   13.7490  -20.0610 C   0  0  0  0  0  0  0  0  0  0  0  0
  -29.0470   13.5650  -19.6850 C   0  0  0  0  0  0  0  0  0  0  0  0
  -28.0340   14.0030  -20.5130 C   0  0  0  0  0  0  0  0  0  0  0  0
  -31.4700   13.2830  -19.1790 C   0  0  0  0  0  0  0  0  0  0  0  0
  -31.1990   12.9090  -17.9130 N   0  0  0  0  0  0  0  0  0  0  0  0
  -30.2670   12.8830  -17.5950 H   0  0  0  0  0  0  0  0  0  0  0  0
  -32.6110   13.2360  -19.5950 O   0  0  0  0  0  0  0  0  0  0  0  0
  -32.2370   12.5610  -17.0510 C   0  0  0  0  0  0  0  0  0  0  0  0
  -32.9730   13.5550  -16.4140 C   0  0  0  0  0  0  0  0  0  0  0  0
  -34.0040   13.2150  -15.5670 C   0  0  0  0  0  0  0  0  0  0  0  0
  -34.3030   11.8690  -15.3400 C   0  0  0  0  0  0  0  0  0  0  0  0
  -33.5580   10.8730  -15.9780 C   0  0  0  0  0  0  0  0  0  0  0  0
  -32.5330   11.2200  -16.8270 C   0  0  0  0  0  0  0  0  0  0  0  0
  -35.4030   11.5010  -14.4290 C   0  0  0  0  0  0  0  0  0  0  0  0
  -36.4610   10.8080  -14.8960 O   0  0  0  0  0  0  0  0  0  0  0  0
  -35.3550   11.8200  -13.2580 O   0  0  0  0  0  0  0  0  0  0  0  0
  -26.3520   13.7720  -20.0410 S   0  0  0  0  0  0  0  0  0  0  0  0
  -25.5970   14.7530  -20.7360 O   0  0  0  0  0  0  0  0  0  0  0  0
  -26.0850   12.3800  -20.1570 O   0  0  0  0  0  0  0  0  0  0  0  0
  -26.2400   14.1420  -18.4300 N   0  0  0  0  0  0  0  0  0  0  0  0
  -25.8670   13.1050  -17.4650 C   0  0  0  0  0  0  0  0  0  0  0  0
  -27.1060   12.6720  -16.6770 C   0  0  0  0  0  0  0  0  0  0  0  0
  -28.2250   12.5840  -17.5600 O   0  0  0  0  0  0  0  0  0  0  0  0
  -27.9160   12.6170  -18.4790 H   0  0  0  0  0  0  0  0  0  0  0  0
  -26.5130   15.5070  -17.9710 C   0  0  0  0  0  0  0  0  0  0  0  0
  -27.9810   15.8480  -18.2340 C   0  0  0  0  0  0  0  0  0  0  0  0
  -28.7510   15.5740  -17.0610 O   0  0  0  0  0  0  0  0  0  0  0  0
  -28.9680   14.6300  -17.0300 H   0  0  0  0  0  0  0  0  0  0  0  0
  1  2  1  0  0  0  0
  2  7  1  0  0  0  0
  3  2  2  0  0  0  0
  3  4  1  0  0  0  0
  4  5  2  0  0  0  0
  5  6  1  0  0  0  0
  5  8  1  0  0  0  0
  7 21  1  0  0  0  0
  7  6  2  0  0  0  0
  8  9  1  0  0  0  0
  9 10  1  0  0  0  0
  9 12  1  0  0  0  0
 11  8  2  0  0  0  0
 12 17  2  0  0  0  0
 12 13  1  0  0  0  0
 13 14  2  0  0  0  0
 14 15  1  0  0  0  0
 15 18  1  0  0  0  0
 16 15  2  0  0  0  0
 17 16  1  0  0  0  0
 18 20  1  0  0  0  0
 19 18  2  0  0  0  0
 21 24  1  0  0  0  0
 22 21  2  0  0  0  0
 23 21  2  0  0  0  0
 24 29  1  0  0  0  0
 24 25  1  0  0  0  0
 25 26  1  0  0  0  0
 27 26  1  0  0  0  0
 28 27  1  0  0  0  0
 30 29  1  0  0  0  0
 30 31  1  0  0  0  0
 31 32  1  0  0  0  0
M  END
>  <MODEL>
1

>  <REMARK>
 VINA RESULT:       8.7      0.000      0.000
  Name = ZINC15686069
                            x       y       z     vdW  Elec       q    Type
                         _______ _______ _______ _____ _____    ______ ____

>  <TORSDO>
F 11

>  <vina_score>
8.7

$$$$
ZINC13216929
 OpenBabel01081722153D

 29 30  0  0  0  0  0  0  0  0999 V2000
  -30.7860   12.1110  -17.5360 C   0  0  0  0  0  0  0  0  0  0  0  0
  -30.9230   12.7820  -16.3240 C   0  0  0  0  0  0  0  0  0  0  0  0
  -31.9620   12.4700  -15.4770 C   0  0  0  0  0  0  0  0  0  0  0  0
  -32.8800   11.4790  -15.8340 C   0  0  0  0  0  0  0  0  0  0  0  0
  -32.7370   10.8030  -17.0490 C   0  0  0  0  0  0  0  0  0  0  0  0
  -31.6990   11.1230  -17.8950 C   0  0  0  0  0  0  0  0  0  0  0  0
  -29.8690   13.4310  -19.2830 C   0  0  0  0  0  0  0  0  0  0  0  0
  -29.7330   12.4290  -18.3910 N   0  0  0  0  0  0  0  0  0  0  0  0
  -28.8900   11.9230  -18.3430 H   0  0  0  0  0  0  0  0  0  0  0  0
  -30.8720   14.1190  -19.2770 O   0  0  0  0  0  0  0  0  0  0  0  0
  -29.5390   12.0480  -22.0380 C   0  0  0  0  0  0  0  0  0  0  0  0
  -28.6620   13.0800  -21.4780 N   0  0  0  0  0  0  0  0  0  0  0  0
  -27.5610   13.6050  -22.0650 C   0  0  0  0  0  0  0  0  0  0  0  0
  -27.0500   14.5230  -21.2080 C   0  0  0  0  0  0  0  0  0  0  0  0
  -27.8230   14.5610  -20.1260 N   0  0  0  0  0  0  0  0  0  0  0  0
  -28.8020   13.6930  -20.2650 C   0  0  0  0  0  0  0  0  0  0  0  0
  -25.8410   15.3460  -21.4400 N   0  0  0  0  0  0  0  0  0  0  0  0
  -25.4730   15.5830  -22.5760 O   0  0  0  0  0  0  0  0  0  0  0  0
  -25.2140   15.7870  -20.4920 O   0  0  0  0  0  0  0  0  0  0  0  0
  -33.9960   11.1430  -14.9280 C   0  0  0  0  0  0  0  0  0  0  0  0
  -35.2670   11.2170  -15.3680 N   0  0  0  0  0  0  0  0  0  0  0  0
  -35.4510   11.4900  -16.2960 H   0  0  0  0  0  0  0  0  0  0  0  0
  -33.7670   10.8050  -13.7820 O   0  0  0  0  0  0  0  0  0  0  0  0
  -36.3740   10.8880  -14.4680 C   0  0  0  0  0  0  0  0  0  0  0  0
  -36.3270   11.8050  -13.2430 C   0  0  0  0  0  0  0  0  0  0  0  0
  -35.8670   13.1440  -13.6670 N   0  0  0  0  0  0  0  0  0  0  0  0
  -36.4150   13.8520  -13.1780 H   0  0  0  0  0  0  0  0  0  0  0  0
  -36.0590   13.3070  -15.1230 C   0  0  0  0  0  0  0  0  0  0  0  0
  -34.4400   13.3190  -13.3220 C   0  0  0  0  0  0  0  0  0  0  0  0
  1  2  1  0  0  0  0
  2  3  2  0  0  0  0
  4  3  1  0  0  0  0
  4 20  1  0  0  0  0
  5  4  2  0  0  0  0
  6  1  2  0  0  0  0
  6  5  1  0  0  0  0
  7 10  2  0  0  0  0
  7  8  1  0  0  0  0
  8  9  1  0  0  0  0
  8  1  1  0  0  0  0
 11 12  1  0  0  0  0
 12 16  1  0  0  0  0
 13 12  1  0  0  0  0
 13 14  2  0  0  0  0
 14 15  1  0  0  0  0
 16 15  2  0  0  0  0
 16  7  1  0  0  0  0
 17 14  1  0  0  0  0
 17 19  2  0  0  0  0
 18 17  2  0  0  0  0
 20 23  2  0  0  0  0
 21 20  1  0  0  0  0
 21 24  1  0  0  0  0
 22 21  1  0  0  0  0
 24 25  1  0  0  0  0
 26 29  1  0  0  0  0
 26 25  1  0  0  0  0
 26 27  1  0  0  0  0
 28 26  1  0  0  0  0
M  END
>  <MODEL>
1

>  <REMARK>
 VINA RESULT:      13.1      0.000      0.000
  Name = ZINC13216929
                            x       y       z     vdW  Elec       q    Type
                         _______ _______ _______ _____ _____    ______ ____

>  <TORSDO>
F 7

>  <vina_score>
13.1

$$$$
