ZINC31540682
      BALL 1.4.0 (Jan  4 2012, 23:22:29)

 57 58  0999  0  0  0  0  0  0999 V2000
   10.3626    9.7622    5.0927 C   0  0  0  0  0  0  0  0  0  0  0  0
    9.4979   10.8180    4.8685 C   0  0  0  0  0  0  0  0  0  0  0  0
    9.1022   11.1273    3.5822 C   0  0  0  0  0  0  0  0  0  0  0  0
    9.5738   10.3763    2.5127 C   0  0  0  0  0  0  0  0  0  0  0  0
   10.4421    9.3167    2.7414 C   0  0  0  0  0  0  0  0  0  0  0  0
   10.8297    9.0097    4.0311 C   0  0  0  0  0  0  0  0  0  0  0  0
   10.9559    8.4992    1.5844 C   0  0  0  0  0  0  0  0  0  0  0  0
   11.9823    7.4848    2.0925 C   0  0  0  0  0  0  0  0  0  0  0  0
   12.9917    7.2056    1.0089 C   0  0  0  0  0  0  0  0  0  0  0  0
   12.7093    7.4681   -0.2121 N   0  0  0  0  0  0  0  0  0  0  0  0
   14.3116    6.6272    1.3566 C   0  0  0  0  0  0  0  0  0  0  0  0
   15.3147    7.3040    1.2616 O   0  0  0  0  0  0  0  0  0  0  0  0
   14.3977    5.3510    1.7777 O   0  5  0  0  0  0  0  0  0  0  0  0
    9.1752   10.6861    1.2102 N   0  0  0  0  0  0  0  0  0  0  0  0
    8.4418   11.9260    0.9440 C   0  0  0  0  0  0  0  0  0  0  0  0
    7.2633   11.6317    0.0139 C   0  0  0  0  0  0  0  0  0  0  0  0
    6.8706   10.2271    0.1525 N   0  0  0  0  0  0  0  0  0  0  0  0
    6.1035    9.8412    1.1913 C   0  0  0  0  0  0  0  0  0  0  0  0
    5.7383   10.6567    2.0114 O   0  0  0  0  0  0  0  0  0  0  0  0
    5.6996    8.3964    1.3338 C   0  0  0  0  0  0  0  0  0  0  0  0
    5.3559    7.8247   -0.0432 C   0  0  0  0  0  0  0  0  0  0  0  0
    4.8320    8.8958   -0.9012 N   0  3  0  0  0  0  0  0  0  0  0  0
    9.3622   12.9232    0.2886 C   0  0  0  0  0  0  0  0  0  0  0  0
    9.1622   14.2772    0.4827 C   0  0  0  0  0  0  0  0  0  0  0  0
   10.0102   15.1977   -0.1141 C   0  0  0  0  0  0  0  0  0  0  0  0
   11.0552   14.7579   -0.9178 C   0  0  0  0  0  0  0  0  0  0  0  0
   11.2495   13.3959   -1.1150 C   0  0  0  0  0  0  0  0  0  0  0  0
   10.4007   12.4816   -0.5097 C   0  0  0  0  0  0  0  0  0  0  0  0
   12.2704   12.9606   -1.9009 O   0  0  0  0  0  0  0  0  0  0  0  0
   11.8858   15.6585   -1.5104 O   0  0  0  0  0  0  0  0  0  0  0  0
    9.8159   16.5295    0.0820 O   0  0  0  0  0  0  0  0  0  0  0  0
   10.6794    9.5206    6.1180 H   0  0  0  0  0  0  0  0  0  0  0  0
    9.1249   11.4121    5.7158 H   0  0  0  0  0  0  0  0  0  0  0  0
    8.4144   11.9672    3.4045 H   0  0  0  0  0  0  0  0  0  0  0  0
   11.5109    8.1654    4.2137 H   0  0  0  0  0  0  0  0  0  0  0  0
   10.1180    7.9665    1.1110 H   0  0  0  0  0  0  0  0  0  0  0  0
   11.4315    9.1631    0.8475 H   0  0  0  0  0  0  0  0  0  0  0  0
   11.4711    6.5500    2.3661 H   0  0  0  0  0  0  0  0  0  0  0  0
   12.4962    7.8936    2.9750 H   0  0  0  0  0  0  0  0  0  0  0  0
   11.7923    7.8701   -0.4537 H   0  0  0  0  0  0  0  0  0  0  0  0
    9.3970   10.0427    0.4370 H   0  0  0  0  0  0  0  0  0  0  0  0
    8.0667   12.3408    1.8913 H   0  0  0  0  0  0  0  0  0  0  0  0
    6.4142   12.2775    0.2821 H   0  0  0  0  0  0  0  0  0  0  0  0
    7.5586   11.8280   -1.0274 H   0  0  0  0  0  0  0  0  0  0  0  0
    7.1807    9.5345   -0.5439 H   0  0  0  0  0  0  0  0  0  0  0  0
    6.5315    7.8243    1.7706 H   0  0  0  0  0  0  0  0  0  0  0  0
    4.8199    8.3234    1.9902 H   0  0  0  0  0  0  0  0  0  0  0  0
    6.2616    7.3995   -0.5002 H   0  0  0  0  0  0  0  0  0  0  0  0
    4.5954    7.0374    0.0648 H   0  0  0  0  0  0  0  0  0  0  0  0
    4.7581    8.5554   -1.8705 H   0  0  0  0  0  0  0  0  0  0  0  0
    5.4688    9.7049   -0.8696 H   0  0  0  0  0  0  0  0  0  0  0  0
    3.9004    9.1802   -0.5663 H   0  0  0  0  0  0  0  0  0  0  0  0
    8.3292   14.6248    1.1114 H   0  0  0  0  0  0  0  0  0  0  0  0
   10.5540   11.4035   -0.6650 H   0  0  0  0  0  0  0  0  0  0  0  0
   12.6705   12.2043   -1.4028 H   0  0  0  0  0  0  0  0  0  0  0  0
   11.7292   16.5068   -1.0247 H   0  0  0  0  0  0  0  0  0  0  0  0
    9.5593   16.8830   -0.8064 H   0  0  0  0  0  0  0  0  0  0  0  0
  1  6  2  0  0  0  0
  1  2  1  0  0  0  0
  1 32  1  0  0  0  0
  2  3  2  0  0  0  0
  2 33  1  0  0  0  0
  3  4  1  0  0  0  0
  3 34  1  0  0  0  0
  4  5  2  0  0  0  0
  4 14  1  0  0  0  0
  5  6  1  0  0  0  0
  5  7  1  0  0  0  0
  6 35  1  0  0  0  0
  7  8  1  0  0  0  0
  7 36  1  0  0  0  0
  7 37  1  0  0  0  0
  8  9  1  0  0  0  0
  8 38  1  0  0  0  0
  8 39  1  0  0  0  0
  9 10  2  0  0  0  0
  9 11  1  0  0  0  0
 10 40  1  0  0  0  0
 11 12  2  0  0  0  0
 11 13  1  0  0  0  0
 14 15  1  0  0  0  0
 14 41  1  0  0  0  0
 15 16  1  0  0  0  0
 15 23  1  0  0  0  0
 15 42  1  0  0  0  0
 16 17  1  0  0  0  0
 16 43  1  0  0  0  0
 16 44  1  0  0  0  0
 17 18  1  0  0  0  0
 17 45  1  0  0  0  0
 18 19  2  0  0  0  0
 18 20  1  0  0  0  0
 20 21  1  0  0  0  0
 20 46  1  0  0  0  0
 20 47  1  0  0  0  0
 21 22  1  0  0  0  0
 21 48  1  0  0  0  0
 21 49  1  0  0  0  0
 22 50  1  0  0  0  0
 22 51  1  0  0  0  0
 22 52  1  0  0  0  0
 23 28  2  0  0  0  0
 23 24  1  0  0  0  0
 24 25  2  0  0  0  0
 24 53  1  0  0  0  0
 25 26  1  0  0  0  0
 25 31  1  0  0  0  0
 26 27  2  0  0  0  0
 26 30  1  0  0  0  0
 27 28  1  0  0  0  0
 27 29  1  0  0  0  0
 28 54  1  0  0  0  0
 29 55  1  0  0  0  0
 30 56  1  0  0  0  0
 31 57  1  0  0  0  0
M  END
> <Name>
ZINC31540682

> <reference>
BDB4946

> <quality>
0.739

> <status>
decoy

> <atoms in reference ligand area>
17

> <score>
-49.2221

$$$$
ZINC25820808
      BALL 1.4.0 (Jan  4 2012, 23:22:29)

 53 55  0999  0  0  0  0  0  0999 V2000
    6.5003   12.4168   -1.5116 C   0  0  0  0  0  0  0  0  0  0  0  0
    7.4978   13.2843   -1.9076 C   0  0  0  0  0  0  0  0  0  0  0  0
    8.6984   13.3292   -1.2102 C   0  0  0  0  0  0  0  0  0  0  0  0
    8.8898   12.4883   -0.1017 C   0  0  0  0  0  0  0  0  0  0  0  0
    7.8695   11.6152    0.2859 C   0  0  0  0  0  0  0  0  0  0  0  0
    6.6860   11.5854   -0.4186 C   0  0  0  0  0  0  0  0  0  0  0  0
    5.6071   10.6598   -0.0060 N   0  0  0  0  0  0  0  0  0  0  0  0
    5.1218   10.7481    1.1077 O   0  0  0  0  0  0  0  0  0  0  0  0
    5.2045    9.8100   -0.7801 O   0  0  0  0  0  0  0  0  0  0  0  0
   10.1579   12.5252    0.6465 C   0  0  0  0  0  0  0  0  0  0  0  0
   10.8339   13.5351    0.6471 O   0  0  0  0  0  0  0  0  0  0  0  0
   10.5686   11.4390    1.3306 O   0  0  0  0  0  0  0  0  0  0  0  0
   11.7025   11.6107    2.2212 C   0  0  0  0  0  0  0  0  0  0  0  0
   12.4680   10.3160    2.3151 C   0  0  0  0  0  0  0  0  0  0  0  0
   12.3392    9.4713    1.4537 O   0  0  0  0  0  0  0  0  0  0  0  0
   13.3681   10.0771    3.4474 C   0  0  0  0  0  0  0  0  0  0  0  0
   14.0859   11.0572    4.1744 C   0  0  0  0  0  0  0  0  0  0  0  0
   14.7939   10.4006    5.1355 C   0  0  0  0  0  0  0  0  0  0  0  0
   14.5341    9.0517    5.0220 N   0  0  0  0  0  0  0  0  0  0  0  0
   13.6735    8.8492    4.0136 C   0  0  0  0  0  0  0  0  0  0  0  0
   15.6823   11.0240    6.1247 C   0  0  0  0  0  0  0  0  0  0  0  0
   15.9791   12.1994    6.0204 O   0  0  0  0  0  0  0  0  0  0  0  0
   16.1689   10.2944    7.1480 N   0  0  0  0  0  0  0  0  0  0  0  0
   15.4185    9.2920    7.9184 C   0  0  0  0  0  0  0  0  0  0  0  0
   16.3714    8.7359    8.9974 C   0  0  0  0  0  0  0  0  0  0  0  0
   17.4249    9.8656    9.1431 C   0  0  0  0  0  0  0  0  0  0  0  0
   17.5399   10.3737    7.6843 C   0  0  0  0  0  0  0  0  0  0  0  0
    9.7059   14.1967   -1.6103 N   0  0  0  0  0  0  0  0  0  0  0  0
   10.3661   14.0056   -2.9040 C   0  0  0  0  0  0  0  0  0  0  0  0
   11.2334   12.7461   -2.8530 C   0  0  0  0  0  0  0  0  0  0  0  0
   12.2924   12.9349   -1.9123 O   0  0  0  0  0  0  0  0  0  0  0  0
    5.5515   12.3850   -2.0673 H   0  0  0  0  0  0  0  0  0  0  0  0
    7.3422   13.9408   -2.7762 H   0  0  0  0  0  0  0  0  0  0  0  0
    8.0114   10.9527    1.1525 H   0  0  0  0  0  0  0  0  0  0  0  0
   11.3447   11.8976    3.2210 H   0  0  0  0  0  0  0  0  0  0  0  0
   12.3620   12.3983    1.8278 H   0  0  0  0  0  0  0  0  0  0  0  0
   14.0743   12.1428    3.9969 H   0  0  0  0  0  0  0  0  0  0  0  0
   14.9376    8.3150    5.6181 H   0  0  0  0  0  0  0  0  0  0  0  0
   13.2775    7.8750    3.6909 H   0  0  0  0  0  0  0  0  0  0  0  0
   15.0940    8.4768    7.2548 H   0  0  0  0  0  0  0  0  0  0  0  0
   14.5497    9.7652    8.3991 H   0  0  0  0  0  0  0  0  0  0  0  0
   15.8323    8.5940    9.9457 H   0  0  0  0  0  0  0  0  0  0  0  0
   16.8515    7.8116    8.6438 H   0  0  0  0  0  0  0  0  0  0  0  0
   18.3868    9.4529    9.4816 H   0  0  0  0  0  0  0  0  0  0  0  0
   17.0437   10.6634    9.7976 H   0  0  0  0  0  0  0  0  0  0  0  0
   17.8909   11.4161    7.6763 H   0  0  0  0  0  0  0  0  0  0  0  0
   18.2099    9.7174    7.1096 H   0  0  0  0  0  0  0  0  0  0  0  0
    9.9891   14.9745   -0.9975 H   0  0  0  0  0  0  0  0  0  0  0  0
   10.9994   14.8772   -3.1260 H   0  0  0  0  0  0  0  0  0  0  0  0
    9.6057   13.8948   -3.6911 H   0  0  0  0  0  0  0  0  0  0  0  0
   10.6174   11.8889   -2.5437 H   0  0  0  0  0  0  0  0  0  0  0  0
   11.6587   12.5518   -3.8487 H   0  0  0  0  0  0  0  0  0  0  0  0
   12.7556   12.0736   -1.7583 H   0  0  0  0  0  0  0  0  0  0  0  0
  1  6  2  0  0  0  0
  1  2  1  0  0  0  0
  1 32  1  0  0  0  0
  2  3  2  0  0  0  0
  2 33  1  0  0  0  0
  3  4  1  0  0  0  0
  3 28  1  0  0  0  0
  4  5  2  0  0  0  0
  4 10  1  0  0  0  0
  5  6  1  0  0  0  0
  5 34  1  0  0  0  0
  6  7  1  0  0  0  0
  7  8  2  0  0  0  0
  7  9  2  0  0  0  0
 10 11  2  0  0  0  0
 10 12  1  0  0  0  0
 12 13  1  0  0  0  0
 13 14  1  0  0  0  0
 13 35  1  0  0  0  0
 13 36  1  0  0  0  0
 14 15  2  0  0  0  0
 14 16  1  0  0  0  0
 16 20  2  0  0  0  0
 16 17  1  0  0  0  0
 17 18  2  0  0  0  0
 17 37  1  0  0  0  0
 18 19  1  0  0  0  0
 18 21  1  0  0  0  0
 19 20  1  0  0  0  0
 19 38  1  0  0  0  0
 20 39  1  0  0  0  0
 21 22  2  0  0  0  0
 21 23  1  0  0  0  0
 23 27  1  0  0  0  0
 23 24  1  0  0  0  0
 24 25  1  0  0  0  0
 24 40  1  0  0  0  0
 24 41  1  0  0  0  0
 25 26  1  0  0  0  0
 25 42  1  0  0  0  0
 25 43  1  0  0  0  0
 26 27  1  0  0  0  0
 26 44  1  0  0  0  0
 26 45  1  0  0  0  0
 27 46  1  0  0  0  0
 27 47  1  0  0  0  0
 28 29  1  0  0  0  0
 28 48  1  0  0  0  0
 29 30  1  0  0  0  0
 29 49  1  0  0  0  0
 29 50  1  0  0  0  0
 30 31  1  0  0  0  0
 30 51  1  0  0  0  0
 30 52  1  0  0  0  0
 31 53  1  0  0  0  0
M  END
> <Name>
ZINC25820808

> <reference>
BDB4946

> <quality>
0.739

> <status>
decoy

> <atoms in reference ligand area>
22

> <score>
-47.8481

$$$$
ZINC05382434
      BALL 1.4.0 (Jan  4 2012, 23:22:29)

 36 36  0999  0  0  0  0  0  0999 V2000
    9.8405   15.5497    1.4974 C   0  0  0  0  0  0  0  0  0  0  0  0
    9.3264   14.1398    1.7516 C   0  0  0  0  0  0  0  0  0  0  0  0
    8.6036   13.8726    2.6876 O   0  0  0  0  0  0  0  0  0  0  0  0
    9.7255   13.2257    0.8833 N   0  0  0  0  0  0  0  0  0  0  0  0
   10.5230   13.5003   -0.1657 C   0  0  0  0  0  0  0  0  0  0  0  0
   11.1049   12.4209   -1.3605 S   0  0  0  0  0  0  0  0  0  0  0  0
   10.8323   15.2540   -0.0207 S   0  0  0  0  0  0  0  0  0  0  0  0
    9.2718   11.8452    1.0691 C   0  0  0  0  0  0  0  0  0  0  0  0
    7.1672   10.9341    0.2923 C   0  0  0  0  0  0  0  0  0  0  0  0
    6.9228   11.7017   -1.0084 C   0  0  0  0  0  0  0  0  0  0  0  0
    8.1747   12.5032   -1.3706 C   0  0  0  0  0  0  0  0  0  0  0  0
    7.9303   13.2708   -2.6713 C   0  0  0  0  0  0  0  0  0  0  0  0
    9.0888   13.0178   -3.6382 C   0  0  0  0  0  0  0  0  0  0  0  0
    5.8515   10.4490    0.8442 C   0  0  0  0  0  0  0  0  0  0  0  0
    5.5691   10.6540    2.0010 O   0  0  0  0  0  0  0  0  0  0  0  0
    7.8106   11.8315    1.2704 N   0  3  0  0  0  0  0  0  0  0  0  0
    8.6731   12.0136   -4.6332 N   0  3  0  0  0  0  0  0  0  0  0  0
    4.9932    9.7892    0.0505 O   0  5  0  0  0  0  0  0  0  0  0  0
   10.4959   15.8828    2.3156 H   0  0  0  0  0  0  0  0  0  0  0  0
    9.0104   16.2370    1.2771 H   0  0  0  0  0  0  0  0  0  0  0  0
    9.7668   11.4108    1.9501 H   0  0  0  0  0  0  0  0  0  0  0  0
    9.5241   11.2529    0.1772 H   0  0  0  0  0  0  0  0  0  0  0  0
    7.8205   10.0711    0.0963 H   0  0  0  0  0  0  0  0  0  0  0  0
    6.6967   10.9908   -1.8169 H   0  0  0  0  0  0  0  0  0  0  0  0
    6.0740   12.3887   -0.8761 H   0  0  0  0  0  0  0  0  0  0  0  0
    8.4013   13.2146   -0.5627 H   0  0  0  0  0  0  0  0  0  0  0  0
    9.0244   11.8177   -1.5044 H   0  0  0  0  0  0  0  0  0  0  0  0
    6.9904   12.9280   -3.1285 H   0  0  0  0  0  0  0  0  0  0  0  0
    7.8621   14.3474   -2.4558 H   0  0  0  0  0  0  0  0  0  0  0  0
    9.9597   12.6433   -3.0803 H   0  0  0  0  0  0  0  0  0  0  0  0
    9.3521   13.9552   -4.1502 H   0  0  0  0  0  0  0  0  0  0  0  0
    7.6004   11.5032    2.2238 H   0  0  0  0  0  0  0  0  0  0  0  0
    7.4398   12.7853    1.1529 H   0  0  0  0  0  0  0  0  0  0  0  0
    9.4469   11.8321   -5.2883 H   0  0  0  0  0  0  0  0  0  0  0  0
    7.8543   12.3584   -5.1541 H   0  0  0  0  0  0  0  0  0  0  0  0
    8.4247   11.1384   -4.1501 H   0  0  0  0  0  0  0  0  0  0  0  0
  1  7  1  0  0  0  0
  1  2  1  0  0  0  0
  1 19  1  0  0  0  0
  1 20  1  0  0  0  0
  2  3  2  0  0  0  0
  2  4  1  0  0  0  0
  4  5  1  0  0  0  0
  4  8  1  0  0  0  0
  5  6  2  0  0  0  0
  5  7  1  0  0  0  0
  8 16  1  0  0  0  0
  8 21  1  0  0  0  0
  8 22  1  0  0  0  0
  9 10  1  0  0  0  0
  9 14  1  0  0  0  0
  9 16  1  0  0  0  0
  9 23  1  0  0  0  0
 10 11  1  0  0  0  0
 10 24  1  0  0  0  0
 10 25  1  0  0  0  0
 11 12  1  0  0  0  0
 11 26  1  0  0  0  0
 11 27  1  0  0  0  0
 12 13  1  0  0  0  0
 12 28  1  0  0  0  0
 12 29  1  0  0  0  0
 13 17  1  0  0  0  0
 13 30  1  0  0  0  0
 13 31  1  0  0  0  0
 14 15  2  0  0  0  0
 14 18  1  0  0  0  0
 16 32  1  0  0  0  0
 16 33  1  0  0  0  0
 17 34  1  0  0  0  0
 17 35  1  0  0  0  0
 17 36  1  0  0  0  0
M  END
> <Name>
ZINC05382434

> <reference>
BDB4986

> <quality>
0.763

> <status>
decoy

> <atoms in reference ligand area>
28

> <score>
-43.4029

$$$$
ZINC16955860
      BALL 1.4.0 (Jan  4 2012, 23:22:29)

 34 35  0999  0  0  0  0  0  0999 V2000
    6.3316    7.3598   -1.2436 C   0  0  0  0  0  0  0  0  0  0  0  0
    6.0484    8.7091   -0.5800 C   0  0  0  0  0  0  0  0  0  0  0  0
    6.7305    8.7877    0.8095 C   0  0  0  0  0  0  0  0  0  0  0  0
    6.8877   10.3151    1.0076 C   0  0  0  0  0  0  0  0  0  0  0  0
    6.8062   10.8914   -0.4193 C   0  0  0  0  0  0  0  0  0  0  0  0
    6.6680    9.7828   -1.3238 O   0  0  0  0  0  0  0  0  0  0  0  0
    8.0652   11.6569   -0.7354 C   0  0  0  0  0  0  0  0  0  0  0  0
    8.1509   12.8185   -1.5202 C   0  0  0  0  0  0  0  0  0  0  0  0
    9.5022   13.1534   -1.5284 C   0  0  0  0  0  0  0  0  0  0  0  0
   10.1322   12.2038   -0.7620 N   0  0  0  0  0  0  0  0  0  0  0  0
    9.2695   11.3598   -0.3238 N   0  0  0  0  0  0  0  0  0  0  0  0
   10.1243   14.2905   -2.2101 C   0  0  0  0  0  0  0  0  0  0  0  0
    9.7547   14.6077   -3.3256 O   0  0  0  0  0  0  0  0  0  0  0  0
   11.1022   14.9891   -1.6001 N   0  0  0  0  0  0  0  0  0  0  0  0
   10.8643   16.2631   -1.1686 N   0  0  0  0  0  0  0  0  0  0  0  0
    7.1083   13.4897   -2.1560 N   0  0  0  0  0  0  0  0  0  0  0  0
    5.8254   10.8267    1.8150 O   0  0  0  0  0  0  0  0  0  0  0  0
    8.0054    8.1424    0.7891 O   0  0  0  0  0  0  0  0  0  0  0  0
    7.7433    7.1461   -1.3048 O   0  0  0  0  0  0  0  0  0  0  0  0
    5.9166    7.3566   -2.2623 H   0  0  0  0  0  0  0  0  0  0  0  0
    5.8649    6.5564   -0.6550 H   0  0  0  0  0  0  0  0  0  0  0  0
    4.9535    8.8009   -0.5263 H   0  0  0  0  0  0  0  0  0  0  0  0
    6.1637    8.2918    1.6112 H   0  0  0  0  0  0  0  0  0  0  0  0
    7.8252   10.5809    1.5181 H   0  0  0  0  0  0  0  0  0  0  0  0
    5.9522   11.5783   -0.5128 H   0  0  0  0  0  0  0  0  0  0  0  0
   11.1434   12.1732   -0.5681 H   0  0  0  0  0  0  0  0  0  0  0  0
   12.0290   14.5623   -1.4593 H   0  0  0  0  0  0  0  0  0  0  0  0
   10.1828   16.8557   -1.6637 H   0  0  0  0  0  0  0  0  0  0  0  0
   11.3665   16.6312   -0.3480 H   0  0  0  0  0  0  0  0  0  0  0  0
    6.5556   14.1049   -1.5422 H   0  0  0  0  0  0  0  0  0  0  0  0
    6.8910   13.3925   -3.1581 H   0  0  0  0  0  0  0  0  0  0  0  0
    6.1876   11.0873    2.6988 H   0  0  0  0  0  0  0  0  0  0  0  0
    8.5779    8.5855    0.1137 H   0  0  0  0  0  0  0  0  0  0  0  0
    8.1824    7.9448   -1.6913 H   0  0  0  0  0  0  0  0  0  0  0  0
  1  2  1  0  0  0  0
  1 19  1  0  0  0  0
  1 20  1  0  0  0  0
  1 21  1  0  0  0  0
  2  6  1  0  0  0  0
  2  3  1  0  0  0  0
  2 22  1  0  0  0  0
  3  4  1  0  0  0  0
  3 18  1  0  0  0  0
  3 23  1  0  0  0  0
  4  5  1  0  0  0  0
  4 17  1  0  0  0  0
  4 24  1  0  0  0  0
  5  6  1  0  0  0  0
  5  7  1  0  0  0  0
  5 25  1  0  0  0  0
  7 11  2  0  0  0  0
  7  8  1  0  0  0  0
  8  9  2  0  0  0  0
  8 16  1  0  0  0  0
  9 10  1  0  0  0  0
  9 12  1  0  0  0  0
 10 11  1  0  0  0  0
 10 26  1  0  0  0  0
 12 13  2  0  0  0  0
 12 14  1  0  0  0  0
 14 15  1  0  0  0  0
 14 27  1  0  0  0  0
 15 28  1  0  0  0  0
 15 29  1  0  0  0  0
 16 30  1  0  0  0  0
 16 31  1  0  0  0  0
 17 32  1  0  0  0  0
 18 33  1  0  0  0  0
 19 34  1  0  0  0  0
M  END
> <Name>
ZINC16955860

> <reference>
BDB5008

> <quality>
0.698

> <status>
decoy

> <atoms in reference ligand area>
18

> <score>
-43.0201

$$$$
ZINC32067408
      BALL 1.4.0 (Jan  4 2012, 23:22:29)

 38 40  0999  0  0  0  0  0  0999 V2000
    8.3668    9.9290    1.7778 C   0  0  0  0  0  0  0  0  0  0  0  0
    7.4055   10.3329    0.8957 C   0  0  0  0  0  0  0  0  0  0  0  0
    8.0457   11.3194    0.0185 C   0  0  0  0  0  0  0  0  0  0  0  0
    7.6057   12.1354   -1.1145 C   0  0  0  0  0  0  0  0  0  0  0  0
    6.3734   12.0766   -1.5626 N   0  0  0  0  0  0  0  0  0  0  0  0
    8.5443   12.9727   -1.6918 N   0  0  0  0  0  0  0  0  0  0  0  0
    9.8097   13.0026   -1.1962 C   0  0  0  0  0  0  0  0  0  0  0  0
   10.1949   12.2762   -0.1909 N   0  0  0  0  0  0  0  0  0  0  0  0
    9.3674   11.4281    0.4469 C   0  0  0  0  0  0  0  0  0  0  0  0
    9.5283   10.5756    1.5047 N   0  0  0  0  0  0  0  0  0  0  0  0
   10.7794   10.3909    2.2441 C   0  0  0  0  0  0  0  0  0  0  0  0
   11.9829   10.3149    1.2703 C   0  0  0  0  0  0  0  0  0  0  0  0
   13.1590   10.7609    2.1729 C   0  0  0  0  0  0  0  0  0  0  0  0
   12.4816   11.5322    3.3222 C   0  0  0  0  0  0  0  0  0  0  0  0
   11.0685   11.5517    3.0525 O   0  0  0  0  0  0  0  0  0  0  0  0
   13.0221   12.9624    3.3785 C   0  0  0  0  0  0  0  0  0  0  0  0
   12.4765   13.6334    4.5160 O   0  0  0  0  0  0  0  0  0  0  0  0
   13.8604    9.6234    2.6789 O   0  0  0  0  0  0  0  0  0  0  0  0
   12.1771    8.9786    0.8029 O   0  0  0  0  0  0  0  0  0  0  0  0
    8.1894   13.7912   -2.7914 O   0  0  0  0  0  0  0  0  0  0  0  0
    6.0083    9.8757    0.8404 C   0  0  0  0  0  0  0  0  0  0  0  0
    5.7527    8.7441    0.4742 O   0  0  0  0  0  0  0  0  0  0  0  0
    5.0119   10.7087    1.2006 N   0  0  0  0  0  0  0  0  0  0  0  0
    8.2221    9.1943    2.5836 H   0  0  0  0  0  0  0  0  0  0  0  0
    5.7064   11.4405   -1.1028 H   0  0  0  0  0  0  0  0  0  0  0  0
   10.5419   13.6737   -1.6689 H   0  0  0  0  0  0  0  0  0  0  0  0
   10.6518    9.4750    2.8399 H   0  0  0  0  0  0  0  0  0  0  0  0
   11.8608   10.9274    0.3649 H   0  0  0  0  0  0  0  0  0  0  0  0
   13.8988   11.3703    1.6330 H   0  0  0  0  0  0  0  0  0  0  0  0
   12.6859   11.0492    4.2891 H   0  0  0  0  0  0  0  0  0  0  0  0
   14.1188   12.9371    3.4595 H   0  0  0  0  0  0  0  0  0  0  0  0
   12.7344   13.5006    2.4633 H   0  0  0  0  0  0  0  0  0  0  0  0
   12.8256   14.5591    4.5531 H   0  0  0  0  0  0  0  0  0  0  0  0
   14.8290    9.7399    2.5112 H   0  0  0  0  0  0  0  0  0  0  0  0
   11.5232    8.7929    0.0832 H   0  0  0  0  0  0  0  0  0  0  0  0
    7.5250   13.2610   -3.2989 H   0  0  0  0  0  0  0  0  0  0  0  0
    4.0908   10.3278    1.4602 H   0  0  0  0  0  0  0  0  0  0  0  0
    5.1715   11.7261    1.2163 H   0  0  0  0  0  0  0  0  0  0  0  0
  1 10  1  0  0  0  0
  1  2  2  0  0  0  0
  1 24  1  0  0  0  0
  2  3  1  0  0  0  0
  2 21  1  0  0  0  0
  3  9  2  0  0  0  0
  3  4  1  0  0  0  0
  4  5  2  0  0  0  0
  4  6  1  0  0  0  0
  5 25  1  0  0  0  0
  6  7  1  0  0  0  0
  6 20  1  0  0  0  0
  7  8  2  0  0  0  0
  7 26  1  0  0  0  0
  8  9  1  0  0  0  0
  9 10  1  0  0  0  0
 10 11  1  0  0  0  0
 11 15  1  0  0  0  0
 11 12  1  0  0  0  0
 11 27  1  0  0  0  0
 12 13  1  0  0  0  0
 12 19  1  0  0  0  0
 12 28  1  0  0  0  0
 13 14  1  0  0  0  0
 13 18  1  0  0  0  0
 13 29  1  0  0  0  0
 14 15  1  0  0  0  0
 14 16  1  0  0  0  0
 14 30  1  0  0  0  0
 16 17  1  0  0  0  0
 16 31  1  0  0  0  0
 16 32  1  0  0  0  0
 17 33  1  0  0  0  0
 18 34  1  0  0  0  0
 19 35  1  0  0  0  0
 20 36  1  0  0  0  0
 21 22  2  0  0  0  0
 21 23  1  0  0  0  0
 23 37  1  0  0  0  0
 23 38  1  0  0  0  0
M  END
> <Name>
ZINC32067408

> <reference>
BDB4977

> <quality>
0.666

> <status>
decoy

> <atoms in reference ligand area>
19

> <score>
-42.9954

$$$$
ZINC27646493
      BALL 1.4.0 (Jan  4 2012, 23:22:29)

 43 44  0999  0  0  0  0  0  0999 V2000
    8.9479   14.1770    2.1905 C   0  0  0  0  0  0  0  0  0  0  0  0
    7.8664   13.1676    2.4796 C   0  0  0  0  0  0  0  0  0  0  0  0
    8.5397   11.8050    2.8314 C   0  0  0  0  0  0  0  0  0  0  0  0
    9.4405   12.0952    4.0297 C   0  0  0  0  0  0  0  0  0  0  0  0
   10.2412   13.6507    3.4093 S   0  0  0  0  0  0  0  0  0  0  0  0
   10.4674   10.9815    4.2435 C   0  0  0  0  0  0  0  0  0  0  0  0
   11.7798   11.3584    3.5534 C   0  0  0  0  0  0  0  0  0  0  0  0
   12.8067   10.2445    3.7672 C   0  0  0  0  0  0  0  0  0  0  0  0
   13.6031   10.0308    2.4784 C   0  0  0  0  0  0  0  0  0  0  0  0
   13.4138    8.6144    1.9999 C   0  0  0  0  0  0  0  0  0  0  0  0
   13.2114    7.7259    2.8003 O   0  0  0  0  0  0  0  0  0  0  0  0
   13.4694    8.3350    0.6826 N   0  0  0  0  0  0  0  0  0  0  0  0
   12.8972    7.1539    0.1923 N   0  0  0  0  0  0  0  0  0  0  0  0
   12.9528    6.8745   -1.1250 C   0  0  0  0  0  0  0  0  0  0  0  0
   12.3070    5.9527   -1.5771 O   0  0  0  0  0  0  0  0  0  0  0  0
   13.8173    7.7071   -2.0361 C   0  0  0  0  0  0  0  0  0  0  0  0
   13.5346    7.3741   -3.3967 O   0  0  0  0  0  0  0  0  0  0  0  0
   14.5924    7.7522   -4.3341 N   0  0  0  0  0  0  0  0  0  0  0  0
    7.3434   11.0014    2.9426 N   0  0  0  0  0  0  0  0  0  0  0  0
    6.4722   11.4951    2.0314 C   0  0  0  0  0  0  0  0  0  0  0  0
    5.4692   10.9138    1.6647 O   0  0  0  0  0  0  0  0  0  0  0  0
    6.8375   12.7347    1.5812 N   0  0  0  0  0  0  0  0  0  0  0  0
    8.6058   15.1961    2.4238 H   0  0  0  0  0  0  0  0  0  0  0  0
    9.3287   14.0609    1.1650 H   0  0  0  0  0  0  0  0  0  0  0  0
    7.3343   13.7922    3.2122 H   0  0  0  0  0  0  0  0  0  0  0  0
    9.2384   11.2752    2.1673 H   0  0  0  0  0  0  0  0  0  0  0  0
    8.9317   12.1747    5.0017 H   0  0  0  0  0  0  0  0  0  0  0  0
   10.6453   10.8485    5.3208 H   0  0  0  0  0  0  0  0  0  0  0  0
   10.0858   10.0424    3.8162 H   0  0  0  0  0  0  0  0  0  0  0  0
   11.6027   11.4911    2.4759 H   0  0  0  0  0  0  0  0  0  0  0  0
   12.1635   12.2968    3.9803 H   0  0  0  0  0  0  0  0  0  0  0  0
   13.4928   10.5290    4.5787 H   0  0  0  0  0  0  0  0  0  0  0  0
   12.2878    9.3124    4.0355 H   0  0  0  0  0  0  0  0  0  0  0  0
   14.6708   10.2122    2.6715 H   0  0  0  0  0  0  0  0  0  0  0  0
   13.2462   10.7288    1.7067 H   0  0  0  0  0  0  0  0  0  0  0  0
   13.9327    8.9898    0.0364 H   0  0  0  0  0  0  0  0  0  0  0  0
   12.4339    6.4992    0.8386 H   0  0  0  0  0  0  0  0  0  0  0  0
   13.6060    8.7735   -1.8687 H   0  0  0  0  0  0  0  0  0  0  0  0
   14.8775    7.5055   -1.8228 H   0  0  0  0  0  0  0  0  0  0  0  0
   14.2267    8.5124   -4.9250 H   0  0  0  0  0  0  0  0  0  0  0  0
   14.7827    6.9363   -4.9333 H   0  0  0  0  0  0  0  0  0  0  0  0
    7.1856   10.2124    3.5855 H   0  0  0  0  0  0  0  0  0  0  0  0
    6.4558   13.2455    0.7724 H   0  0  0  0  0  0  0  0  0  0  0  0
  1  5  1  0  0  0  0
  1  2  1  0  0  0  0
  1 23  1  0  0  0  0
  1 24  1  0  0  0  0
  2 22  1  0  0  0  0
  2  3  1  0  0  0  0
  2 25  1  0  0  0  0
  3  4  1  0  0  0  0
  3 19  1  0  0  0  0
  3 26  1  0  0  0  0
  4  5  1  0  0  0  0
  4  6  1  0  0  0  0
  4 27  1  0  0  0  0
  6  7  1  0  0  0  0
  6 28  1  0  0  0  0
  6 29  1  0  0  0  0
  7  8  1  0  0  0  0
  7 30  1  0  0  0  0
  7 31  1  0  0  0  0
  8  9  1  0  0  0  0
  8 32  1  0  0  0  0
  8 33  1  0  0  0  0
  9 10  1  0  0  0  0
  9 34  1  0  0  0  0
  9 35  1  0  0  0  0
 10 11  2  0  0  0  0
 10 12  1  0  0  0  0
 12 13  1  0  0  0  0
 12 36  1  0  0  0  0
 13 14  1  0  0  0  0
 13 37  1  0  0  0  0
 14 15  2  0  0  0  0
 14 16  1  0  0  0  0
 16 17  1  0  0  0  0
 16 38  1  0  0  0  0
 16 39  1  0  0  0  0
 17 18  1  0  0  0  0
 18 40  1  0  0  0  0
 18 41  1  0  0  0  0
 19 20  1  0  0  0  0
 19 42  1  0  0  0  0
 20 21  2  0  0  0  0
 20 22  1  0  0  0  0
 22 43  1  0  0  0  0
M  END
> <Name>
ZINC27646493

> <reference>
BDB5024

> <quality>
0.690

> <status>
decoy

> <atoms in reference ligand area>
17

> <score>
-42.7781

$$$$
ZINC29665193
      BALL 1.4.0 (Jan  4 2012, 23:22:29)

 48 51  0999  0  0  0  0  0  0999 V2000
    8.5731   14.8454    2.0661 C   0  0  0  0  0  0  0  0  0  0  0  0
    8.8979   13.4752    2.0823 C   0  0  0  0  0  0  0  0  0  0  0  0
    8.4840   12.9881    3.2857 C   0  0  0  0  0  0  0  0  0  0  0  0
    7.9389   14.0046    3.9830 O   0  0  0  0  0  0  0  0  0  0  0  0
    7.9914   15.1282    3.2486 C   0  0  0  0  0  0  0  0  0  0  0  0
    8.6149   11.5970    3.7460 C   0  0  0  0  0  0  0  0  0  0  0  0
    9.0280   11.2003    4.9297 N   0  0  0  0  0  0  0  0  0  0  0  0
    9.0127    9.9168    4.9920 N   0  0  0  0  0  0  0  0  0  0  0  0
    8.5989    9.4132    3.8510 C   0  0  0  0  0  0  0  0  0  0  0  0
    8.3272   10.4628    3.0188 N   0  0  0  0  0  0  0  0  0  0  0  0
    7.8335   10.3958    1.6410 C   0  0  0  0  0  0  0  0  0  0  0  0
    6.3035   10.4064    1.6466 C   0  0  0  0  0  0  0  0  0  0  0  0
    5.7972   10.5848    0.2385 C   0  0  0  0  0  0  0  0  0  0  0  0
    6.5257   11.0473   -0.6138 O   0  0  0  0  0  0  0  0  0  0  0  0
    4.5350   10.2306   -0.0738 N   0  0  0  0  0  0  0  0  0  0  0  0
    8.4201    7.7027    3.4678 S   0  0  0  0  0  0  0  0  0  0  0  0
    7.2214    7.2203    4.7352 C   0  0  0  0  0  0  0  0  0  0  0  0
    5.8951    6.9219    4.0847 C   0  0  0  0  0  0  0  0  0  0  0  0
    5.8153    6.8472    2.8767 O   0  0  0  0  0  0  0  0  0  0  0  0
    4.7978    6.7378    4.8452 N   0  0  0  0  0  0  0  0  0  0  0  0
    3.5896    6.3521    4.2500 C   0  0  0  0  0  0  0  0  0  0  0  0
    3.5764    5.3428    3.2967 C   0  0  0  0  0  0  0  0  0  0  0  0
    2.3823    4.9624    2.7085 C   0  0  0  0  0  0  0  0  0  0  0  0
    1.1947    5.5896    3.0793 C   0  0  0  0  0  0  0  0  0  0  0  0
    1.2131    6.5999    4.0266 C   0  0  0  0  0  0  0  0  0  0  0  0
    2.4058    6.9793    4.6130 C   0  0  0  0  0  0  0  0  0  0  0  0
    2.4206    8.0554    5.6293 N   0  0  0  0  0  0  0  0  0  0  0  0
    3.4733    8.5801    5.9455 O   0  0  0  0  0  0  0  0  0  0  0  0
    1.3799    8.4163    6.1493 O   0  0  0  0  0  0  0  0  0  0  0  0
    0.1703    5.0436    2.3593 O   0  0  0  0  0  0  0  0  0  0  0  0
    0.7951    4.3558    1.2594 C   0  0  0  0  0  0  0  0  0  0  0  0
    2.1004    4.0177    1.7643 O   0  0  0  0  0  0  0  0  0  0  0  0
    8.7591   15.5516    1.2436 H   0  0  0  0  0  0  0  0  0  0  0  0
    9.3905   12.9079    1.2789 H   0  0  0  0  0  0  0  0  0  0  0  0
    7.6208   16.1157    3.5606 H   0  0  0  0  0  0  0  0  0  0  0  0
    8.2035   11.2641    1.0761 H   0  0  0  0  0  0  0  0  0  0  0  0
    8.1913    9.4701    1.1667 H   0  0  0  0  0  0  0  0  0  0  0  0
    5.9437   11.2361    2.2728 H   0  0  0  0  0  0  0  0  0  0  0  0
    5.9316    9.4535    2.0514 H   0  0  0  0  0  0  0  0  0  0  0  0
    4.2358   10.2061   -1.0591 H   0  0  0  0  0  0  0  0  0  0  0  0
    3.8694    9.9844    0.6728 H   0  0  0  0  0  0  0  0  0  0  0  0
    7.0986    8.0415    5.4567 H   0  0  0  0  0  0  0  0  0  0  0  0
    7.5826    6.3229    5.2589 H   0  0  0  0  0  0  0  0  0  0  0  0
    4.8475    6.8808    5.8641 H   0  0  0  0  0  0  0  0  0  0  0  0
    4.5145    4.8456    3.0088 H   0  0  0  0  0  0  0  0  0  0  0  0
    0.2768    7.1013    4.3128 H   0  0  0  0  0  0  0  0  0  0  0  0
    0.2342    3.4418    1.0143 H   0  0  0  0  0  0  0  0  0  0  0  0
    0.8856    5.0266    0.3922 H   0  0  0  0  0  0  0  0  0  0  0  0
  1  5  2  0  0  0  0
  1  2  1  0  0  0  0
  1 33  1  0  0  0  0
  2  3  2  0  0  0  0
  2 34  1  0  0  0  0
  3  4  1  0  0  0  0
  3  6  1  0  0  0  0
  4  5  1  0  0  0  0
  5 35  1  0  0  0  0
  6 10  1  0  0  0  0
  6  7  2  0  0  0  0
  7  8  1  0  0  0  0
  8  9  2  0  0  0  0
  9 10  1  0  0  0  0
  9 16  1  0  0  0  0
 10 11  1  0  0  0  0
 11 12  1  0  0  0  0
 11 36  1  0  0  0  0
 11 37  1  0  0  0  0
 12 13  1  0  0  0  0
 12 38  1  0  0  0  0
 12 39  1  0  0  0  0
 13 14  2  0  0  0  0
 13 15  1  0  0  0  0
 15 40  1  0  0  0  0
 15 41  1  0  0  0  0
 16 17  1  0  0  0  0
 17 18  1  0  0  0  0
 17 42  1  0  0  0  0
 17 43  1  0  0  0  0
 18 19  2  0  0  0  0
 18 20  1  0  0  0  0
 20 21  1  0  0  0  0
 20 44  1  0  0  0  0
 21 26  2  0  0  0  0
 21 22  1  0  0  0  0
 22 23  2  0  0  0  0
 22 45  1  0  0  0  0
 23 32  1  0  0  0  0
 23 24  1  0  0  0  0
 24 25  2  0  0  0  0
 24 30  1  0  0  0  0
 25 26  1  0  0  0  0
 25 46  1  0  0  0  0
 26 27  1  0  0  0  0
 27 28  2  0  0  0  0
 27 29  2  0  0  0  0
 30 31  1  0  0  0  0
 31 32  1  0  0  0  0
 31 47  1  0  0  0  0
 31 48  1  0  0  0  0
M  END
> <Name>
ZINC29665193

> <reference>
BDB4972

> <quality>
0.679

> <status>
decoy

> <atoms in reference ligand area>
12

> <score>
-41.0559

$$$$
ZINC26490873
      BALL 1.4.0 (Jan  4 2012, 23:22:29)

 41 42  0999  0  0  0  0  0  0999 V2000
    7.1949   11.0295   -0.4260 C   0  0  0  0  0  0  0  0  0  0  0  0
    8.2864   11.5577    0.1766 C   0  0  0  0  0  0  0  0  0  0  0  0
    8.4582   11.3820    1.5169 N   0  0  0  0  0  0  0  0  0  0  0  0
    7.5556   10.6864    2.2326 C   0  0  0  0  0  0  0  0  0  0  0  0
    7.7279   10.5347    3.4307 O   0  0  0  0  0  0  0  0  0  0  0  0
    6.4742   10.1656    1.6552 N   0  0  0  0  0  0  0  0  0  0  0  0
    6.2651   10.3110    0.3533 C   0  0  0  0  0  0  0  0  0  0  0  0
    5.1476    9.7635   -0.2332 N   0  0  0  0  0  0  0  0  0  0  0  0
    9.6348   11.9482    2.1812 C   0  0  0  0  0  0  0  0  0  0  0  0
   10.2366   13.0866    1.3002 C   0  0  0  0  0  0  0  0  0  0  0  0
   11.9413   13.1091    2.0115 S   0  0  0  0  0  0  0  0  0  0  0  0
   11.9100   11.4345    2.7792 C   0  0  0  0  0  0  0  0  0  0  0  0
   10.6237   10.9254    2.3559 O   0  0  0  0  0  0  0  0  0  0  0  0
   13.0453   10.5650    2.2352 C   0  0  0  0  0  0  0  0  0  0  0  0
   12.4958    9.5396    1.3662 O   0  0  0  0  0  0  0  0  0  0  0  0
   13.0374    8.3112    1.4526 C   0  0  0  0  0  0  0  0  0  0  0  0
   12.8520    7.6342    2.4435 O   0  0  0  0  0  0  0  0  0  0  0  0
   13.7845    7.8328    0.4412 O   0  0  0  0  0  0  0  0  0  0  0  0
   13.2188    7.9172   -0.8934 C   0  0  0  0  0  0  0  0  0  0  0  0
   14.2916    7.5635   -1.9253 C   0  0  0  0  0  0  0  0  0  0  0  0
   14.0158    8.3188   -3.2270 C   0  0  0  0  0  0  0  0  0  0  0  0
   15.2850    8.5846   -3.9173 N   0  3  0  0  0  0  0  0  0  0  0  0
    7.0361   11.1589   -1.5067 H   0  0  0  0  0  0  0  0  0  0  0  0
    9.0264   12.1224   -0.4095 H   0  0  0  0  0  0  0  0  0  0  0  0
    5.1294    9.6018   -1.2503 H   0  0  0  0  0  0  0  0  0  0  0  0
    4.3308    9.5156    0.3432 H   0  0  0  0  0  0  0  0  0  0  0  0
    9.3373   12.3527    3.1598 H   0  0  0  0  0  0  0  0  0  0  0  0
    9.7351   14.0460    1.4950 H   0  0  0  0  0  0  0  0  0  0  0  0
   10.2743   12.7897    0.2417 H   0  0  0  0  0  0  0  0  0  0  0  0
   12.0435   11.4460    3.8710 H   0  0  0  0  0  0  0  0  0  0  0  0
   13.7462   11.1918    1.6643 H   0  0  0  0  0  0  0  0  0  0  0  0
   13.5773   10.0889    3.0721 H   0  0  0  0  0  0  0  0  0  0  0  0
   12.3794    7.2116   -0.9814 H   0  0  0  0  0  0  0  0  0  0  0  0
   12.8585    8.9403   -1.0762 H   0  0  0  0  0  0  0  0  0  0  0  0
   15.2809    7.8495   -1.5387 H   0  0  0  0  0  0  0  0  0  0  0  0
   14.2726    6.4810   -2.1194 H   0  0  0  0  0  0  0  0  0  0  0  0
   13.5159    9.2721   -3.0002 H   0  0  0  0  0  0  0  0  0  0  0  0
   13.3675    7.7098   -3.8742 H   0  0  0  0  0  0  0  0  0  0  0  0
   15.8306    7.7134   -3.9821 H   0  0  0  0  0  0  0  0  0  0  0  0
   15.8228    9.2875   -3.3905 H   0  0  0  0  0  0  0  0  0  0  0  0
   15.0933    8.9397   -4.8649 H   0  0  0  0  0  0  0  0  0  0  0  0
  1  7  1  0  0  0  0
  1  2  2  0  0  0  0
  1 23  1  0  0  0  0
  2  3  1  0  0  0  0
  2 24  1  0  0  0  0
  3  4  1  0  0  0  0
  3  9  1  0  0  0  0
  4  5  2  0  0  0  0
  4  6  1  0  0  0  0
  6  7  2  0  0  0  0
  7  8  1  0  0  0  0
  8 25  1  0  0  0  0
  8 26  1  0  0  0  0
  9 13  1  0  0  0  0
  9 10  1  0  0  0  0
  9 27  1  0  0  0  0
 10 11  1  0  0  0  0
 10 28  1  0  0  0  0
 10 29  1  0  0  0  0
 11 12  1  0  0  0  0
 12 13  1  0  0  0  0
 12 14  1  0  0  0  0
 12 30  1  0  0  0  0
 14 15  1  0  0  0  0
 14 31  1  0  0  0  0
 14 32  1  0  0  0  0
 15 16  1  0  0  0  0
 16 17  2  0  0  0  0
 16 18  1  0  0  0  0
 18 19  1  0  0  0  0
 19 20  1  0  0  0  0
 19 33  1  0  0  0  0
 19 34  1  0  0  0  0
 20 21  1  0  0  0  0
 20 35  1  0  0  0  0
 20 36  1  0  0  0  0
 21 22  1  0  0  0  0
 21 37  1  0  0  0  0
 21 38  1  0  0  0  0
 22 39  1  0  0  0  0
 22 40  1  0  0  0  0
 22 41  1  0  0  0  0
M  END
> <Name>
ZINC26490873

> <reference>
BDB5024

> <quality>
0.795

> <status>
decoy

> <atoms in reference ligand area>
17

> <score>
-40.9748

$$$$
ZINC04593373
      BALL 1.4.0 (Jan  4 2012, 23:22:29)

 50 51  0999  0  0  0  0  0  0999 V2000
    9.1754   13.1033   -4.2663 C   0  0  0  0  0  0  0  0  0  0  0  0
    8.7106   14.4553   -3.7180 C   0  0  0  0  0  0  0  0  0  0  0  0
    8.5734   14.3634   -2.1964 C   0  0  0  0  0  0  0  0  0  0  0  0
   10.3118   12.6787   -2.0840 C   0  0  0  0  0  0  0  0  0  0  0  0
   10.5008   12.7204   -3.6020 C   0  0  0  0  0  0  0  0  0  0  0  0
    9.8089   14.0326   -0.1411 C   0  0  0  0  0  0  0  0  0  0  0  0
   11.0719   13.4239    0.4724 C   0  0  0  0  0  0  0  0  0  0  0  0
   10.9742   13.4869    1.9999 C   0  0  0  0  0  0  0  0  0  0  0  0
    9.7255   12.8374    2.4211 N   0  0  0  0  0  0  0  0  0  0  0  0
    8.4599   13.2852    1.8240 C   0  0  0  0  0  0  0  0  0  0  0  0
    8.5858   13.2245    0.2984 C   0  0  0  0  0  0  0  0  0  0  0  0
    9.7406   11.8492    3.3375 C   0  0  0  0  0  0  0  0  0  0  0  0
   10.7950   11.3640    3.6889 O   0  0  0  0  0  0  0  0  0  0  0  0
    8.4470   11.3472    3.9256 C   0  0  0  0  0  0  0  0  0  0  0  0
    8.0388   10.0490    3.2264 C   0  0  0  0  0  0  0  0  0  0  0  0
    7.3790   10.3775    1.8856 C   0  0  0  0  0  0  0  0  0  0  0  0
    5.9070   10.0631    1.9598 C   0  0  0  0  0  0  0  0  0  0  0  0
    5.5140    9.1771    2.6812 O   0  0  0  0  0  0  0  0  0  0  0  0
    9.6622   15.4585    0.3240 C   0  0  0  0  0  0  0  0  0  0  0  0
   10.2264   15.8288    1.3317 O   0  0  0  0  0  0  0  0  0  0  0  0
    8.9037   16.3222   -0.3797 N   0  0  0  0  0  0  0  0  0  0  0  0
    9.8881   14.0157   -1.6163 N   0  3  0  0  0  0  0  0  0  0  0  0
    5.0324   10.7674    1.2243 O   0  5  0  0  0  0  0  0  0  0  0  0
    9.3178   13.1780   -5.3545 H   0  0  0  0  0  0  0  0  0  0  0  0
    8.4174   12.3376   -4.0447 H   0  0  0  0  0  0  0  0  0  0  0  0
    7.7371   14.7163   -4.1586 H   0  0  0  0  0  0  0  0  0  0  0  0
    9.4497   15.2290   -3.9733 H   0  0  0  0  0  0  0  0  0  0  0  0
    8.2405   15.3330   -1.7977 H   0  0  0  0  0  0  0  0  0  0  0  0
    7.8405   13.5848   -1.9383 H   0  0  0  0  0  0  0  0  0  0  0  0
   11.2614   12.4047   -1.6013 H   0  0  0  0  0  0  0  0  0  0  0  0
    9.5390   11.9384   -1.8295 H   0  0  0  0  0  0  0  0  0  0  0  0
   10.8179   11.7297   -3.9593 H   0  0  0  0  0  0  0  0  0  0  0  0
   11.2686   13.4663   -3.8552 H   0  0  0  0  0  0  0  0  0  0  0  0
   11.9535   13.9906    0.1380 H   0  0  0  0  0  0  0  0  0  0  0  0
   11.1661   12.3752    0.1541 H   0  0  0  0  0  0  0  0  0  0  0  0
   11.8313   12.9609    2.4459 H   0  0  0  0  0  0  0  0  0  0  0  0
   10.9709   14.5372    2.3269 H   0  0  0  0  0  0  0  0  0  0  0  0
    7.6435   12.6250    2.1521 H   0  0  0  0  0  0  0  0  0  0  0  0
    8.2501   14.3194    2.1345 H   0  0  0  0  0  0  0  0  0  0  0  0
    7.6810   13.6487   -0.1613 H   0  0  0  0  0  0  0  0  0  0  0  0
    8.7031   12.1775   -0.0181 H   0  0  0  0  0  0  0  0  0  0  0  0
    8.5820   11.1574    5.0006 H   0  0  0  0  0  0  0  0  0  0  0  0
    7.6604   12.1028    3.7826 H   0  0  0  0  0  0  0  0  0  0  0  0
    8.9311    9.4294    3.0533 H   0  0  0  0  0  0  0  0  0  0  0  0
    7.3272    9.4985    3.8592 H   0  0  0  0  0  0  0  0  0  0  0  0
    7.8422    9.7751    1.0904 H   0  0  0  0  0  0  0  0  0  0  0  0
    7.5144   11.4461    1.6623 H   0  0  0  0  0  0  0  0  0  0  0  0
    7.9013   16.4209   -0.1645 H   0  0  0  0  0  0  0  0  0  0  0  0
    9.3264   16.8834   -1.1328 H   0  0  0  0  0  0  0  0  0  0  0  0
   10.5826   14.7117   -1.9230 H   0  0  0  0  0  0  0  0  0  0  0  0
  1  5  1  0  0  0  0
  1  2  1  0  0  0  0
  1 24  1  0  0  0  0
  1 25  1  0  0  0  0
  2  3  1  0  0  0  0
  2 26  1  0  0  0  0
  2 27  1  0  0  0  0
  3 22  1  0  0  0  0
  3 28  1  0  0  0  0
  3 29  1  0  0  0  0
  4  5  1  0  0  0  0
  4 22  1  0  0  0  0
  4 30  1  0  0  0  0
  4 31  1  0  0  0  0
  5 32  1  0  0  0  0
  5 33  1  0  0  0  0
  6 11  1  0  0  0  0
  6  7  1  0  0  0  0
  6 19  1  0  0  0  0
  6 22  1  0  0  0  0
  7  8  1  0  0  0  0
  7 34  1  0  0  0  0
  7 35  1  0  0  0  0
  8  9  1  0  0  0  0
  8 36  1  0  0  0  0
  8 37  1  0  0  0  0
  9 10  1  0  0  0  0
  9 12  1  0  0  0  0
 10 11  1  0  0  0  0
 10 38  1  0  0  0  0
 10 39  1  0  0  0  0
 11 40  1  0  0  0  0
 11 41  1  0  0  0  0
 12 13  2  0  0  0  0
 12 14  1  0  0  0  0
 14 15  1  0  0  0  0
 14 42  1  0  0  0  0
 14 43  1  0  0  0  0
 15 16  1  0  0  0  0
 15 44  1  0  0  0  0
 15 45  1  0  0  0  0
 16 17  1  0  0  0  0
 16 46  1  0  0  0  0
 16 47  1  0  0  0  0
 17 18  2  0  0  0  0
 17 23  1  0  0  0  0
 19 20  2  0  0  0  0
 19 21  1  0  0  0  0
 21 48  1  0  0  0  0
 21 49  1  0  0  0  0
 22 50  1  0  0  0  0
M  END
> <Name>
ZINC04593373

> <reference>
BDB4934

> <quality>
0.664

> <status>
decoy

> <atoms in reference ligand area>
35

> <score>
-40.3771

$$$$
ZINC03627636
      BALL 1.4.0 (Jan  4 2012, 23:22:29)

 45 46  0999  0  0  0  0  0  0999 V2000
    8.9461   15.8940    2.6627 C   0  0  0  0  0  0  0  0  0  0  0  0
    8.5470   14.4189    2.5868 C   0  0  0  0  0  0  0  0  0  0  0  0
    9.5142   13.5849    3.4294 C   0  0  0  0  0  0  0  0  0  0  0  0
   10.5106   12.9560    2.5522 N   0  3  0  0  0  0  0  0  0  0  0  0
   11.8137   12.8553    3.2230 C   0  0  0  0  0  0  0  0  0  0  0  0
   12.8790   12.4370    2.2077 C   0  0  0  0  0  0  0  0  0  0  0  0
   13.4272   11.0586    2.5823 C   0  0  0  0  0  0  0  0  0  0  0  0
   10.0514   11.6382    2.0937 C   0  0  0  0  0  0  0  0  0  0  0  0
    9.3021   11.7911    0.7951 C   0  0  0  0  0  0  0  0  0  0  0  0
    9.7485   12.4168   -0.3340 C   0  0  0  0  0  0  0  0  0  0  0  0
    8.7862   12.3440   -1.2700 N   0  0  0  0  0  0  0  0  0  0  0  0
    7.7712   11.7085   -0.7971 N   0  0  0  0  0  0  0  0  0  0  0  0
    8.0603   11.3329    0.5226 N   0  0  0  0  0  0  0  0  0  0  0  0
    7.2221   10.6254    1.3917 C   0  0  0  0  0  0  0  0  0  0  0  0
    5.8744   10.1415    1.0792 C   0  0  0  0  0  0  0  0  0  0  0  0
    5.4065    9.5242    2.1292 N   0  0  0  0  0  0  0  0  0  0  0  0
    6.3948    9.5820    3.1425 O   0  0  0  0  0  0  0  0  0  0  0  0
    7.5052   10.2885    2.6180 N   0  0  0  0  0  0  0  0  0  0  0  0
    5.2104   10.3067   -0.1311 N   0  0  0  0  0  0  0  0  0  0  0  0
   11.0620   13.0681   -0.4966 C   0  0  0  0  0  0  0  0  0  0  0  0
   11.3778   13.9900    0.2306 O   0  0  0  0  0  0  0  0  0  0  0  0
   11.9122   12.6413   -1.4515 N   0  0  0  0  0  0  0  0  0  0  0  0
   11.6279   12.8652   -2.7687 N   0  0  0  0  0  0  0  0  0  0  0  0
    8.0419   16.5164    2.7347 H   0  0  0  0  0  0  0  0  0  0  0  0
    9.5092   16.1696    1.7589 H   0  0  0  0  0  0  0  0  0  0  0  0
    9.5751   16.0592    3.5498 H   0  0  0  0  0  0  0  0  0  0  0  0
    7.5245   14.2952    2.9732 H   0  0  0  0  0  0  0  0  0  0  0  0
    8.5873   14.0804    1.5409 H   0  0  0  0  0  0  0  0  0  0  0  0
    8.9551   12.8046    3.9666 H   0  0  0  0  0  0  0  0  0  0  0  0
   10.0239   14.2360    4.1548 H   0  0  0  0  0  0  0  0  0  0  0  0
   10.6268   13.5566    1.7236 H   0  0  0  0  0  0  0  0  0  0  0  0
   11.7575   12.1044    4.0248 H   0  0  0  0  0  0  0  0  0  0  0  0
   12.0812   13.8317    3.6531 H   0  0  0  0  0  0  0  0  0  0  0  0
   12.4315   12.3925    1.2038 H   0  0  0  0  0  0  0  0  0  0  0  0
   13.6989   13.1702    2.2116 H   0  0  0  0  0  0  0  0  0  0  0  0
   14.0288   11.1390    3.4996 H   0  0  0  0  0  0  0  0  0  0  0  0
   14.0565   10.6783    1.7640 H   0  0  0  0  0  0  0  0  0  0  0  0
   12.5910   10.3646    2.7531 H   0  0  0  0  0  0  0  0  0  0  0  0
    9.3859   11.1968    2.8503 H   0  0  0  0  0  0  0  0  0  0  0  0
   10.9194   10.9802    1.9401 H   0  0  0  0  0  0  0  0  0  0  0  0
    4.2134   10.0477   -0.1316 H   0  0  0  0  0  0  0  0  0  0  0  0
    5.6700   10.6635   -0.9810 H   0  0  0  0  0  0  0  0  0  0  0  0
   12.7761   12.1464   -1.1879 H   0  0  0  0  0  0  0  0  0  0  0  0
   12.0795   13.6448   -3.2678 H   0  0  0  0  0  0  0  0  0  0  0  0
   10.9618   12.2544   -3.2627 H   0  0  0  0  0  0  0  0  0  0  0  0
  1  2  1  0  0  0  0
  1 24  1  0  0  0  0
  1 25  1  0  0  0  0
  1 26  1  0  0  0  0
  2  3  1  0  0  0  0
  2 27  1  0  0  0  0
  2 28  1  0  0  0  0
  3  4  1  0  0  0  0
  3 29  1  0  0  0  0
  3 30  1  0  0  0  0
  4  5  1  0  0  0  0
  4  8  1  0  0  0  0
  4 31  1  0  0  0  0
  5  6  1  0  0  0  0
  5 32  1  0  0  0  0
  5 33  1  0  0  0  0
  6  7  1  0  0  0  0
  6 34  1  0  0  0  0
  6 35  1  0  0  0  0
  7 36  1  0  0  0  0
  7 37  1  0  0  0  0
  7 38  1  0  0  0  0
  8  9  1  0  0  0  0
  8 39  1  0  0  0  0
  8 40  1  0  0  0  0
  9 13  1  0  0  0  0
  9 10  2  0  0  0  0
 10 11  1  0  0  0  0
 10 20  1  0  0  0  0
 11 12  2  0  0  0  0
 12 13  1  0  0  0  0
 13 14  1  0  0  0  0
 14 18  2  0  0  0  0
 14 15  1  0  0  0  0
 15 16  2  0  0  0  0
 15 19  1  0  0  0  0
 16 17  1  0  0  0  0
 17 18  1  0  0  0  0
 19 41  1  0  0  0  0
 19 42  1  0  0  0  0
 20 21  2  0  0  0  0
 20 22  1  0  0  0  0
 22 23  1  0  0  0  0
 22 43  1  0  0  0  0
 23 44  1  0  0  0  0
 23 45  1  0  0  0  0
M  END
> <Name>
ZINC03627636

> <reference>
BDB5013

> <quality>
0.838

> <status>
decoy

> <atoms in reference ligand area>
28

> <score>
-40.3699

$$$$
ZINC31167898
      BALL 1.4.0 (Jan  4 2012, 23:22:29)

 55 56  0999  0  0  0  0  0  0999 V2000
    4.6566    6.9277    2.9137 C   0  0  0  0  0  0  0  0  0  0  0  0
    4.2008    7.1609    4.3556 C   0  0  0  0  0  0  0  0  0  0  0  0
    2.7032    6.8697    4.4705 C   0  0  0  0  0  0  0  0  0  0  0  0
    2.0192    8.0212    5.1613 C   0  0  0  0  0  0  0  0  0  0  0  0
    0.9813    8.4580    4.7234 O   0  0  0  0  0  0  0  0  0  0  0  0
    2.5630    8.5614    6.2633 O   0  5  0  0  0  0  0  0  0  0  0  0
    4.9746    6.2305    5.2918 C   0  0  0  0  0  0  0  0  0  0  0  0
    6.4127    6.6749    5.3659 C   0  0  0  0  0  0  0  0  0  0  0  0
    7.1050    6.3283    6.2937 O   0  0  0  0  0  0  0  0  0  0  0  0
    6.9246    7.4554    4.4014 O   0  0  0  0  0  0  0  0  0  0  0  0
    8.3618    7.6619    4.4139 C   0  0  0  0  0  0  0  0  0  0  0  0
    8.6985    8.8978    3.6200 C   0  0  0  0  0  0  0  0  0  0  0  0
    8.5483   10.1476    4.1918 C   0  0  0  0  0  0  0  0  0  0  0  0
    8.8563   11.2821    3.4662 C   0  0  0  0  0  0  0  0  0  0  0  0
    9.3169   11.1664    2.1627 C   0  0  0  0  0  0  0  0  0  0  0  0
    9.4669    9.9113    1.5912 C   0  0  0  0  0  0  0  0  0  0  0  0
    9.1574    8.7799    2.3211 C   0  0  0  0  0  0  0  0  0  0  0  0
    9.6201   12.2810    1.4466 O   0  0  0  0  0  0  0  0  0  0  0  0
    9.4463   12.2092    0.0299 C   0  0  0  0  0  0  0  0  0  0  0  0
    8.0692   12.7634   -0.3442 C   0  0  0  0  0  0  0  0  0  0  0  0
    7.9146   12.7391   -1.8681 C   0  0  0  0  0  0  0  0  0  0  0  0
    9.0559   13.5424   -2.4991 C   0  0  0  0  0  0  0  0  0  0  0  0
   10.3948   12.9579   -2.0417 C   0  0  0  0  0  0  0  0  0  0  0  0
   10.4609   12.9822   -0.6144 O   0  0  0  0  0  0  0  0  0  0  0  0
   11.5399   13.7919   -2.6198 C   0  0  0  0  0  0  0  0  0  0  0  0
   12.7520   13.4795   -1.9303 O   0  0  0  0  0  0  0  0  0  0  0  0
    8.9631   13.4661   -3.9232 O   0  0  0  0  0  0  0  0  0  0  0  0
    6.6616   13.3227   -2.2308 O   0  0  0  0  0  0  0  0  0  0  0  0
    7.0516   11.9566    0.2522 O   0  0  0  0  0  0  0  0  0  0  0  0
    4.4513    8.5196    4.7205 O   0  0  0  0  0  0  0  0  0  0  0  0
    5.2938    6.0322    2.8698 H   0  0  0  0  0  0  0  0  0  0  0  0
    5.2268    7.8003    2.5627 H   0  0  0  0  0  0  0  0  0  0  0  0
    3.7769    6.7824    2.2694 H   0  0  0  0  0  0  0  0  0  0  0  0
    2.5510    5.9500    5.0546 H   0  0  0  0  0  0  0  0  0  0  0  0
    2.2765    6.7403    3.4650 H   0  0  0  0  0  0  0  0  0  0  0  0
    4.9291    5.2009    4.9072 H   0  0  0  0  0  0  0  0  0  0  0  0
    4.5280    6.2667    6.2964 H   0  0  0  0  0  0  0  0  0  0  0  0
    8.7052    7.7882    5.4512 H   0  0  0  0  0  0  0  0  0  0  0  0
    8.8624    6.7912    3.9653 H   0  0  0  0  0  0  0  0  0  0  0  0
    8.1831   10.2387    5.2254 H   0  0  0  0  0  0  0  0  0  0  0  0
    8.7365   12.2762    3.9215 H   0  0  0  0  0  0  0  0  0  0  0  0
    9.8319    9.8170    0.5578 H   0  0  0  0  0  0  0  0  0  0  0  0
    9.2762    7.7845    1.8685 H   0  0  0  0  0  0  0  0  0  0  0  0
    9.5211   11.1611   -0.2955 H   0  0  0  0  0  0  0  0  0  0  0  0
    7.9743   13.7967    0.0208 H   0  0  0  0  0  0  0  0  0  0  0  0
    7.9483   11.7003   -2.2283 H   0  0  0  0  0  0  0  0  0  0  0  0
    8.9851   14.5945   -2.1860 H   0  0  0  0  0  0  0  0  0  0  0  0
   10.4827   11.9201   -2.3959 H   0  0  0  0  0  0  0  0  0  0  0  0
   11.6573   13.5623   -3.6892 H   0  0  0  0  0  0  0  0  0  0  0  0
   11.3143   14.8615   -2.4970 H   0  0  0  0  0  0  0  0  0  0  0  0
   12.8734   12.4973   -1.9028 H   0  0  0  0  0  0  0  0  0  0  0  0
    8.1004   13.0519   -4.1765 H   0  0  0  0  0  0  0  0  0  0  0  0
    6.0539   13.3125   -1.4493 H   0  0  0  0  0  0  0  0  0  0  0  0
    6.3228   12.5374    0.5863 H   0  0  0  0  0  0  0  0  0  0  0  0
    3.9508    9.1224    4.1154 H   0  0  0  0  0  0  0  0  0  0  0  0
  1  2  1  0  0  0  0
  1 31  1  0  0  0  0
  1 32  1  0  0  0  0
  1 33  1  0  0  0  0
  2  3  1  0  0  0  0
  2  7  1  0  0  0  0
  2 30  1  0  0  0  0
  3  4  1  0  0  0  0
  3 34  1  0  0  0  0
  3 35  1  0  0  0  0
  4  5  2  0  0  0  0
  4  6  1  0  0  0  0
  7  8  1  0  0  0  0
  7 36  1  0  0  0  0
  7 37  1  0  0  0  0
  8  9  2  0  0  0  0
  8 10  1  0  0  0  0
 10 11  1  0  0  0  0
 11 12  1  0  0  0  0
 11 38  1  0  0  0  0
 11 39  1  0  0  0  0
 12 17  2  0  0  0  0
 12 13  1  0  0  0  0
 13 14  2  0  0  0  0
 13 40  1  0  0  0  0
 14 15  1  0  0  0  0
 14 41  1  0  0  0  0
 15 16  2  0  0  0  0
 15 18  1  0  0  0  0
 16 17  1  0  0  0  0
 16 42  1  0  0  0  0
 17 43  1  0  0  0  0
 18 19  1  0  0  0  0
 19 24  1  0  0  0  0
 19 20  1  0  0  0  0
 19 44  1  0  0  0  0
 20 21  1  0  0  0  0
 20 29  1  0  0  0  0
 20 45  1  0  0  0  0
 21 22  1  0  0  0  0
 21 28  1  0  0  0  0
 21 46  1  0  0  0  0
 22 23  1  0  0  0  0
 22 27  1  0  0  0  0
 22 47  1  0  0  0  0
 23 24  1  0  0  0  0
 23 25  1  0  0  0  0
 23 48  1  0  0  0  0
 25 26  1  0  0  0  0
 25 49  1  0  0  0  0
 25 50  1  0  0  0  0
 26 51  1  0  0  0  0
 27 52  1  0  0  0  0
 28 53  1  0  0  0  0
 29 54  1  0  0  0  0
 30 55  1  0  0  0  0
M  END
> <Name>
ZINC31167898

> <reference>
BDB4946

> <quality>
0.764

> <status>
decoy

> <atoms in reference ligand area>
23

> <score>
-39.8292

$$$$
ZINC12503222
      BALL 1.4.0 (Jan  4 2012, 23:22:29)

 36 36  0999  0  0  0  0  0  0999 V2000
   10.4761    9.8701    4.4062 C   0  0  0  0  0  0  0  0  0  0  0  0
    9.2890    9.5719    3.8251 C   0  0  0  0  0  0  0  0  0  0  0  0
    8.9053   10.2792    2.7797 N   0  0  0  0  0  0  0  0  0  0  0  0
    9.6486   11.2625    2.3103 C   0  0  0  0  0  0  0  0  0  0  0  0
   11.0168   11.2287    3.3791 S   0  0  0  0  0  0  0  0  0  0  0  0
    9.4026   12.1054    1.2340 N   0  0  0  0  0  0  0  0  0  0  0  0
    8.1326   12.5923    1.0168 C   0  0  0  0  0  0  0  0  0  0  0  0
    7.9365   13.5299    0.1333 N   0  3  0  0  0  0  0  0  0  0  0  0
    7.0716   12.0891    1.7322 N   0  0  0  0  0  0  0  0  0  0  0  0
    8.4297    8.4539    4.3567 C   0  0  0  0  0  0  0  0  0  0  0  0
    6.9217    8.3225    3.3572 S   0  0  0  0  0  0  0  0  0  0  0  0
    5.7654    7.4194    4.4240 C   0  0  0  0  0  0  0  0  0  0  0  0
    4.4337    7.2370    3.6931 C   0  0  0  0  0  0  0  0  0  0  0  0
    3.2972    7.4390    4.6620 C   0  0  0  0  0  0  0  0  0  0  0  0
    3.4389    8.2407    5.6669 N   0  0  0  0  0  0  0  0  0  0  0  0
    2.1138    6.7735    4.4784 N   0  0  0  0  0  0  0  0  0  0  0  0
    0.8651    6.9956    5.5430 S   0  0  0  0  0  0  0  0  0  0  0  0
   -0.2155    6.2014    5.0730 O   0  0  0  0  0  0  0  0  0  0  0  0
    1.4108    6.8446    6.8463 O   0  0  0  0  0  0  0  0  0  0  0  0
    0.3842    8.5747    5.4112 N   0  0  0  0  0  0  0  0  0  0  0  0
   10.9705    9.4044    5.2715 H   0  0  0  0  0  0  0  0  0  0  0  0
   10.1698   12.3663    0.5983 H   0  0  0  0  0  0  0  0  0  0  0  0
    8.7313   13.9069   -0.4026 H   0  0  0  0  0  0  0  0  0  0  0  0
    6.9869   13.8941   -0.0292 H   0  0  0  0  0  0  0  0  0  0  0  0
    7.1488   11.1695    2.1896 H   0  0  0  0  0  0  0  0  0  0  0  0
    6.1997   12.6318    1.8107 H   0  0  0  0  0  0  0  0  0  0  0  0
    8.9868    7.5068    4.3051 H   0  0  0  0  0  0  0  0  0  0  0  0
    8.1587    8.6634    5.4020 H   0  0  0  0  0  0  0  0  0  0  0  0
    6.1865    6.4333    4.6693 H   0  0  0  0  0  0  0  0  0  0  0  0
    5.5992    7.9881    5.3507 H   0  0  0  0  0  0  0  0  0  0  0  0
    4.3805    6.2216    3.2735 H   0  0  0  0  0  0  0  0  0  0  0  0
    4.3573    7.9742    2.8803 H   0  0  0  0  0  0  0  0  0  0  0  0
    3.3414    9.2572    5.5324 H   0  0  0  0  0  0  0  0  0  0  0  0
    3.6493    7.8627    6.6016 H   0  0  0  0  0  0  0  0  0  0  0  0
   -0.6172    8.8128    5.4481 H   0  0  0  0  0  0  0  0  0  0  0  0
    1.0864    9.3188    5.2924 H   0  0  0  0  0  0  0  0  0  0  0  0
  1  5  1  0  0  0  0
  1  2  2  0  0  0  0
  1 21  1  0  0  0  0
  2  3  1  0  0  0  0
  2 10  1  0  0  0  0
  3  4  2  0  0  0  0
  4  5  1  0  0  0  0
  4  6  1  0  0  0  0
  6  7  1  0  0  0  0
  6 22  1  0  0  0  0
  7  8  2  0  0  0  0
  7  9  1  0  0  0  0
  8 23  1  0  0  0  0
  8 24  1  0  0  0  0
  9 25  1  0  0  0  0
  9 26  1  0  0  0  0
 10 11  1  0  0  0  0
 10 27  1  0  0  0  0
 10 28  1  0  0  0  0
 11 12  1  0  0  0  0
 12 13  1  0  0  0  0
 12 29  1  0  0  0  0
 12 30  1  0  0  0  0
 13 14  1  0  0  0  0
 13 31  1  0  0  0  0
 13 32  1  0  0  0  0
 14 15  1  0  0  0  0
 14 16  2  0  0  0  0
 15 33  1  0  0  0  0
 15 34  1  0  0  0  0
 16 17  1  0  0  0  0
 17 18  2  0  0  0  0
 17 19  2  0  0  0  0
 17 20  1  0  0  0  0
 20 35  1  0  0  0  0
 20 36  1  0  0  0  0
M  END
> <Name>
ZINC12503222

> <reference>
BDB5024

> <quality>
0.770

> <status>
decoy

> <atoms in reference ligand area>
11

> <score>
-38.3143

$$$$
ZINC04096406
      BALL 1.4.0 (Jan  4 2012, 23:22:29)

 42 44  0999  0  0  0  0  0  0999 V2000
    8.4176   13.4351    0.6641 C   0  0  0  0  0  0  0  0  0  0  0  0
    9.5424   12.7775   -0.1330 C   0  0  0  0  0  0  0  0  0  0  0  0
   10.8144   13.6423   -0.0613 C   0  0  0  0  0  0  0  0  0  0  0  0
   10.7563   14.4973   -1.3483 C   0  0  0  0  0  0  0  0  0  0  0  0
    9.4480   14.0490   -2.0375 C   0  0  0  0  0  0  0  0  0  0  0  0
    9.1956   12.7206   -1.5273 O   0  0  0  0  0  0  0  0  0  0  0  0
    9.6328   14.0097   -3.5558 C   0  0  0  0  0  0  0  0  0  0  0  0
    8.9166   15.0935   -4.1511 O   0  0  0  0  0  0  0  0  0  0  0  0
   10.7015   15.8885   -1.0265 O   0  0  0  0  0  0  0  0  0  0  0  0
   11.9817   12.8180   -0.0595 O   0  0  0  0  0  0  0  0  0  0  0  0
    9.7991   11.4755    0.3735 O   0  0  0  0  0  0  0  0  0  0  0  0
    8.6866   10.5946    0.3838 C   0  0  0  0  0  0  0  0  0  0  0  0
    9.0136    9.4622    1.3961 C   0  0  0  0  0  0  0  0  0  0  0  0
    8.3690    9.9384    2.7129 C   0  0  0  0  0  0  0  0  0  0  0  0
    7.7788   11.2097    2.4547 O   0  0  0  0  0  0  0  0  0  0  0  0
    7.4671   11.2610    1.0538 C   0  0  0  0  0  0  0  0  0  0  0  0
    7.2678   12.5864    0.6015 O   0  0  0  0  0  0  0  0  0  0  0  0
    6.2124   10.4304    0.7770 C   0  0  0  0  0  0  0  0  0  0  0  0
    5.1525   10.8702    1.6286 O   0  0  0  0  0  0  0  0  0  0  0  0
    9.4395   10.0708    3.7980 C   0  0  0  0  0  0  0  0  0  0  0  0
    8.8836    9.7051    5.0626 O   0  0  0  0  0  0  0  0  0  0  0  0
    8.4319    8.2279    0.9716 O   0  0  0  0  0  0  0  0  0  0  0  0
    8.7313   13.5585    1.7112 H   0  0  0  0  0  0  0  0  0  0  0  0
    8.1786   14.4150    0.2251 H   0  0  0  0  0  0  0  0  0  0  0  0
   10.8632   14.2522    0.8528 H   0  0  0  0  0  0  0  0  0  0  0  0
   11.6415   14.3612   -1.9870 H   0  0  0  0  0  0  0  0  0  0  0  0
    8.6144   14.7374   -1.8343 H   0  0  0  0  0  0  0  0  0  0  0  0
   10.7020   14.1007   -3.7976 H   0  0  0  0  0  0  0  0  0  0  0  0
    9.2479   13.0570   -3.9486 H   0  0  0  0  0  0  0  0  0  0  0  0
    9.0182   15.9041   -3.5919 H   0  0  0  0  0  0  0  0  0  0  0  0
   10.3538   16.3866   -1.8083 H   0  0  0  0  0  0  0  0  0  0  0  0
   11.8475   12.0667   -0.6900 H   0  0  0  0  0  0  0  0  0  0  0  0
    8.4905   10.2834   -0.6529 H   0  0  0  0  0  0  0  0  0  0  0  0
   10.0940    9.2808    1.4945 H   0  0  0  0  0  0  0  0  0  0  0  0
    7.6136    9.2195    3.0631 H   0  0  0  0  0  0  0  0  0  0  0  0
    5.9137   10.5563   -0.2741 H   0  0  0  0  0  0  0  0  0  0  0  0
    6.4233    9.3688    0.9736 H   0  0  0  0  0  0  0  0  0  0  0  0
    5.0683   11.8549    1.5705 H   0  0  0  0  0  0  0  0  0  0  0  0
    9.7929   11.1116    3.8408 H   0  0  0  0  0  0  0  0  0  0  0  0
   10.2839    9.4062    3.5631 H   0  0  0  0  0  0  0  0  0  0  0  0
    8.9437   10.4726    5.6851 H   0  0  0  0  0  0  0  0  0  0  0  0
    8.6642    8.0707    0.0222 H   0  0  0  0  0  0  0  0  0  0  0  0
  1 17  1  0  0  0  0
  1  2  1  0  0  0  0
  1 23  1  0  0  0  0
  1 24  1  0  0  0  0
  2  6  1  0  0  0  0
  2  3  1  0  0  0  0
  2 11  1  0  0  0  0
  3  4  1  0  0  0  0
  3 10  1  0  0  0  0
  3 25  1  0  0  0  0
  4  5  1  0  0  0  0
  4  9  1  0  0  0  0
  4 26  1  0  0  0  0
  5  6  1  0  0  0  0
  5  7  1  0  0  0  0
  5 27  1  0  0  0  0
  7  8  1  0  0  0  0
  7 28  1  0  0  0  0
  7 29  1  0  0  0  0
  8 30  1  0  0  0  0
  9 31  1  0  0  0  0
 10 32  1  0  0  0  0
 11 12  1  0  0  0  0
 12 16  1  0  0  0  0
 12 13  1  0  0  0  0
 12 33  1  0  0  0  0
 13 14  1  0  0  0  0
 13 22  1  0  0  0  0
 13 34  1  0  0  0  0
 14 15  1  0  0  0  0
 14 20  1  0  0  0  0
 14 35  1  0  0  0  0
 15 16  1  0  0  0  0
 16 17  1  0  0  0  0
 16 18  1  0  0  0  0
 18 19  1  0  0  0  0
 18 36  1  0  0  0  0
 18 37  1  0  0  0  0
 19 38  1  0  0  0  0
 20 21  1  0  0  0  0
 20 39  1  0  0  0  0
 20 40  1  0  0  0  0
 21 41  1  0  0  0  0
 22 42  1  0  0  0  0
M  END
> <Name>
ZINC04096406

> <reference>
BDB4977

> <quality>
0.688

> <status>
decoy

> <atoms in reference ligand area>
26

> <score>
-38.0649

$$$$
ZINC09305196
      BALL 1.4.0 (Jan  4 2012, 23:22:29)

 43 44  0999  0  0  0  0  0  0999 V2000
    8.9170   15.0375   -3.1664 C   0  0  0  0  0  0  0  0  0  0  0  0
    9.8981   15.0441   -2.1918 C   0  0  0  0  0  0  0  0  0  0  0  0
    9.8580   14.1252   -1.1582 C   0  0  0  0  0  0  0  0  0  0  0  0
    8.8379   13.1925   -1.1087 C   0  0  0  0  0  0  0  0  0  0  0  0
    7.8507   13.1784   -2.0955 C   0  0  0  0  0  0  0  0  0  0  0  0
    7.8958   14.1062   -3.1238 C   0  0  0  0  0  0  0  0  0  0  0  0
    6.8293   12.2238   -2.0367 N   0  0  0  0  0  0  0  0  0  0  0  0
    6.6179   11.5104   -0.9146 C   0  0  0  0  0  0  0  0  0  0  0  0
    5.7555   10.6575   -0.9007 O   0  0  0  0  0  0  0  0  0  0  0  0
    7.4400   11.7581    0.3242 C   0  0  0  0  0  0  0  0  0  0  0  0
    8.7688   12.2476   -0.0722 N   0  0  0  0  0  0  0  0  0  0  0  0
    9.8845   11.8040    0.5402 C   0  0  0  0  0  0  0  0  0  0  0  0
   10.7054   12.5980    0.9576 O   0  0  0  0  0  0  0  0  0  0  0  0
   10.0903   10.4805    0.6897 N   0  0  0  0  0  0  0  0  0  0  0  0
   10.4500    9.9389    2.0026 C   0  0  0  0  0  0  0  0  0  0  0  0
   11.9727    9.9327    2.1520 C   0  0  0  0  0  0  0  0  0  0  0  0
   12.3573   10.5855    3.4811 C   0  0  0  0  0  0  0  0  0  0  0  0
   13.8244   10.3630    3.7441 C   0  0  0  0  0  0  0  0  0  0  0  0
   14.5342    9.9064    2.8730 O   0  0  0  0  0  0  0  0  0  0  0  0
   14.3479   10.6712    4.9472 N   0  0  0  0  0  0  0  0  0  0  0  0
   15.7741   10.4549    5.2027 C   0  0  0  0  0  0  0  0  0  0  0  0
   16.1588   11.1078    6.5319 C   0  0  0  0  0  0  0  0  0  0  0  0
   15.4787   10.4475    7.6013 O   0  0  0  0  0  0  0  0  0  0  0  0
    8.9494   15.7770   -3.9801 H   0  0  0  0  0  0  0  0  0  0  0  0
   10.7125   15.7820   -2.2383 H   0  0  0  0  0  0  0  0  0  0  0  0
   10.6344   14.1363   -0.3790 H   0  0  0  0  0  0  0  0  0  0  0  0
    7.1209   14.1019   -3.9045 H   0  0  0  0  0  0  0  0  0  0  0  0
    6.2325   12.0652   -2.8610 H   0  0  0  0  0  0  0  0  0  0  0  0
    7.5477   10.8202    0.8890 H   0  0  0  0  0  0  0  0  0  0  0  0
    6.9424   12.5128    0.9510 H   0  0  0  0  0  0  0  0  0  0  0  0
    9.9945    9.8498   -0.1189 H   0  0  0  0  0  0  0  0  0  0  0  0
   10.0072   10.5647    2.7914 H   0  0  0  0  0  0  0  0  0  0  0  0
   10.0693    8.9109    2.0933 H   0  0  0  0  0  0  0  0  0  0  0  0
   12.3388    8.8956    2.1340 H   0  0  0  0  0  0  0  0  0  0  0  0
   12.4259   10.4960    1.3230 H   0  0  0  0  0  0  0  0  0  0  0  0
   11.7678   10.1381    4.2949 H   0  0  0  0  0  0  0  0  0  0  0  0
   12.1539   11.6654    3.4318 H   0  0  0  0  0  0  0  0  0  0  0  0
   13.7452   11.0589    5.6870 H   0  0  0  0  0  0  0  0  0  0  0  0
   16.3653   10.9026    4.3904 H   0  0  0  0  0  0  0  0  0  0  0  0
   15.9781    9.3751    5.2527 H   0  0  0  0  0  0  0  0  0  0  0  0
   17.2453   11.0230    6.6812 H   0  0  0  0  0  0  0  0  0  0  0  0
   15.8725   12.1698    6.5164 H   0  0  0  0  0  0  0  0  0  0  0  0
   14.6079   10.8898    7.7628 H   0  0  0  0  0  0  0  0  0  0  0  0
  1  6  2  0  0  0  0
  1  2  1  0  0  0  0
  1 24  1  0  0  0  0
  2  3  2  0  0  0  0
  2 25  1  0  0  0  0
  3  4  1  0  0  0  0
  3 26  1  0  0  0  0
  4 11  1  0  0  0  0
  4  5  2  0  0  0  0
  5  6  1  0  0  0  0
  5  7  1  0  0  0  0
  6 27  1  0  0  0  0
  7  8  1  0  0  0  0
  7 28  1  0  0  0  0
  8  9  2  0  0  0  0
  8 10  1  0  0  0  0
 10 11  1  0  0  0  0
 10 29  1  0  0  0  0
 10 30  1  0  0  0  0
 11 12  1  0  0  0  0
 12 13  2  0  0  0  0
 12 14  1  0  0  0  0
 14 15  1  0  0  0  0
 14 31  1  0  0  0  0
 15 16  1  0  0  0  0
 15 32  1  0  0  0  0
 15 33  1  0  0  0  0
 16 17  1  0  0  0  0
 16 34  1  0  0  0  0
 16 35  1  0  0  0  0
 17 18  1  0  0  0  0
 17 36  1  0  0  0  0
 17 37  1  0  0  0  0
 18 19  2  0  0  0  0
 18 20  1  0  0  0  0
 20 21  1  0  0  0  0
 20 38  1  0  0  0  0
 21 22  1  0  0  0  0
 21 39  1  0  0  0  0
 21 40  1  0  0  0  0
 22 23  1  0  0  0  0
 22 41  1  0  0  0  0
 22 42  1  0  0  0  0
 23 43  1  0  0  0  0
M  END
> <Name>
ZINC09305196

> <reference>
BDB5199

> <quality>
0.746

> <status>
decoy

> <atoms in reference ligand area>
19

> <score>
-38.0234

$$$$
ZINC03978077
      BALL 1.4.0 (Jan  4 2012, 23:22:29)

 32 33  0999  0  0  0  0  0  0999 V2000
   11.3168   12.5473   -0.5141 C   0  0  0  0  0  0  0  0  0  0  0  0
   11.9614   12.7505   -1.6358 N   0  0  0  0  0  0  0  0  0  0  0  0
   11.2908   13.0140   -2.7664 C   0  0  0  0  0  0  0  0  0  0  0  0
    9.9662   13.0682   -2.7640 N   0  0  0  0  0  0  0  0  0  0  0  0
    9.2914   12.8589   -1.6301 C   0  0  0  0  0  0  0  0  0  0  0  0
    8.0731   12.9082   -1.6232 O   0  0  0  0  0  0  0  0  0  0  0  0
    9.9666   12.5933   -0.4929 N   0  0  0  0  0  0  0  0  0  0  0  0
    9.2408   12.3621    0.7584 C   0  0  0  0  0  0  0  0  0  0  0  0
    8.3114   11.1579    0.5939 C   0  0  0  0  0  0  0  0  0  0  0  0
    6.8388   11.6202    0.4525 C   0  0  0  0  0  0  0  0  0  0  0  0
    6.0594   10.3725    0.9344 C   0  0  0  0  0  0  0  0  0  0  0  0
    7.0855    9.5872    1.7741 C   0  0  0  0  0  0  0  0  0  0  0  0
    8.3000   10.3558    1.7986 O   0  0  0  0  0  0  0  0  0  0  0  0
    7.3464    8.2224    1.1338 C   0  0  0  0  0  0  0  0  0  0  0  0
    7.2820    8.3434   -0.2886 O   0  0  0  0  0  0  0  0  0  0  0  0
    4.9447   10.7595    1.7406 O   0  0  0  0  0  0  0  0  0  0  0  0
    6.5274   11.9215   -0.9093 O   0  0  0  0  0  0  0  0  0  0  0  0
   11.9801   13.2296   -3.9335 N   0  0  0  0  0  0  0  0  0  0  0  0
   11.8745   12.3392    0.4109 H   0  0  0  0  0  0  0  0  0  0  0  0
    8.6452   13.2526    1.0080 H   0  0  0  0  0  0  0  0  0  0  0  0
    9.9588   12.1626    1.5675 H   0  0  0  0  0  0  0  0  0  0  0  0
    8.6749   10.6070   -0.2861 H   0  0  0  0  0  0  0  0  0  0  0  0
    6.6045   12.5353    1.0161 H   0  0  0  0  0  0  0  0  0  0  0  0
    5.6528    9.7803    0.1014 H   0  0  0  0  0  0  0  0  0  0  0  0
    6.7087    9.4231    2.7945 H   0  0  0  0  0  0  0  0  0  0  0  0
    8.3448    7.8651    1.4259 H   0  0  0  0  0  0  0  0  0  0  0  0
    6.5858    7.5047    1.4748 H   0  0  0  0  0  0  0  0  0  0  0  0
    8.1989    8.3969   -0.6581 H   0  0  0  0  0  0  0  0  0  0  0  0
    5.2541   11.3888    2.4395 H   0  0  0  0  0  0  0  0  0  0  0  0
    6.0903   12.8089   -0.9490 H   0  0  0  0  0  0  0  0  0  0  0  0
   12.1413   14.1899   -4.2692 H   0  0  0  0  0  0  0  0  0  0  0  0
   12.3367   12.4291   -4.4746 H   0  0  0  0  0  0  0  0  0  0  0  0
  1  7  1  0  0  0  0
  1  2  2  0  0  0  0
  1 19  1  0  0  0  0
  2  3  1  0  0  0  0
  3  4  2  0  0  0  0
  3 18  1  0  0  0  0
  4  5  1  0  0  0  0
  5  6  2  0  0  0  0
  5  7  1  0  0  0  0
  7  8  1  0  0  0  0
  8  9  1  0  0  0  0
  8 20  1  0  0  0  0
  8 21  1  0  0  0  0
  9 13  1  0  0  0  0
  9 10  1  0  0  0  0
  9 22  1  0  0  0  0
 10 11  1  0  0  0  0
 10 17  1  0  0  0  0
 10 23  1  0  0  0  0
 11 12  1  0  0  0  0
 11 16  1  0  0  0  0
 11 24  1  0  0  0  0
 12 13  1  0  0  0  0
 12 14  1  0  0  0  0
 12 25  1  0  0  0  0
 14 15  1  0  0  0  0
 14 26  1  0  0  0  0
 14 27  1  0  0  0  0
 15 28  1  0  0  0  0
 16 29  1  0  0  0  0
 17 30  1  0  0  0  0
 18 31  1  0  0  0  0
 18 32  1  0  0  0  0
M  END
> <Name>
ZINC03978077

> <reference>
BDB5257

> <quality>
0.782

> <status>
decoy

> <atoms in reference ligand area>
23

> <score>
-37.95

$$$$
ZINC30581710
      BALL 1.4.0 (Jan  4 2012, 23:22:29)

 45 47  0999  0  0  0  0  0  0999 V2000
    5.4552    8.2090    2.9344 C   0  0  0  0  0  0  0  0  0  0  0  0
    4.9188    7.4663    1.8912 C   0  0  0  0  0  0  0  0  0  0  0  0
    4.9756    7.9314    0.5959 C   0  0  0  0  0  0  0  0  0  0  0  0
    5.5762    9.1574    0.3276 C   0  0  0  0  0  0  0  0  0  0  0  0
    6.1238    9.9030    1.3873 C   0  0  0  0  0  0  0  0  0  0  0  0
    6.0495    9.4154    2.6936 C   0  0  0  0  0  0  0  0  0  0  0  0
    6.6668   11.1231    0.7853 C   0  0  0  0  0  0  0  0  0  0  0  0
    6.4373   11.0450   -0.5350 C   0  0  0  0  0  0  0  0  0  0  0  0
    5.7866    9.8773   -0.8270 N   0  0  0  0  0  0  0  0  0  0  0  0
    7.3577   12.2495    1.5100 C   0  0  0  0  0  0  0  0  0  0  0  0
    8.6175   12.6534    0.7415 C   0  0  0  0  0  0  0  0  0  0  0  0
    9.6271   13.2953    1.6723 C   0  0  0  0  0  0  0  0  0  0  0  0
    9.4844   14.3103    2.3198 O   0  0  0  0  0  0  0  0  0  0  0  0
   10.7162   12.5026    1.6310 N   0  0  0  0  0  0  0  0  0  0  0  0
   10.5368   11.4598    0.8121 C   0  0  0  0  0  0  0  0  0  0  0  0
   11.3785   10.6066    0.6104 O   0  0  0  0  0  0  0  0  0  0  0  0
    9.3209   11.4617    0.2365 N   0  5  0  0  0  0  0  0  0  0  0  0
   11.8913   12.7412    2.3556 N   0  0  0  0  0  0  0  0  0  0  0  0
   12.3837   11.7899    3.1735 C   0  0  0  0  0  0  0  0  0  0  0  0
   11.9201   10.6694    3.1484 O   0  0  0  0  0  0  0  0  0  0  0  0
   13.5101   12.1184    4.1193 C   0  0  0  0  0  0  0  0  0  0  0  0
   14.4964   10.9495    4.1632 C   0  0  0  0  0  0  0  0  0  0  0  0
   15.8522   11.3450    5.3015 S   0  0  0  0  0  0  0  0  0  0  0  0
   15.7642   10.0404    6.5588 C   0  0  0  0  0  0  0  0  0  0  0  0
   16.2615   10.5778    7.8760 C   0  0  0  0  0  0  0  0  0  0  0  0
   17.3949   10.9993    7.9699 O   0  0  0  0  0  0  0  0  0  0  0  0
   15.4469   10.5901    8.9496 N   0  0  0  0  0  0  0  0  0  0  0  0
    5.4014    7.8230    3.9631 H   0  0  0  0  0  0  0  0  0  0  0  0
    4.4435    6.4967    2.1012 H   0  0  0  0  0  0  0  0  0  0  0  0
    4.5476    7.3355   -0.2236 H   0  0  0  0  0  0  0  0  0  0  0  0
    6.4680   10.0005    3.5258 H   0  0  0  0  0  0  0  0  0  0  0  0
    6.7292   11.8068   -1.2729 H   0  0  0  0  0  0  0  0  0  0  0  0
    5.4972    9.5809   -1.7701 H   0  0  0  0  0  0  0  0  0  0  0  0
    6.6787   13.1121    1.5794 H   0  0  0  0  0  0  0  0  0  0  0  0
    7.6362   11.9198    2.5218 H   0  0  0  0  0  0  0  0  0  0  0  0
    8.2852   13.3278   -0.0615 H   0  0  0  0  0  0  0  0  0  0  0  0
   12.3789   13.6437    2.2633 H   0  0  0  0  0  0  0  0  0  0  0  0
   14.0297   13.0230    3.7706 H   0  0  0  0  0  0  0  0  0  0  0  0
   13.1051   12.2935    5.1268 H   0  0  0  0  0  0  0  0  0  0  0  0
   13.9775   10.0446    4.5123 H   0  0  0  0  0  0  0  0  0  0  0  0
   14.9034   10.7737    3.1565 H   0  0  0  0  0  0  0  0  0  0  0  0
   16.3902    9.1900    6.2507 H   0  0  0  0  0  0  0  0  0  0  0  0
   14.7217    9.7073    6.6694 H   0  0  0  0  0  0  0  0  0  0  0  0
   15.7074   10.0703    9.7998 H   0  0  0  0  0  0  0  0  0  0  0  0
   14.5637   11.1193    8.9199 H   0  0  0  0  0  0  0  0  0  0  0  0
  1  6  1  0  0  0  0
  1  2  2  0  0  0  0
  1 28  1  0  0  0  0
  2  3  1  0  0  0  0
  2 29  1  0  0  0  0
  3  4  2  0  0  0  0
  3 30  1  0  0  0  0
  4  9  1  0  0  0  0
  4  5  1  0  0  0  0
  5  6  2  0  0  0  0
  5  7  1  0  0  0  0
  6 31  1  0  0  0  0
  7  8  2  0  0  0  0
  7 10  1  0  0  0  0
  8  9  1  0  0  0  0
  8 32  1  0  0  0  0
  9 33  1  0  0  0  0
 10 11  1  0  0  0  0
 10 34  1  0  0  0  0
 10 35  1  0  0  0  0
 11 17  1  0  0  0  0
 11 12  1  0  0  0  0
 11 36  1  0  0  0  0
 12 13  2  0  0  0  0
 12 14  1  0  0  0  0
 14 15  1  0  0  0  0
 14 18  1  0  0  0  0
 15 16  2  0  0  0  0
 15 17  1  0  0  0  0
 18 19  1  0  0  0  0
 18 37  1  0  0  0  0
 19 20  2  0  0  0  0
 19 21  1  0  0  0  0
 21 22  1  0  0  0  0
 21 38  1  0  0  0  0
 21 39  1  0  0  0  0
 22 23  1  0  0  0  0
 22 40  1  0  0  0  0
 22 41  1  0  0  0  0
 23 24  1  0  0  0  0
 24 25  1  0  0  0  0
 24 42  1  0  0  0  0
 24 43  1  0  0  0  0
 25 26  2  0  0  0  0
 25 27  1  0  0  0  0
 27 44  1  0  0  0  0
 27 45  1  0  0  0  0
M  END
> <Name>
ZINC30581710

> <reference>
BDB4945

> <quality>
0.791

> <status>
decoy

> <atoms in reference ligand area>
16

> <score>
-37.755

$$$$
ZINC19483528
      BALL 1.4.0 (Jan  4 2012, 23:22:29)

 35 35  0999  0  0  0  0  0  0999 V2000
    9.8409   14.5278    3.5186 C   0  0  0  0  0  0  0  0  0  0  0  0
   10.4387   13.4754    4.2783 O   0  0  0  0  0  0  0  0  0  0  0  0
    9.9712   12.2165    4.0636 C   0  0  0  0  0  0  0  0  0  0  0  0
   10.7392   11.1202    4.4218 C   0  0  0  0  0  0  0  0  0  0  0  0
   10.2602    9.8412    4.2076 C   0  0  0  0  0  0  0  0  0  0  0  0
    9.0203    9.6525    3.6259 C   0  0  0  0  0  0  0  0  0  0  0  0
    8.2491   10.7420    3.2662 C   0  0  0  0  0  0  0  0  0  0  0  0
    8.7208   12.0266    3.4833 C   0  0  0  0  0  0  0  0  0  0  0  0
    7.9635   13.0995    3.1298 O   0  0  0  0  0  0  0  0  0  0  0  0
    7.9724   13.4736    1.7507 C   0  0  0  0  0  0  0  0  0  0  0  0
    8.5057    8.2560    3.3890 C   0  0  0  0  0  0  0  0  0  0  0  0
    6.7024    8.3006    3.1967 S   0  0  0  0  0  0  0  0  0  0  0  0
    6.4568    8.5356    1.4148 C   0  0  0  0  0  0  0  0  0  0  0  0
    6.4032   10.0319    1.1003 C   0  0  0  0  0  0  0  0  0  0  0  0
    5.9576   10.2298   -0.3256 C   0  0  0  0  0  0  0  0  0  0  0  0
    6.6918    9.9257   -1.2358 O   0  0  0  0  0  0  0  0  0  0  0  0
    4.7450   10.7440   -0.5847 O   0  5  0  0  0  0  0  0  0  0  0  0
    5.4519   10.6890    2.0064 N   0  3  0  0  0  0  0  0  0  0  0  0
   10.3102   15.4618    3.8614 H   0  0  0  0  0  0  0  0  0  0  0  0
    8.7806   14.5561    3.8104 H   0  0  0  0  0  0  0  0  0  0  0  0
    9.9589   14.3895    2.4337 H   0  0  0  0  0  0  0  0  0  0  0  0
   11.7298   11.2676    4.8766 H   0  0  0  0  0  0  0  0  0  0  0  0
   10.8669    8.9717    4.5005 H   0  0  0  0  0  0  0  0  0  0  0  0
    7.2610   10.5891    2.8076 H   0  0  0  0  0  0  0  0  0  0  0  0
    8.8008   12.9194    1.2853 H   0  0  0  0  0  0  0  0  0  0  0  0
    8.2244   14.5439    1.7222 H   0  0  0  0  0  0  0  0  0  0  0  0
    7.0155   13.2692    1.2481 H   0  0  0  0  0  0  0  0  0  0  0  0
    8.9613    7.8473    2.4750 H   0  0  0  0  0  0  0  0  0  0  0  0
    8.7665    7.6175    4.2459 H   0  0  0  0  0  0  0  0  0  0  0  0
    7.2916    8.0757    0.8656 H   0  0  0  0  0  0  0  0  0  0  0  0
    5.5118    8.0632    1.1084 H   0  0  0  0  0  0  0  0  0  0  0  0
    7.4025   10.4712    1.2366 H   0  0  0  0  0  0  0  0  0  0  0  0
    4.5609   10.1722    2.0038 H   0  0  0  0  0  0  0  0  0  0  0  0
    5.2882   11.6559    1.6915 H   0  0  0  0  0  0  0  0  0  0  0  0
    5.8381   10.7006    2.9611 H   0  0  0  0  0  0  0  0  0  0  0  0
  1  2  1  0  0  0  0
  1 19  1  0  0  0  0
  1 20  1  0  0  0  0
  1 21  1  0  0  0  0
  2  3  1  0  0  0  0
  3  8  2  0  0  0  0
  3  4  1  0  0  0  0
  4  5  2  0  0  0  0
  4 22  1  0  0  0  0
  5  6  1  0  0  0  0
  5 23  1  0  0  0  0
  6  7  2  0  0  0  0
  6 11  1  0  0  0  0
  7  8  1  0  0  0  0
  7 24  1  0  0  0  0
  8  9  1  0  0  0  0
  9 10  1  0  0  0  0
 10 25  1  0  0  0  0
 10 26  1  0  0  0  0
 10 27  1  0  0  0  0
 11 12  1  0  0  0  0
 11 28  1  0  0  0  0
 11 29  1  0  0  0  0
 12 13  1  0  0  0  0
 13 14  1  0  0  0  0
 13 30  1  0  0  0  0
 13 31  1  0  0  0  0
 14 15  1  0  0  0  0
 14 18  1  0  0  0  0
 14 32  1  0  0  0  0
 15 16  2  0  0  0  0
 15 17  1  0  0  0  0
 18 33  1  0  0  0  0
 18 34  1  0  0  0  0
 18 35  1  0  0  0  0
M  END
> <Name>
ZINC19483528

> <reference>
BDB5195

> <quality>
0.758

> <status>
decoy

> <atoms in reference ligand area>
18

> <score>
-37.224

$$$$
ZINC02014486
      BALL 1.4.0 (Jan  4 2012, 23:22:29)

 43 44  0999  0  0  0  0  0  0999 V2000
    6.0029    6.8997    4.1333 C   0  0  0  0  0  0  0  0  0  0  0  0
    5.1629    6.4203    5.1481 C   0  0  0  0  0  0  0  0  0  0  0  0
    4.2899    7.4111    5.4470 C   0  0  0  0  0  0  0  0  0  0  0  0
    4.5531    8.4746    4.6726 O   0  0  0  0  0  0  0  0  0  0  0  0
    5.5949    8.1936    3.8631 C   0  0  0  0  0  0  0  0  0  0  0  0
    6.1658    9.0664    2.9026 C   0  0  0  0  0  0  0  0  0  0  0  0
    5.4001    9.6805    2.0417 N   0  0  0  0  0  0  0  0  0  0  0  0
    5.9642   10.5429    1.0926 N   0  0  0  0  0  0  0  0  0  0  0  0
    5.6430   10.4143   -0.2099 C   0  0  0  0  0  0  0  0  0  0  0  0
    5.0141    9.4480   -0.5870 O   0  0  0  0  0  0  0  0  0  0  0  0
    6.0653   11.4709   -1.1981 C   0  0  0  0  0  0  0  0  0  0  0  0
    7.4626   12.6215    0.4107 C   0  0  0  0  0  0  0  0  0  0  0  0
    8.9073   13.0038    0.7409 C   0  0  0  0  0  0  0  0  0  0  0  0
    9.4075   13.1550   -1.6225 C   0  0  0  0  0  0  0  0  0  0  0  0
    7.9628   12.7726   -1.9528 C   0  0  0  0  0  0  0  0  0  0  0  0
   10.8050   14.3056   -0.0137 C   0  0  0  0  0  0  0  0  0  0  0  0
   11.7293   13.0893   -0.0984 C   0  0  0  0  0  0  0  0  0  0  0  0
   12.1262   12.8862   -1.4560 O   0  0  0  0  0  0  0  0  0  0  0  0
    3.1684    7.3296    6.5102 N   0  0  0  0  0  0  0  0  0  0  0  0
    2.6819    8.3509    6.9617 O   0  0  0  0  0  0  0  0  0  0  0  0
    2.7722    6.2442    6.8956 O   0  0  0  0  0  0  0  0  0  0  0  0
    7.4439   11.8996   -0.8791 N   0  0  0  0  0  0  0  0  0  0  0  0
    9.4264   13.8769   -0.3330 N   0  3  0  0  0  0  0  0  0  0  0  0
    6.8252    6.3542    3.6473 H   0  0  0  0  0  0  0  0  0  0  0  0
    5.2052    5.4249    5.6144 H   0  0  0  0  0  0  0  0  0  0  0  0
    7.2540    9.2261    2.8827 H   0  0  0  0  0  0  0  0  0  0  0  0
    6.6243   11.2753    1.3904 H   0  0  0  0  0  0  0  0  0  0  0  0
    6.0356   11.0558   -2.2163 H   0  0  0  0  0  0  0  0  0  0  0  0
    5.3867   12.3338   -1.1286 H   0  0  0  0  0  0  0  0  0  0  0  0
    6.8487   13.5308    0.3321 H   0  0  0  0  0  0  0  0  0  0  0  0
    7.0636   11.9705    1.2026 H   0  0  0  0  0  0  0  0  0  0  0  0
    8.9358   13.5429    1.6993 H   0  0  0  0  0  0  0  0  0  0  0  0
    9.5240   12.0953    0.8066 H   0  0  0  0  0  0  0  0  0  0  0  0
    9.8075   13.8057   -2.4140 H   0  0  0  0  0  0  0  0  0  0  0  0
   10.0205   12.2450   -1.5437 H   0  0  0  0  0  0  0  0  0  0  0  0
    7.3469   13.6816   -2.0178 H   0  0  0  0  0  0  0  0  0  0  0  0
    7.9333   12.2338   -2.9113 H   0  0  0  0  0  0  0  0  0  0  0  0
   10.8349   14.7210    1.0044 H   0  0  0  0  0  0  0  0  0  0  0  0
   11.1301   15.0678   -0.7370 H   0  0  0  0  0  0  0  0  0  0  0  0
   12.6212   13.2625    0.5218 H   0  0  0  0  0  0  0  0  0  0  0  0
   11.1977   12.1974    0.2648 H   0  0  0  0  0  0  0  0  0  0  0  0
   12.8449   12.2063   -1.4925 H   0  0  0  0  0  0  0  0  0  0  0  0
    8.8260   14.7105   -0.4069 H   0  0  0  0  0  0  0  0  0  0  0  0
  1  5  2  0  0  0  0
  1  2  1  0  0  0  0
  1 24  1  0  0  0  0
  2  3  2  0  0  0  0
  2 25  1  0  0  0  0
  3  4  1  0  0  0  0
  3 19  1  0  0  0  0
  4  5  1  0  0  0  0
  5  6  1  0  0  0  0
  6  7  2  0  0  0  0
  6 26  1  0  0  0  0
  7  8  1  0  0  0  0
  8  9  1  0  0  0  0
  8 27  1  0  0  0  0
  9 10  2  0  0  0  0
  9 11  1  0  0  0  0
 11 22  1  0  0  0  0
 11 28  1  0  0  0  0
 11 29  1  0  0  0  0
 12 13  1  0  0  0  0
 12 22  1  0  0  0  0
 12 30  1  0  0  0  0
 12 31  1  0  0  0  0
 13 23  1  0  0  0  0
 13 32  1  0  0  0  0
 13 33  1  0  0  0  0
 14 15  1  0  0  0  0
 14 23  1  0  0  0  0
 14 34  1  0  0  0  0
 14 35  1  0  0  0  0
 15 22  1  0  0  0  0
 15 36  1  0  0  0  0
 15 37  1  0  0  0  0
 16 17  1  0  0  0  0
 16 23  1  0  0  0  0
 16 38  1  0  0  0  0
 16 39  1  0  0  0  0
 17 18  1  0  0  0  0
 17 40  1  0  0  0  0
 17 41  1  0  0  0  0
 18 42  1  0  0  0  0
 19 20  2  0  0  0  0
 19 21  2  0  0  0  0
 23 43  1  0  0  0  0
M  END
> <Name>
ZINC02014486

> <reference>
BDB5013

> <quality>
0.671

> <status>
decoy

> <atoms in reference ligand area>
26

> <score>
-37.2157

$$$$
ZINC15686069
      BALL 1.4.0 (Jan  4 2012, 23:22:29)

 50 51  0999  0  0  0  0  0  0999 V2000
   12.7907   12.1495    1.9944 C   0  0  0  0  0  0  0  0  0  0  0  0
   11.4249   11.5359    2.1652 C   0  0  0  0  0  0  0  0  0  0  0  0
   11.1367   10.8025    3.3027 C   0  0  0  0  0  0  0  0  0  0  0  0
    9.8871   10.2423    3.4676 C   0  0  0  0  0  0  0  0  0  0  0  0
    8.9156   10.4072    2.4785 C   0  0  0  0  0  0  0  0  0  0  0  0
    9.2130   11.1482    1.3336 C   0  0  0  0  0  0  0  0  0  0  0  0
   10.4651   11.7080    1.1840 C   0  0  0  0  0  0  0  0  0  0  0  0
   10.8426   12.6437   -0.2605 S   0  0  0  0  0  0  0  0  0  0  0  0
   12.2597   12.7092   -0.3431 O   0  0  0  0  0  0  0  0  0  0  0  0
   10.0421   12.1141   -1.3083 O   0  0  0  0  0  0  0  0  0  0  0  0
   10.3121   14.1899    0.0052 N   0  0  0  0  0  0  0  0  0  0  0  0
    8.8760   14.4787    0.0223 C   0  0  0  0  0  0  0  0  0  0  0  0
    8.3744   14.6566   -1.4122 C   0  0  0  0  0  0  0  0  0  0  0  0
    7.1499   13.9393   -1.5809 O   0  0  0  0  0  0  0  0  0  0  0  0
   11.2790   15.2687    0.2231 C   0  0  0  0  0  0  0  0  0  0  0  0
   11.9293   15.6475   -1.1090 C   0  0  0  0  0  0  0  0  0  0  0  0
   10.9693   15.5228   -2.1602 O   0  0  0  0  0  0  0  0  0  0  0  0
    7.5762    9.8050    2.6458 C   0  0  0  0  0  0  0  0  0  0  0  0
    6.6035   10.3391    2.1497 O   0  0  0  0  0  0  0  0  0  0  0  0
    7.4335    8.6637    3.3484 N   0  0  0  0  0  0  0  0  0  0  0  0
    6.1618    8.1471    3.5870 C   0  0  0  0  0  0  0  0  0  0  0  0
    5.5817    8.2839    4.8447 C   0  0  0  0  0  0  0  0  0  0  0  0
    4.3231    7.7797    5.0822 C   0  0  0  0  0  0  0  0  0  0  0  0
    3.6320    7.1199    4.0614 C   0  0  0  0  0  0  0  0  0  0  0  0
    4.2202    6.9794    2.8009 C   0  0  0  0  0  0  0  0  0  0  0  0
    5.4769    7.4906    2.5688 C   0  0  0  0  0  0  0  0  0  0  0  0
    2.2857    6.5740    4.3137 C   0  0  0  0  0  0  0  0  0  0  0  0
    2.0782    5.3840    4.1823 O   0  0  0  0  0  0  0  0  0  0  0  0
    1.2855    7.3947    4.6901 O   0  5  0  0  0  0  0  0  0  0  0  0
   12.9886   12.1126    0.9130 H   0  0  0  0  0  0  0  0  0  0  0  0
   13.4842   11.4448    2.4766 H   0  0  0  0  0  0  0  0  0  0  0  0
   12.8745   13.1675    2.4026 H   0  0  0  0  0  0  0  0  0  0  0  0
   11.9058   10.6659    4.0772 H   0  0  0  0  0  0  0  0  0  0  0  0
    9.6565    9.6669    4.3763 H   0  0  0  0  0  0  0  0  0  0  0  0
    8.4507   11.2855    0.5525 H   0  0  0  0  0  0  0  0  0  0  0  0
    8.6934   15.4025    0.5910 H   0  0  0  0  0  0  0  0  0  0  0  0
    8.3395   13.6439    0.4969 H   0  0  0  0  0  0  0  0  0  0  0  0
    8.2034   15.7248   -1.6112 H   0  0  0  0  0  0  0  0  0  0  0  0
    9.1259   14.2682   -2.1154 H   0  0  0  0  0  0  0  0  0  0  0  0
    6.5902   14.0449   -0.7712 H   0  0  0  0  0  0  0  0  0  0  0  0
   12.0548   14.9309    0.9261 H   0  0  0  0  0  0  0  0  0  0  0  0
   10.7624   16.1455    0.6408 H   0  0  0  0  0  0  0  0  0  0  0  0
   12.2863   16.6868   -1.0604 H   0  0  0  0  0  0  0  0  0  0  0  0
   12.7785   14.9771   -1.3075 H   0  0  0  0  0  0  0  0  0  0  0  0
   10.3841   16.3213   -2.1704 H   0  0  0  0  0  0  0  0  0  0  0  0
    8.2645    8.1735    3.7088 H   0  0  0  0  0  0  0  0  0  0  0  0
    6.1296    8.7954    5.6497 H   0  0  0  0  0  0  0  0  0  0  0  0
    3.8616    7.8957    6.0739 H   0  0  0  0  0  0  0  0  0  0  0  0
    3.6793    6.4608    1.9956 H   0  0  0  0  0  0  0  0  0  0  0  0
    5.9405    7.3801    1.5774 H   0  0  0  0  0  0  0  0  0  0  0  0
  1  2  1  0  0  0  0
  1 30  1  0  0  0  0
  1 31  1  0  0  0  0
  1 32  1  0  0  0  0
  2  7  2  0  0  0  0
  2  3  1  0  0  0  0
  3  4  2  0  0  0  0
  3 33  1  0  0  0  0
  4  5  1  0  0  0  0
  4 34  1  0  0  0  0
  5  6  2  0  0  0  0
  5 18  1  0  0  0  0
  6  7  1  0  0  0  0
  6 35  1  0  0  0  0
  7  8  1  0  0  0  0
  8  9  2  0  0  0  0
  8 10  2  0  0  0  0
  8 11  1  0  0  0  0
 11 12  1  0  0  0  0
 11 15  1  0  0  0  0
 12 13  1  0  0  0  0
 12 36  1  0  0  0  0
 12 37  1  0  0  0  0
 13 14  1  0  0  0  0
 13 38  1  0  0  0  0
 13 39  1  0  0  0  0
 14 40  1  0  0  0  0
 15 16  1  0  0  0  0
 15 41  1  0  0  0  0
 15 42  1  0  0  0  0
 16 17  1  0  0  0  0
 16 43  1  0  0  0  0
 16 44  1  0  0  0  0
 17 45  1  0  0  0  0
 18 19  2  0  0  0  0
 18 20  1  0  0  0  0
 20 21  1  0  0  0  0
 20 46  1  0  0  0  0
 21 26  2  0  0  0  0
 21 22  1  0  0  0  0
 22 23  2  0  0  0  0
 22 47  1  0  0  0  0
 23 24  1  0  0  0  0
 23 48  1  0  0  0  0
 24 25  2  0  0  0  0
 24 27  1  0  0  0  0
 25 26  1  0  0  0  0
 25 49  1  0  0  0  0
 26 50  1  0  0  0  0
 27 28  2  0  0  0  0
 27 29  1  0  0  0  0
M  END
> <Name>
ZINC15686069

> <reference>
BDB4965

> <quality>
0.687

> <status>
decoy

> <atoms in reference ligand area>
17

> <score>
-37.1721

$$$$
ZINC17005558
      BALL 1.4.0 (Jan  4 2012, 23:22:29)

 45 45  0999  0  0  0  0  0  0999 V2000
   11.8855   15.0397   -0.6241 C   0  0  0  0  0  0  0  0  0  0  0  0
   11.3315   13.6584   -0.9791 C   0  0  0  0  0  0  0  0  0  0  0  0
   11.9474   13.1852   -2.2974 C   0  0  0  0  0  0  0  0  0  0  0  0
   11.6823   12.6672    0.1323 C   0  0  0  0  0  0  0  0  0  0  0  0
   10.6142   12.9656    1.5679 S   0  0  0  0  0  0  0  0  0  0  0  0
   10.5530   11.3604    2.4107 C   0  0  0  0  0  0  0  0  0  0  0  0
    9.8278   10.3461    1.5239 C   0  0  0  0  0  0  0  0  0  0  0  0
    8.4034   10.8337    1.2514 C   0  0  0  0  0  0  0  0  0  0  0  0
    7.4022    9.8047    1.7805 C   0  0  0  0  0  0  0  0  0  0  0  0
    6.0485   10.0127    1.0983 C   0  0  0  0  0  0  0  0  0  0  0  0
    5.2225   10.8389    1.9211 O   0  0  0  0  0  0  0  0  0  0  0  0
    7.2539    9.9669    3.1925 O   0  0  0  0  0  0  0  0  0  0  0  0
    8.2175   10.9991   -0.1558 O   0  0  0  0  0  0  0  0  0  0  0  0
    9.7796    9.0817    2.1879 O   0  0  0  0  0  0  0  0  0  0  0  0
   11.9170   10.8936    2.6716 N   0  0  0  0  0  0  0  0  0  0  0  0
   12.5870   11.3388    3.7714 C   0  0  0  0  0  0  0  0  0  0  0  0
   13.8473   10.9004    4.0016 C   0  0  0  0  0  0  0  0  0  0  0  0
   14.4314    9.9933    3.0937 C   0  0  0  0  0  0  0  0  0  0  0  0
   13.7406    9.5875    2.0363 N   0  0  0  0  0  0  0  0  0  0  0  0
   12.5017   10.0277    1.8236 C   0  0  0  0  0  0  0  0  0  0  0  0
   11.8873    9.6399    0.8438 O   0  0  0  0  0  0  0  0  0  0  0  0
   15.7101    9.5316    3.3035 N   0  0  0  0  0  0  0  0  0  0  0  0
   12.9050   15.1410   -1.0246 H   0  0  0  0  0  0  0  0  0  0  0  0
   11.9084   15.1568    0.4693 H   0  0  0  0  0  0  0  0  0  0  0  0
   11.2419   15.8171   -1.0617 H   0  0  0  0  0  0  0  0  0  0  0  0
   10.2383   13.7181   -1.0856 H   0  0  0  0  0  0  0  0  0  0  0  0
   13.0126   13.4585   -2.3246 H   0  0  0  0  0  0  0  0  0  0  0  0
   11.4253   13.6630   -3.1396 H   0  0  0  0  0  0  0  0  0  0  0  0
   11.8481   12.0927   -2.3781 H   0  0  0  0  0  0  0  0  0  0  0  0
   12.7343   12.7999    0.4251 H   0  0  0  0  0  0  0  0  0  0  0  0
   11.5293   11.6400   -0.2305 H   0  0  0  0  0  0  0  0  0  0  0  0
   10.0132   11.4667    3.3632 H   0  0  0  0  0  0  0  0  0  0  0  0
   10.3676   10.2398    0.5714 H   0  0  0  0  0  0  0  0  0  0  0  0
    8.2421   11.7965    1.7583 H   0  0  0  0  0  0  0  0  0  0  0  0
    7.7696    8.7907    1.5644 H   0  0  0  0  0  0  0  0  0  0  0  0
    6.1999   10.5008    0.1242 H   0  0  0  0  0  0  0  0  0  0  0  0
    5.5587    9.0392    0.9485 H   0  0  0  0  0  0  0  0  0  0  0  0
    4.3363   10.4125    2.0345 H   0  0  0  0  0  0  0  0  0  0  0  0
    6.5230   10.6085    3.3770 H   0  0  0  0  0  0  0  0  0  0  0  0
    8.6607   10.2565   -0.6377 H   0  0  0  0  0  0  0  0  0  0  0  0
   10.6849    8.8412    2.5081 H   0  0  0  0  0  0  0  0  0  0  0  0
   12.1092   12.0467    4.4648 H   0  0  0  0  0  0  0  0  0  0  0  0
   14.4068   11.2466    4.8832 H   0  0  0  0  0  0  0  0  0  0  0  0
   16.3016    9.2767    2.4998 H   0  0  0  0  0  0  0  0  0  0  0  0
   16.0756    9.4408    4.2621 H   0  0  0  0  0  0  0  0  0  0  0  0
  1  2  1  0  0  0  0
  1 23  1  0  0  0  0
  1 24  1  0  0  0  0
  1 25  1  0  0  0  0
  2  3  1  0  0  0  0
  2  4  1  0  0  0  0
  2 26  1  0  0  0  0
  3 27  1  0  0  0  0
  3 28  1  0  0  0  0
  3 29  1  0  0  0  0
  4  5  1  0  0  0  0
  4 30  1  0  0  0  0
  4 31  1  0  0  0  0
  5  6  1  0  0  0  0
  6  7  1  0  0  0  0
  6 15  1  0  0  0  0
  6 32  1  0  0  0  0
  7  8  1  0  0  0  0
  7 14  1  0  0  0  0
  7 33  1  0  0  0  0
  8  9  1  0  0  0  0
  8 13  1  0  0  0  0
  8 34  1  0  0  0  0
  9 10  1  0  0  0  0
  9 12  1  0  0  0  0
  9 35  1  0  0  0  0
 10 11  1  0  0  0  0
 10 36  1  0  0  0  0
 10 37  1  0  0  0  0
 11 38  1  0  0  0  0
 12 39  1  0  0  0  0
 13 40  1  0  0  0  0
 14 41  1  0  0  0  0
 15 20  1  0  0  0  0
 15 16  1  0  0  0  0
 16 17  2  0  0  0  0
 16 42  1  0  0  0  0
 17 18  1  0  0  0  0
 17 43  1  0  0  0  0
 18 19  2  0  0  0  0
 18 22  1  0  0  0  0
 19 20  1  0  0  0  0
 20 21  2  0  0  0  0
 22 44  1  0  0  0  0
 22 45  1  0  0  0  0
M  END
> <Name>
ZINC17005558

> <reference>
BDB5013

> <quality>
0.714

> <status>
decoy

> <atoms in reference ligand area>
19

> <score>
-37.0429

$$$$
ZINC13354670
      BALL 1.4.0 (Jan  4 2012, 23:22:29)

 43 44  0999  0  0  0  0  0  0999 V2000
    9.9762   15.8149    0.6252 C   0  0  0  0  0  0  0  0  0  0  0  0
    9.4848   16.4648    1.7494 C   0  0  0  0  0  0  0  0  0  0  0  0
    9.4105   15.8137    2.9610 C   0  0  0  0  0  0  0  0  0  0  0  0
    9.8316   14.4915    3.0620 C   0  0  0  0  0  0  0  0  0  0  0  0
   10.3287   13.8377    1.9200 C   0  0  0  0  0  0  0  0  0  0  0  0
   10.3954   14.5168    0.7019 C   0  0  0  0  0  0  0  0  0  0  0  0
   10.6809   12.4825    2.3508 C   0  0  0  0  0  0  0  0  0  0  0  0
   10.3870   12.3974    3.6577 C   0  0  0  0  0  0  0  0  0  0  0  0
    9.8834   13.5899    4.1013 N   0  0  0  0  0  0  0  0  0  0  0  0
   11.2577   11.3893    1.4886 C   0  0  0  0  0  0  0  0  0  0  0  0
   12.0251   10.4212    2.3516 C   0  0  0  0  0  0  0  0  0  0  0  0
   11.5131    9.9620    3.3507 O   0  0  0  0  0  0  0  0  0  0  0  0
   13.2802   10.0655    2.0132 N   0  0  0  0  0  0  0  0  0  0  0  0
   14.0262    9.1242    2.8521 C   0  0  0  0  0  0  0  0  0  0  0  0
   14.1730    9.7024    4.2611 C   0  0  0  0  0  0  0  0  0  0  0  0
   15.4724    9.1935    4.8884 C   0  0  0  0  0  0  0  0  0  0  0  0
   16.3735   10.3819    5.2299 C   0  0  0  0  0  0  0  0  0  0  0  0
   17.2387   10.0339    6.4429 C   0  0  0  0  0  0  0  0  0  0  0  0
   16.7086   10.7481    7.6594 C   0  0  0  0  0  0  0  0  0  0  0  0
   15.5796   10.5415    8.0371 O   0  0  0  0  0  0  0  0  0  0  0  0
   17.4925   11.6095    8.3267 O   0  5  0  0  0  0  0  0  0  0  0  0
   18.6344   10.4476    6.2152 N   0  3  0  0  0  0  0  0  0  0  0  0
   10.0285   16.3494   -0.3347 H   0  0  0  0  0  0  0  0  0  0  0  0
    9.1514   17.5102    1.6716 H   0  0  0  0  0  0  0  0  0  0  0  0
    9.0194   16.3374    3.8458 H   0  0  0  0  0  0  0  0  0  0  0  0
   10.7842   14.0086   -0.1928 H   0  0  0  0  0  0  0  0  0  0  0  0
   10.5298   11.5016    4.2800 H   0  0  0  0  0  0  0  0  0  0  0  0
    9.5874   13.7841    5.0685 H   0  0  0  0  0  0  0  0  0  0  0  0
   11.9344   11.8289    0.7410 H   0  0  0  0  0  0  0  0  0  0  0  0
   10.4423   10.8570    0.9770 H   0  0  0  0  0  0  0  0  0  0  0  0
   13.7151   10.4556    1.1649 H   0  0  0  0  0  0  0  0  0  0  0  0
   13.4836    8.1688    2.9032 H   0  0  0  0  0  0  0  0  0  0  0  0
   15.0237    8.9568    2.4196 H   0  0  0  0  0  0  0  0  0  0  0  0
   14.1986   10.8008    4.2061 H   0  0  0  0  0  0  0  0  0  0  0  0
   13.3199    9.3861    4.8792 H   0  0  0  0  0  0  0  0  0  0  0  0
   15.2417    8.6333    5.8065 H   0  0  0  0  0  0  0  0  0  0  0  0
   15.9907    8.5339    4.1768 H   0  0  0  0  0  0  0  0  0  0  0  0
   17.0219   10.6094    4.3708 H   0  0  0  0  0  0  0  0  0  0  0  0
   15.7525   11.2594    5.4630 H   0  0  0  0  0  0  0  0  0  0  0  0
   17.2053    8.9454    6.5981 H   0  0  0  0  0  0  0  0  0  0  0  0
   18.9481   10.0868    5.3029 H   0  0  0  0  0  0  0  0  0  0  0  0
   19.2283   10.0526    6.9583 H   0  0  0  0  0  0  0  0  0  0  0  0
   18.7027   11.4752    6.2248 H   0  0  0  0  0  0  0  0  0  0  0  0
  1  6  1  0  0  0  0
  1  2  2  0  0  0  0
  1 23  1  0  0  0  0
  2  3  1  0  0  0  0
  2 24  1  0  0  0  0
  3  4  2  0  0  0  0
  3 25  1  0  0  0  0
  4  9  1  0  0  0  0
  4  5  1  0  0  0  0
  5  6  2  0  0  0  0
  5  7  1  0  0  0  0
  6 26  1  0  0  0  0
  7  8  2  0  0  0  0
  7 10  1  0  0  0  0
  8  9  1  0  0  0  0
  8 27  1  0  0  0  0
  9 28  1  0  0  0  0
 10 11  1  0  0  0  0
 10 29  1  0  0  0  0
 10 30  1  0  0  0  0
 11 12  2  0  0  0  0
 11 13  1  0  0  0  0
 13 14  1  0  0  0  0
 13 31  1  0  0  0  0
 14 15  1  0  0  0  0
 14 32  1  0  0  0  0
 14 33  1  0  0  0  0
 15 16  1  0  0  0  0
 15 34  1  0  0  0  0
 15 35  1  0  0  0  0
 16 17  1  0  0  0  0
 16 36  1  0  0  0  0
 16 37  1  0  0  0  0
 17 18  1  0  0  0  0
 17 38  1  0  0  0  0
 17 39  1  0  0  0  0
 18 19  1  0  0  0  0
 18 22  1  0  0  0  0
 18 40  1  0  0  0  0
 19 20  2  0  0  0  0
 19 21  1  0  0  0  0
 22 41  1  0  0  0  0
 22 42  1  0  0  0  0
 22 43  1  0  0  0  0
M  END
> <Name>
ZINC13354670

> <reference>
BDB5021

> <quality>
0.671

> <status>
decoy

> <atoms in reference ligand area>
12

> <score>
-36.8562

$$$$
ZINC06315906
      BALL 1.4.0 (Jan  4 2012, 23:22:29)

 33 35  0999  0  0  0  0  0  0999 V2000
    4.7429    6.2983   -2.8432 C   0  0  0  0  0  0  0  0  0  0  0  0
    3.6339    6.5647   -2.0536 C   0  0  0  0  0  0  0  0  0  0  0  0
    3.6755    7.5595   -1.1031 C   0  0  0  0  0  0  0  0  0  0  0  0
    4.8441    8.3077   -0.9316 C   0  0  0  0  0  0  0  0  0  0  0  0
    5.9645    8.0333   -1.7345 C   0  0  0  0  0  0  0  0  0  0  0  0
    5.9038    7.0270   -2.6870 C   0  0  0  0  0  0  0  0  0  0  0  0
    6.9488    8.9247   -1.3433 N   0  0  0  0  0  0  0  0  0  0  0  0
    6.4237    9.6916   -0.3364 C   0  0  0  0  0  0  0  0  0  0  0  0
    5.1840    9.3255   -0.1013 N   0  0  0  0  0  0  0  0  0  0  0  0
    7.1383   10.7671    0.3705 C   0  0  0  0  0  0  0  0  0  0  0  0
    7.6706   11.9057   -0.2298 C   0  0  0  0  0  0  0  0  0  0  0  0
    8.2717   12.7157    0.6808 N   0  0  0  0  0  0  0  0  0  0  0  0
    8.1481   12.0857    2.0025 C   0  5  0  0  0  0  0  0  0  0  0  0
    7.3871   10.8007    1.7541 C   0  0  0  0  0  0  0  0  0  0  0  0
    7.0620    9.9688    2.5788 O   0  0  0  0  0  0  0  0  0  0  0  0
    8.9041   13.9355    0.4065 N   0  0  0  0  0  0  0  0  0  0  0  0
   10.2363   13.9738    0.2061 C   0  0  0  0  0  0  0  0  0  0  0  0
   10.8928   14.8857    0.6643 O   0  0  0  0  0  0  0  0  0  0  0  0
   10.9049   12.8931   -0.5804 C   0  0  0  0  0  0  0  0  0  0  0  0
   10.3551   11.8215   -0.7283 O   0  0  0  0  0  0  0  0  0  0  0  0
   12.1186   13.1088   -1.1254 N   0  0  0  0  0  0  0  0  0  0  0  0
    7.5973   12.1742   -1.5643 N   0  0  0  0  0  0  0  0  0  0  0  0
    4.6963    5.5006   -3.5991 H   0  0  0  0  0  0  0  0  0  0  0  0
    2.7142    5.9765   -2.1881 H   0  0  0  0  0  0  0  0  0  0  0  0
    2.7923    7.7652   -0.4806 H   0  0  0  0  0  0  0  0  0  0  0  0
    6.7795    6.8104   -3.3164 H   0  0  0  0  0  0  0  0  0  0  0  0
    7.8983    8.9978   -1.7358 H   0  0  0  0  0  0  0  0  0  0  0  0
    7.5760   12.7361    2.6804 H   0  0  0  0  0  0  0  0  0  0  0  0
    8.3508   14.8030    0.3580 H   0  0  0  0  0  0  0  0  0  0  0  0
   12.7738   12.3239   -1.2506 H   0  0  0  0  0  0  0  0  0  0  0  0
   12.3909   14.0585   -1.4168 H   0  0  0  0  0  0  0  0  0  0  0  0
    7.8863   11.4237   -2.2076 H   0  0  0  0  0  0  0  0  0  0  0  0
    7.2695   13.0820   -1.9239 H   0  0  0  0  0  0  0  0  0  0  0  0
  1  6  1  0  0  0  0
  1  2  2  0  0  0  0
  1 23  1  0  0  0  0
  2  3  1  0  0  0  0
  2 24  1  0  0  0  0
  3  4  2  0  0  0  0
  3 25  1  0  0  0  0
  4  9  1  0  0  0  0
  4  5  1  0  0  0  0
  5  6  2  0  0  0  0
  5  7  1  0  0  0  0
  6 26  1  0  0  0  0
  7  8  1  0  0  0  0
  7 27  1  0  0  0  0
  8  9  2  0  0  0  0
  8 10  1  0  0  0  0
 10 14  1  0  0  0  0
 10 11  2  0  0  0  0
 11 12  1  0  0  0  0
 11 22  1  0  0  0  0
 12 13  1  0  0  0  0
 12 16  1  0  0  0  0
 13 14  1  0  0  0  0
 13 28  1  0  0  0  0
 14 15  2  0  0  0  0
 16 17  1  0  0  0  0
 16 29  1  0  0  0  0
 17 18  2  0  0  0  0
 17 19  1  0  0  0  0
 19 20  2  0  0  0  0
 19 21  1  0  0  0  0
 21 30  1  0  0  0  0
 21 31  1  0  0  0  0
 22 32  1  0  0  0  0
 22 33  1  0  0  0  0
M  END
> <Name>
ZINC06315906

> <reference>
BDB5257

> <quality>
0.817

> <status>
decoy

> <atoms in reference ligand area>
15

> <score>
-36.7808

$$$$
ZINC04340004
      BALL 1.4.0 (Jan  4 2012, 23:22:29)

 41 42  0999  0  0  0  0  0  0999 V2000
   10.8047   14.5895   -0.0397 C   0  0  0  0  0  0  0  0  0  0  0  0
   10.8405   15.7913   -0.9876 C   0  0  0  0  0  0  0  0  0  0  0  0
   11.0560   15.3314   -2.3245 O   0  0  0  0  0  0  0  0  0  0  0  0
   12.2668   14.5885   -2.4896 C   0  0  0  0  0  0  0  0  0  0  0  0
   12.2454   13.3744   -1.5571 C   0  0  0  0  0  0  0  0  0  0  0  0
   12.0870   12.6980    0.7634 C   0  0  0  0  0  0  0  0  0  0  0  0
   10.9511   11.7455    0.3851 C   0  0  0  0  0  0  0  0  0  0  0  0
   10.4400   11.0368    1.6411 C   0  0  0  0  0  0  0  0  0  0  0  0
    8.3192    9.8706    1.7093 C   0  0  0  0  0  0  0  0  0  0  0  0
    7.4452   10.6059    0.6534 C   0  0  0  0  0  0  0  0  0  0  0  0
    5.7677   10.0095    1.1283 S   0  0  0  0  0  0  0  0  0  0  0  0
    5.1905   10.9323    2.0417 O   0  0  0  0  0  0  0  0  0  0  0  0
    5.0549    9.6506   -0.0474 O   0  0  0  0  0  0  0  0  0  0  0  0
    6.2340    8.4801    2.0370 C   0  0  0  0  0  0  0  0  0  0  0  0
    7.7722    8.4412    1.8704 C   0  0  0  0  0  0  0  0  0  0  0  0
    8.1047    7.6729    0.7123 O   0  0  0  0  0  0  0  0  0  0  0  0
   12.0766   13.8477   -0.1669 N   0  0  0  0  0  0  0  0  0  0  0  0
    9.7183    9.8126    1.2455 N   0  3  0  0  0  0  0  0  0  0  0  0
   10.6851   14.9403    0.9959 H   0  0  0  0  0  0  0  0  0  0  0  0
    9.9661   13.9308   -0.3095 H   0  0  0  0  0  0  0  0  0  0  0  0
    9.8826   16.3293   -0.9347 H   0  0  0  0  0  0  0  0  0  0  0  0
   11.6586   16.4662   -0.6958 H   0  0  0  0  0  0  0  0  0  0  0  0
   12.3498   14.2483   -3.5325 H   0  0  0  0  0  0  0  0  0  0  0  0
   13.1274   15.2267   -2.2406 H   0  0  0  0  0  0  0  0  0  0  0  0
   13.1935   12.8236   -1.6456 H   0  0  0  0  0  0  0  0  0  0  0  0
   11.4056   12.7172   -1.8268 H   0  0  0  0  0  0  0  0  0  0  0  0
   11.9396   13.0565    1.7928 H   0  0  0  0  0  0  0  0  0  0  0  0
   13.0503   12.1724    0.6873 H   0  0  0  0  0  0  0  0  0  0  0  0
   10.1301   12.3170   -0.0725 H   0  0  0  0  0  0  0  0  0  0  0  0
   11.3214   10.9979   -0.3318 H   0  0  0  0  0  0  0  0  0  0  0  0
   11.2913   10.7693    2.2843 H   0  0  0  0  0  0  0  0  0  0  0  0
    9.7582   11.7037    2.1889 H   0  0  0  0  0  0  0  0  0  0  0  0
    8.2856   10.4060    2.6696 H   0  0  0  0  0  0  0  0  0  0  0  0
    7.6901   10.2658   -0.3636 H   0  0  0  0  0  0  0  0  0  0  0  0
    7.5070   11.6962    0.7853 H   0  0  0  0  0  0  0  0  0  0  0  0
    5.7724    7.6038    1.5585 H   0  0  0  0  0  0  0  0  0  0  0  0
    5.9637    8.5784    3.0987 H   0  0  0  0  0  0  0  0  0  0  0  0
    8.2208    7.9810    2.7632 H   0  0  0  0  0  0  0  0  0  0  0  0
    8.7428    8.1797    0.1501 H   0  0  0  0  0  0  0  0  0  0  0  0
    9.7338    9.7236    0.2195 H   0  0  0  0  0  0  0  0  0  0  0  0
   10.1815    8.9924    1.6621 H   0  0  0  0  0  0  0  0  0  0  0  0
  1  2  1  0  0  0  0
  1 17  1  0  0  0  0
  1 19  1  0  0  0  0
  1 20  1  0  0  0  0
  2  3  1  0  0  0  0
  2 21  1  0  0  0  0
  2 22  1  0  0  0  0
  3  4  1  0  0  0  0
  4  5  1  0  0  0  0
  4 23  1  0  0  0  0
  4 24  1  0  0  0  0
  5 17  1  0  0  0  0
  5 25  1  0  0  0  0
  5 26  1  0  0  0  0
  6  7  1  0  0  0  0
  6 17  1  0  0  0  0
  6 27  1  0  0  0  0
  6 28  1  0  0  0  0
  7  8  1  0  0  0  0
  7 29  1  0  0  0  0
  7 30  1  0  0  0  0
  8 18  1  0  0  0  0
  8 31  1  0  0  0  0
  8 32  1  0  0  0  0
  9 15  1  0  0  0  0
  9 10  1  0  0  0  0
  9 18  1  0  0  0  0
  9 33  1  0  0  0  0
 10 11  1  0  0  0  0
 10 34  1  0  0  0  0
 10 35  1  0  0  0  0
 11 12  2  0  0  0  0
 11 13  2  0  0  0  0
 11 14  1  0  0  0  0
 14 15  1  0  0  0  0
 14 36  1  0  0  0  0
 14 37  1  0  0  0  0
 15 16  1  0  0  0  0
 15 38  1  0  0  0  0
 16 39  1  0  0  0  0
 18 40  1  0  0  0  0
 18 41  1  0  0  0  0
M  END
> <Name>
ZINC04340004

> <reference>
BDB4983

> <quality>
0.803

> <status>
decoy

> <atoms in reference ligand area>
16

> <score>
-36.6706

$$$$
ZINC27469748
      BALL 1.4.0 (Jan  4 2012, 23:22:29)

 44 45  0999  0  0  0  0  0  0999 V2000
   11.6838   14.9888   -0.9948 C   0  0  0  0  0  0  0  0  0  0  0  0
   11.9433   14.4701   -2.2047 C   0  0  0  0  0  0  0  0  0  0  0  0
   11.8721   13.1318   -2.1340 O   0  0  0  0  0  0  0  0  0  0  0  0
   11.5734   12.7349   -0.8931 C   0  0  0  0  0  0  0  0  0  0  0  0
   11.4316   13.8425   -0.1094 C   0  0  0  0  0  0  0  0  0  0  0  0
   11.1010   13.8816    1.3263 C   0  0  0  0  0  0  0  0  0  0  0  0
   10.4155   14.7838    1.7681 O   0  0  0  0  0  0  0  0  0  0  0  0
   11.5584   12.9175    2.1496 N   0  0  0  0  0  0  0  0  0  0  0  0
   11.4576   11.4977    1.7789 C   0  0  0  0  0  0  0  0  0  0  0  0
   12.8374   10.8521    1.9456 C   0  0  0  0  0  0  0  0  0  0  0  0
   13.3326   11.1054    3.3052 N   0  0  0  0  0  0  0  0  0  0  0  0
   13.5226   12.5423    3.5440 C   0  0  0  0  0  0  0  0  0  0  0  0
   12.1709   13.2573    3.4429 C   0  0  0  0  0  0  0  0  0  0  0  0
   14.5723   10.3602    3.5613 C   0  0  0  0  0  0  0  0  0  0  0  0
   14.4458    9.5984    4.8822 C   0  0  0  0  0  0  0  0  0  0  0  0
   15.8999    9.9318    5.9142 S   0  0  0  0  0  0  0  0  0  0  0  0
   17.0612    9.8251    5.1024 O   0  0  0  0  0  0  0  0  0  0  0  0
   15.6711   11.1326    6.6386 O   0  0  0  0  0  0  0  0  0  0  0  0
   15.8878    8.5449    7.0835 C   0  0  0  0  0  0  0  0  0  0  0  0
   17.0721    8.6767    8.0431 C   0  0  0  0  0  0  0  0  0  0  0  0
   17.2483   10.1230    8.4280 C   0  0  0  0  0  0  0  0  0  0  0  0
   18.2881   10.6948    8.1779 O   0  0  0  0  0  0  0  0  0  0  0  0
   16.2502   10.7811    9.0503 N   0  0  0  0  0  0  0  0  0  0  0  0
   11.6640   16.0540   -0.7212 H   0  0  0  0  0  0  0  0  0  0  0  0
   12.1770   15.0494   -3.1102 H   0  0  0  0  0  0  0  0  0  0  0  0
   11.4610   11.6925   -0.5603 H   0  0  0  0  0  0  0  0  0  0  0  0
   11.1347   11.4106    0.7309 H   0  0  0  0  0  0  0  0  0  0  0  0
   10.7338   10.9946    2.4368 H   0  0  0  0  0  0  0  0  0  0  0  0
   12.7574    9.7674    1.7809 H   0  0  0  0  0  0  0  0  0  0  0  0
   13.5367   11.2843    1.2147 H   0  0  0  0  0  0  0  0  0  0  0  0
   13.9435   12.6949    4.5488 H   0  0  0  0  0  0  0  0  0  0  0  0
   14.2111   12.9527    2.7908 H   0  0  0  0  0  0  0  0  0  0  0  0
   12.3240   14.3448    3.5047 H   0  0  0  0  0  0  0  0  0  0  0  0
   11.5161   12.9243    4.2617 H   0  0  0  0  0  0  0  0  0  0  0  0
   14.7473    9.6468    2.7426 H   0  0  0  0  0  0  0  0  0  0  0  0
   15.4171   11.0619    3.6231 H   0  0  0  0  0  0  0  0  0  0  0  0
   13.5388    9.9277    5.4103 H   0  0  0  0  0  0  0  0  0  0  0  0
   14.3806    8.5192    4.6795 H   0  0  0  0  0  0  0  0  0  0  0  0
   14.9490    8.5567    7.6567 H   0  0  0  0  0  0  0  0  0  0  0  0
   15.9683    7.5973    6.5309 H   0  0  0  0  0  0  0  0  0  0  0  0
   17.9867    8.3152    7.5503 H   0  0  0  0  0  0  0  0  0  0  0  0
   16.8809    8.0782    8.9461 H   0  0  0  0  0  0  0  0  0  0  0  0
   15.7322   11.5200    8.5536 H   0  0  0  0  0  0  0  0  0  0  0  0
   16.0053   10.5452   10.0225 H   0  0  0  0  0  0  0  0  0  0  0  0
  1  5  1  0  0  0  0
  1  2  2  0  0  0  0
  1 24  1  0  0  0  0
  2  3  1  0  0  0  0
  2 25  1  0  0  0  0
  3  4  1  0  0  0  0
  4  5  2  0  0  0  0
  4 26  1  0  0  0  0
  5  6  1  0  0  0  0
  6  7  2  0  0  0  0
  6  8  1  0  0  0  0
  8 13  1  0  0  0  0
  8  9  1  0  0  0  0
  9 10  1  0  0  0  0
  9 27  1  0  0  0  0
  9 28  1  0  0  0  0
 10 11  1  0  0  0  0
 10 29  1  0  0  0  0
 10 30  1  0  0  0  0
 11 12  1  0  0  0  0
 11 14  1  0  0  0  0
 12 13  1  0  0  0  0
 12 31  1  0  0  0  0
 12 32  1  0  0  0  0
 13 33  1  0  0  0  0
 13 34  1  0  0  0  0
 14 15  1  0  0  0  0
 14 35  1  0  0  0  0
 14 36  1  0  0  0  0
 15 16  1  0  0  0  0
 15 37  1  0  0  0  0
 15 38  1  0  0  0  0
 16 17  2  0  0  0  0
 16 18  2  0  0  0  0
 16 19  1  0  0  0  0
 19 20  1  0  0  0  0
 19 39  1  0  0  0  0
 19 40  1  0  0  0  0
 20 21  1  0  0  0  0
 20 41  1  0  0  0  0
 20 42  1  0  0  0  0
 21 22  2  0  0  0  0
 21 23  1  0  0  0  0
 23 43  1  0  0  0  0
 23 44  1  0  0  0  0
M  END
> <Name>
ZINC27469748

> <reference>
BDB4942

> <quality>
0.620

> <status>
decoy

> <atoms in reference ligand area>
13

> <score>
-36.6681

$$$$
ZINC09467478
      BALL 1.4.0 (Jan  4 2012, 23:22:29)

 46 48  0999  0  0  0  0  0  0999 V2000
    9.1242   12.2842   -1.1062 C   0  0  0  0  0  0  0  0  0  0  0  0
   10.0451   12.9838   -1.8565 C   0  0  0  0  0  0  0  0  0  0  0  0
   11.3143   13.2292   -1.3491 C   0  0  0  0  0  0  0  0  0  0  0  0
   11.6592   12.7764   -0.0824 C   0  0  0  0  0  0  0  0  0  0  0  0
   10.7421   12.0813    0.6765 C   0  0  0  0  0  0  0  0  0  0  0  0
    9.4651   11.8324    0.1700 C   0  0  0  0  0  0  0  0  0  0  0  0
    8.4787   11.0875    0.9805 C   0  0  0  0  0  0  0  0  0  0  0  0
    8.3411   11.1404    2.2849 N   0  0  0  0  0  0  0  0  0  0  0  0
    7.3859   10.3657    2.6573 N   0  0  0  0  0  0  0  0  0  0  0  0
    6.8546    9.7703    1.6134 C   0  0  0  0  0  0  0  0  0  0  0  0
    7.5275   10.2122    0.5094 N   0  0  0  0  0  0  0  0  0  0  0  0
    7.3042    9.8568   -0.7905 N   0  0  0  0  0  0  0  0  0  0  0  0
    5.5185    8.6218    1.6329 S   0  0  0  0  0  0  0  0  0  0  0  0
    5.3824    8.3281    3.4138 C   0  0  0  0  0  0  0  0  0  0  0  0
    4.2695    7.3469    3.6774 C   0  0  0  0  0  0  0  0  0  0  0  0
    3.8907    7.1500    4.8126 O   0  0  0  0  0  0  0  0  0  0  0  0
    3.6950    6.6881    2.6516 N   0  0  0  0  0  0  0  0  0  0  0  0
    2.6131    5.7341    2.9077 C   0  0  0  0  0  0  0  0  0  0  0  0
    1.3593    6.4914    3.3496 C   0  0  0  0  0  0  0  0  0  0  0  0
    1.1040    6.2279    4.7679 N   0  0  0  0  0  0  0  0  0  0  0  0
    0.5128    7.1691    5.4846 C   0  0  0  0  0  0  0  0  0  0  0  0
    0.1790    8.2327    5.0082 O   0  0  0  0  0  0  0  0  0  0  0  0
    0.2766    6.8233    6.9478 C   0  0  0  0  0  0  0  0  0  0  0  0
    1.0003    5.1352    6.9930 S   0  0  0  0  0  0  0  0  0  0  0  0
    1.4880    5.0424    5.2766 C   0  0  0  0  0  0  0  0  0  0  0  0
    2.0385    4.1231    4.7023 O   0  0  0  0  0  0  0  0  0  0  0  0
   12.2212   13.9136   -2.0943 O   0  0  0  0  0  0  0  0  0  0  0  0
   11.9748   15.3063   -2.2980 C   0  0  0  0  0  0  0  0  0  0  0  0
   10.6227   15.5796   -2.0649 F   0  0  0  0  0  0  0  0  0  0  0  0
   12.7606   16.0531   -1.4137 F   0  0  0  0  0  0  0  0  0  0  0  0
    8.1221   12.0822   -1.5125 H   0  0  0  0  0  0  0  0  0  0  0  0
    9.7742   13.3481   -2.8585 H   0  0  0  0  0  0  0  0  0  0  0  0
   12.6656   12.9728    0.3158 H   0  0  0  0  0  0  0  0  0  0  0  0
   11.0160   11.7231    1.6798 H   0  0  0  0  0  0  0  0  0  0  0  0
    8.1441    9.5644   -1.3099 H   0  0  0  0  0  0  0  0  0  0  0  0
    6.3755    9.8731   -1.2356 H   0  0  0  0  0  0  0  0  0  0  0  0
    5.1637    9.2761    3.9272 H   0  0  0  0  0  0  0  0  0  0  0  0
    6.3302    7.9168    3.7911 H   0  0  0  0  0  0  0  0  0  0  0  0
    4.0168    6.8552    1.6875 H   0  0  0  0  0  0  0  0  0  0  0  0
    2.3955    5.1707    1.9884 H   0  0  0  0  0  0  0  0  0  0  0  0
    2.9181    5.0366    3.7017 H   0  0  0  0  0  0  0  0  0  0  0  0
    0.4977    6.1554    2.7541 H   0  0  0  0  0  0  0  0  0  0  0  0
    1.5104    7.5705    3.1991 H   0  0  0  0  0  0  0  0  0  0  0  0
    0.8466    7.4935    7.6080 H   0  0  0  0  0  0  0  0  0  0  0  0
   -0.7989    6.7763    7.1739 H   0  0  0  0  0  0  0  0  0  0  0  0
   12.2304   15.5762   -3.3333 H   0  0  0  0  0  0  0  0  0  0  0  0
  1  6  2  0  0  0  0
  1  2  1  0  0  0  0
  1 31  1  0  0  0  0
  2  3  2  0  0  0  0
  2 32  1  0  0  0  0
  3  4  1  0  0  0  0
  3 27  1  0  0  0  0
  4  5  2  0  0  0  0
  4 33  1  0  0  0  0
  5  6  1  0  0  0  0
  5 34  1  0  0  0  0
  6  7  1  0  0  0  0
  7 11  1  0  0  0  0
  7  8  2  0  0  0  0
  8  9  1  0  0  0  0
  9 10  2  0  0  0  0
 10 11  1  0  0  0  0
 10 13  1  0  0  0  0
 11 12  1  0  0  0  0
 12 35  1  0  0  0  0
 12 36  1  0  0  0  0
 13 14  1  0  0  0  0
 14 15  1  0  0  0  0
 14 37  1  0  0  0  0
 14 38  1  0  0  0  0
 15 16  2  0  0  0  0
 15 17  1  0  0  0  0
 17 18  1  0  0  0  0
 17 39  1  0  0  0  0
 18 19  1  0  0  0  0
 18 40  1  0  0  0  0
 18 41  1  0  0  0  0
 19 20  1  0  0  0  0
 19 42  1  0  0  0  0
 19 43  1  0  0  0  0
 20 25  1  0  0  0  0
 20 21  1  0  0  0  0
 21 22  2  0  0  0  0
 21 23  1  0  0  0  0
 23 24  1  0  0  0  0
 23 44  1  0  0  0  0
 23 45  1  0  0  0  0
 24 25  1  0  0  0  0
 25 26  2  0  0  0  0
 27 28  1  0  0  0  0
 28 29  1  0  0  0  0
 28 30  1  0  0  0  0
 28 46  1  0  0  0  0
M  END
> <Name>
ZINC09467478

> <reference>
BDB4972

> <quality>
0.665

> <status>
decoy

> <atoms in reference ligand area>
12

> <score>
-36.4462

$$$$
ZINC12362881
      BALL 1.4.0 (Jan  4 2012, 23:22:29)

 26 27  0999  0  0  0  0  0  0999 V2000
    8.1013   11.1781   -1.0581 C   0  0  0  0  0  0  0  0  0  0  0  0
    7.2579   11.5416    0.1781 C   0  5  0  0  0  0  0  0  0  0  0  0
    7.9012   12.4920    0.8845 C   0  0  0  0  0  0  0  0  0  0  0  0
    9.1831   12.7574    0.2249 C   0  0  0  0  0  0  0  0  0  0  0  0
    8.8086   12.4907   -1.2904 C   0  0  0  0  0  0  0  0  0  0  0  0
   10.0871   12.7607   -1.9523 C   0  0  0  0  0  0  0  0  0  0  0  0
   10.7278   13.7136   -1.2467 C   0  5  0  0  0  0  0  0  0  0  0  0
    9.8882   14.0688   -0.0055 C   0  0  0  0  0  0  0  0  0  0  0  0
   12.0287   14.3214   -1.6071 N   0  0  0  0  0  0  0  0  0  0  0  0
   13.0196   14.0785   -0.9418 O   0  0  0  0  0  0  0  0  0  0  0  0
   12.1082   15.0644   -2.5690 O   0  0  0  0  0  0  0  0  0  0  0  0
   10.5567   12.1432   -3.1047 N   0  0  0  0  0  0  0  0  0  0  0  0
    7.8221   13.4988   -1.7118 C   0  0  0  0  0  0  0  0  0  0  0  0
    7.0607   14.2767   -2.0370 N   0  0  0  0  0  0  0  0  0  0  0  0
   10.1694   11.7517    0.6525 C   0  0  0  0  0  0  0  0  0  0  0  0
   10.9306   10.9758    0.9825 N   0  0  0  0  0  0  0  0  0  0  0  0
    7.4319   13.1115    2.0359 N   0  0  0  0  0  0  0  0  0  0  0  0
    5.9536   10.9397    0.5360 N   0  0  0  0  0  0  0  0  0  0  0  0
    5.2888   10.3763   -0.3151 O   0  0  0  0  0  0  0  0  0  0  0  0
    5.5475   11.0036    1.6825 O   0  0  0  0  0  0  0  0  0  0  0  0
    8.8237   10.3859   -0.8117 H   0  0  0  0  0  0  0  0  0  0  0  0
    7.4499   10.9329   -1.9100 H   0  0  0  0  0  0  0  0  0  0  0  0
   10.5427   14.3123    0.8444 H   0  0  0  0  0  0  0  0  0  0  0  0
    9.1638   14.8611   -0.2451 H   0  0  0  0  0  0  0  0  0  0  0  0
    9.9322   11.4338   -3.5140 H   0  0  0  0  0  0  0  0  0  0  0  0
    6.5057   12.8035    2.3649 H   0  0  0  0  0  0  0  0  0  0  0  0
  1  5  1  0  0  0  0
  1  2  1  0  0  0  0
  1 21  1  0  0  0  0
  1 22  1  0  0  0  0
  2 18  1  0  0  0  0
  2  3  1  0  0  0  0
  3  4  1  0  0  0  0
  3 17  2  0  0  0  0
  4  8  1  0  0  0  0
  4  5  1  0  0  0  0
  4 15  1  0  0  0  0
  5 13  1  0  0  0  0
  5  6  1  0  0  0  0
  6  7  1  0  0  0  0
  6 12  2  0  0  0  0
  7  8  1  0  0  0  0
  7  9  1  0  0  0  0
  8 23  1  0  0  0  0
  8 24  1  0  0  0  0
  9 10  2  0  0  0  0
  9 11  2  0  0  0  0
 12 25  1  0  0  0  0
 13 14  3  0  0  0  0
 15 16  3  0  0  0  0
 17 26  1  0  0  0  0
 18 19  2  0  0  0  0
 18 20  2  0  0  0  0
M  END
> <Name>
ZINC12362881

> <reference>
BDB5257

> <quality>
0.789

> <status>
decoy

> <atoms in reference ligand area>
23

> <score>
-35.7163

$$$$
ZINC05114539
      BALL 1.4.0 (Jan  4 2012, 23:22:29)

 40 42  0999  0  0  0  0  0  0999 V2000
    9.2652   12.5861   -4.0822 C   0  0  0  0  0  0  0  0  0  0  0  0
    8.9634   13.7426   -3.1270 C   0  0  0  0  0  0  0  0  0  0  0  0
    8.0512   13.2584   -2.0136 C   0  0  0  0  0  0  0  0  0  0  0  0
    6.8574   13.4756   -2.0351 O   0  0  0  0  0  0  0  0  0  0  0  0
    8.6725   12.5189   -0.9121 C   0  0  0  0  0  0  0  0  0  0  0  0
   10.0606   12.5476   -0.6828 C   0  0  0  0  0  0  0  0  0  0  0  0
   10.3062   11.7501    0.4295 C   0  0  0  0  0  0  0  0  0  0  0  0
    9.1073   11.2532    0.8452 C   0  0  0  0  0  0  0  0  0  0  0  0
    8.1163   11.7223    0.0420 N   0  0  0  0  0  0  0  0  0  0  0  0
    6.8055   11.2087    0.4801 C   0  0  0  0  0  0  0  0  0  0  0  0
    7.1168    9.9940    1.3838 C   0  0  0  0  0  0  0  0  0  0  0  0
    8.5242   10.3483    1.9120 C   0  0  0  0  0  0  0  0  0  0  0  0
    8.4332   11.0401    3.1590 O   0  0  0  0  0  0  0  0  0  0  0  0
   11.6503   11.4800    1.0554 C   0  0  0  0  0  0  0  0  0  0  0  0
   11.6431   11.9376    2.4334 O   0  0  0  0  0  0  0  0  0  0  0  0
   12.3888   13.0209    2.7216 C   0  0  0  0  0  0  0  0  0  0  0  0
   13.1663   13.4601    1.8974 O   0  0  0  0  0  0  0  0  0  0  0  0
   12.2770   13.6149    3.9263 N   0  0  0  0  0  0  0  0  0  0  0  0
   10.9643   13.3295   -1.5575 C   0  0  0  0  0  0  0  0  0  0  0  0
   12.1744   13.2372   -1.5060 O   0  0  0  0  0  0  0  0  0  0  0  0
   10.2565   14.2467   -2.5144 C   0  0  0  0  0  0  0  0  0  0  0  0
   10.7247   15.4036   -2.8007 N   0  0  0  0  0  0  0  0  0  0  0  0
    6.1504    9.9285    2.4943 N   0  3  0  0  0  0  0  0  0  0  0  0
   10.3518   12.5118   -4.2364 H   0  0  0  0  0  0  0  0  0  0  0  0
    8.7706   12.7692   -5.0476 H   0  0  0  0  0  0  0  0  0  0  0  0
    8.8911   11.6456   -3.6515 H   0  0  0  0  0  0  0  0  0  0  0  0
    8.4734   14.5529   -3.6868 H   0  0  0  0  0  0  0  0  0  0  0  0
    6.2160   10.8859   -0.3906 H   0  0  0  0  0  0  0  0  0  0  0  0
    6.2731   11.9785    1.0579 H   0  0  0  0  0  0  0  0  0  0  0  0
    7.0626    9.0217    0.8721 H   0  0  0  0  0  0  0  0  0  0  0  0
    9.1422    9.4565    2.0933 H   0  0  0  0  0  0  0  0  0  0  0  0
    7.4804   11.2137    3.3640 H   0  0  0  0  0  0  0  0  0  0  0  0
   11.8566   10.3998    1.0293 H   0  0  0  0  0  0  0  0  0  0  0  0
   12.4310   12.0162    0.4958 H   0  0  0  0  0  0  0  0  0  0  0  0
   12.0250   13.0566    4.7544 H   0  0  0  0  0  0  0  0  0  0  0  0
   12.4435   14.6271    4.0187 H   0  0  0  0  0  0  0  0  0  0  0  0
   10.2070   15.9996   -3.4621 H   0  0  0  0  0  0  0  0  0  0  0  0
    6.3669    9.1131    3.0852 H   0  0  0  0  0  0  0  0  0  0  0  0
    5.1994    9.8283    2.1115 H   0  0  0  0  0  0  0  0  0  0  0  0
    6.2075   10.7888    3.0577 H   0  0  0  0  0  0  0  0  0  0  0  0
  1  2  1  0  0  0  0
  1 24  1  0  0  0  0
  1 25  1  0  0  0  0
  1 26  1  0  0  0  0
  2 21  1  0  0  0  0
  2  3  1  0  0  0  0
  2 27  1  0  0  0  0
  3  4  2  0  0  0  0
  3  5  1  0  0  0  0
  5  9  1  0  0  0  0
  5  6  2  0  0  0  0
  6  7  1  0  0  0  0
  6 19  1  0  0  0  0
  7  8  2  0  0  0  0
  7 14  1  0  0  0  0
  8 12  1  0  0  0  0
  8  9  1  0  0  0  0
  9 10  1  0  0  0  0
 10 11  1  0  0  0  0
 10 28  1  0  0  0  0
 10 29  1  0  0  0  0
 11 12  1  0  0  0  0
 11 23  1  0  0  0  0
 11 30  1  0  0  0  0
 12 13  1  0  0  0  0
 12 31  1  0  0  0  0
 13 32  1  0  0  0  0
 14 15  1  0  0  0  0
 14 33  1  0  0  0  0
 14 34  1  0  0  0  0
 15 16  1  0  0  0  0
 16 17  2  0  0  0  0
 16 18  1  0  0  0  0
 18 35  1  0  0  0  0
 18 36  1  0  0  0  0
 19 20  2  0  0  0  0
 19 21  1  0  0  0  0
 21 22  2  0  0  0  0
 22 37  1  0  0  0  0
 23 38  1  0  0  0  0
 23 39  1  0  0  0  0
 23 40  1  0  0  0  0
M  END
> <Name>
ZINC05114539

> <reference>
BDB4977

> <quality>
0.711

> <status>
decoy

> <atoms in reference ligand area>
25

> <score>
-35.3562

$$$$
ZINC20836503
      BALL 1.4.0 (Jan  4 2012, 23:22:29)

 40 41  0999  0  0  0  0  0  0999 V2000
   12.0637   13.6408   -2.5128 C   0  0  0  0  0  0  0  0  0  0  0  0
   12.0082   15.1478   -2.2567 C   0  0  0  0  0  0  0  0  0  0  0  0
   12.0298   15.4087   -0.7469 C   0  0  0  0  0  0  0  0  0  0  0  0
   10.9046   14.6259   -0.1074 C   0  0  0  0  0  0  0  0  0  0  0  0
   10.0712   15.1975    0.6785 N   0  0  0  0  0  0  0  0  0  0  0  0
    9.1207   14.4330    1.3679 N   0  0  0  0  0  0  0  0  0  0  0  0
    9.5302   13.5170    2.3274 C   0  0  0  0  0  0  0  0  0  0  0  0
   10.1956   12.3469    2.0890 N   0  0  0  0  0  0  0  0  0  0  0  0
   10.4158   11.7340    3.2898 C   0  0  0  0  0  0  0  0  0  0  0  0
    9.9082   12.4930    4.2313 N   0  0  0  0  0  0  0  0  0  0  0  0
    9.3518   13.6250    3.6215 N   0  0  0  0  0  0  0  0  0  0  0  0
   11.2381   10.1945    3.5316 S   0  0  0  0  0  0  0  0  0  0  0  0
   12.1998    9.9669    2.0105 C   0  0  0  0  0  0  0  0  0  0  0  0
   13.3073    8.9758    2.2599 C   0  0  0  0  0  0  0  0  0  0  0  0
   13.5507    8.6103    3.3904 O   0  0  0  0  0  0  0  0  0  0  0  0
   14.0272    8.4956    1.2266 N   0  0  0  0  0  0  0  0  0  0  0  0
   14.3963    7.1444    1.1981 N   0  5  0  0  0  0  0  0  0  0  0  0
   14.5502    6.5127    0.0175 C   0  0  0  0  0  0  0  0  0  0  0  0
   15.5563    5.8715   -0.2005 O   0  0  0  0  0  0  0  0  0  0  0  0
   13.4721    6.6030   -1.0317 C   0  0  0  0  0  0  0  0  0  0  0  0
   12.3305    7.1922   -0.4777 F   0  0  0  0  0  0  0  0  0  0  0  0
   13.9264    7.3818   -2.1014 F   0  0  0  0  0  0  0  0  0  0  0  0
   13.1586    5.3189   -1.4898 F   0  0  0  0  0  0  0  0  0  0  0  0
   10.7928   13.1491   -0.4153 C   0  0  0  0  0  0  0  0  0  0  0  0
   10.8127   12.9713   -1.9414 C   0  0  0  0  0  0  0  0  0  0  0  0
   12.1164   13.4563   -3.5959 H   0  0  0  0  0  0  0  0  0  0  0  0
   12.9573   13.2206   -2.0282 H   0  0  0  0  0  0  0  0  0  0  0  0
   12.8782   15.6319   -2.7245 H   0  0  0  0  0  0  0  0  0  0  0  0
   11.0833   15.5603   -2.6862 H   0  0  0  0  0  0  0  0  0  0  0  0
   12.9923   15.0784   -0.3291 H   0  0  0  0  0  0  0  0  0  0  0  0
   11.8871   16.4823   -0.5549 H   0  0  0  0  0  0  0  0  0  0  0  0
    8.1182   14.5506    1.1627 H   0  0  0  0  0  0  0  0  0  0  0  0
    8.8845   14.4052    4.1052 H   0  0  0  0  0  0  0  0  0  0  0  0
   12.6331   10.9298    1.7018 H   0  0  0  0  0  0  0  0  0  0  0  0
   11.5423    9.5885    1.2140 H   0  0  0  0  0  0  0  0  0  0  0  0
   14.3061    9.1221    0.4580 H   0  0  0  0  0  0  0  0  0  0  0  0
    9.8483   12.7565   -0.0106 H   0  0  0  0  0  0  0  0  0  0  0  0
   11.6442   12.6132    0.0296 H   0  0  0  0  0  0  0  0  0  0  0  0
   10.8253   11.8987   -2.1851 H   0  0  0  0  0  0  0  0  0  0  0  0
    9.9159   13.4368   -2.3763 H   0  0  0  0  0  0  0  0  0  0  0  0
  1 25  1  0  0  0  0
  1  2  1  0  0  0  0
  1 26  1  0  0  0  0
  1 27  1  0  0  0  0
  2  3  1  0  0  0  0
  2 28  1  0  0  0  0
  2 29  1  0  0  0  0
  3  4  1  0  0  0  0
  3 30  1  0  0  0  0
  3 31  1  0  0  0  0
  4  5  2  0  0  0  0
  4 24  1  0  0  0  0
  5  6  1  0  0  0  0
  6  7  1  0  0  0  0
  6 32  1  0  0  0  0
  7 11  1  0  0  0  0
  7  8  2  0  0  0  0
  8  9  1  0  0  0  0
  9 10  2  0  0  0  0
  9 12  1  0  0  0  0
 10 11  1  0  0  0  0
 11 33  1  0  0  0  0
 12 13  1  0  0  0  0
 13 14  1  0  0  0  0
 13 34  1  0  0  0  0
 13 35  1  0  0  0  0
 14 15  2  0  0  0  0
 14 16  1  0  0  0  0
 16 17  1  0  0  0  0
 16 36  1  0  0  0  0
 17 18  1  0  0  0  0
 18 19  2  0  0  0  0
 18 20  1  0  0  0  0
 20 21  1  0  0  0  0
 20 22  1  0  0  0  0
 20 23  1  0  0  0  0
 24 25  1  0  0  0  0
 24 37  1  0  0  0  0
 24 38  1  0  0  0  0
 25 39  1  0  0  0  0
 25 40  1  0  0  0  0
M  END
> <Name>
ZINC20836503

> <reference>
BDB4952

> <quality>
0.764

> <status>
decoy

> <atoms in reference ligand area>
17

> <score>
-35.2682

$$$$
ZINC19925920
      BALL 1.4.0 (Jan  4 2012, 23:22:29)

 56 59  0999  0  0  0  0  0  0999 V2000
   16.3188   13.5470    4.2761 C   0  0  0  0  0  0  0  0  0  0  0  0
   15.1324   13.3013    5.0337 O   0  0  0  0  0  0  0  0  0  0  0  0
   14.4454   12.1616    4.7529 C   0  0  0  0  0  0  0  0  0  0  0  0
   14.8725   10.9491    5.2718 C   0  0  0  0  0  0  0  0  0  0  0  0
   14.1786    9.7851    4.9903 C   0  0  0  0  0  0  0  0  0  0  0  0
   13.0556    9.8201    4.1907 C   0  0  0  0  0  0  0  0  0  0  0  0
   12.6135   11.0351    3.6603 C   0  0  0  0  0  0  0  0  0  0  0  0
   13.3193   12.2116    3.9405 C   0  0  0  0  0  0  0  0  0  0  0  0
   12.9014   13.3977    3.4249 O   0  0  0  0  0  0  0  0  0  0  0  0
   12.6353   13.4372    2.0214 C   0  0  0  0  0  0  0  0  0  0  0  0
   11.4139   11.0770    2.8053 C   0  0  0  0  0  0  0  0  0  0  0  0
   11.2973   10.2522    1.8096 N   0  0  0  0  0  0  0  0  0  0  0  0
   10.1543   10.2881    1.0002 N   0  0  0  0  0  0  0  0  0  0  0  0
    9.0917   11.0314    1.3674 C   0  0  0  0  0  0  0  0  0  0  0  0
    9.0940   11.6088    2.4384 O   0  0  0  0  0  0  0  0  0  0  0  0
    7.9292   11.1447    0.4732 C   0  0  0  0  0  0  0  0  0  0  0  0
    7.6234   12.1886   -0.3609 C   0  0  0  0  0  0  0  0  0  0  0  0
    6.4866   11.8586   -0.9748 N   0  0  0  0  0  0  0  0  0  0  0  0
    6.0991   10.7030   -0.5679 N   0  0  0  0  0  0  0  0  0  0  0  0
    6.9256   10.2242    0.2948 N   0  0  0  0  0  0  0  0  0  0  0  0
    6.8190    8.9876    0.9386 C   0  0  0  0  0  0  0  0  0  0  0  0
    7.1032    7.6807    0.3387 C   0  0  0  0  0  0  0  0  0  0  0  0
    6.8934    6.7612    1.2404 N   0  0  0  0  0  0  0  0  0  0  0  0
    6.4764    7.4074    2.4302 O   0  0  0  0  0  0  0  0  0  0  0  0
    6.4555    8.8009    2.1760 N   0  0  0  0  0  0  0  0  0  0  0  0
    7.5239    7.4589   -0.9676 N   0  0  0  0  0  0  0  0  0  0  0  0
    8.4154   13.4570   -0.5477 C   0  0  0  0  0  0  0  0  0  0  0  0
    9.6701   13.1522   -1.2480 N   0  0  0  0  0  0  0  0  0  0  0  0
   10.7563   14.0303   -0.7893 C   0  0  0  0  0  0  0  0  0  0  0  0
   12.0553   13.6398   -1.4993 C   0  0  0  0  0  0  0  0  0  0  0  0
   11.8601   13.7140   -2.9141 O   0  0  0  0  0  0  0  0  0  0  0  0
   10.8101   12.8708   -3.3954 C   0  0  0  0  0  0  0  0  0  0  0  0
    9.4984   13.2535   -2.7046 C   0  0  0  0  0  0  0  0  0  0  0  0
   16.0784   14.3657    3.5819 H   0  0  0  0  0  0  0  0  0  0  0  0
   16.4979   12.6405    3.6793 H   0  0  0  0  0  0  0  0  0  0  0  0
   17.1843   13.7932    4.9087 H   0  0  0  0  0  0  0  0  0  0  0  0
   15.7675   10.9119    5.9103 H   0  0  0  0  0  0  0  0  0  0  0  0
   14.5244    8.8274    5.4065 H   0  0  0  0  0  0  0  0  0  0  0  0
   12.5080    8.8920    3.9704 H   0  0  0  0  0  0  0  0  0  0  0  0
   13.3408   12.7352    1.5530 H   0  0  0  0  0  0  0  0  0  0  0  0
   12.8960   14.4518    1.6857 H   0  0  0  0  0  0  0  0  0  0  0  0
   11.5923   13.1857    1.7789 H   0  0  0  0  0  0  0  0  0  0  0  0
   10.6173   11.8072    3.0109 H   0  0  0  0  0  0  0  0  0  0  0  0
   10.1260    9.7465    0.1246 H   0  0  0  0  0  0  0  0  0  0  0  0
    7.1047    6.6445   -1.4389 H   0  0  0  0  0  0  0  0  0  0  0  0
    8.2089    8.0597   -1.4478 H   0  0  0  0  0  0  0  0  0  0  0  0
    8.6422   13.8970    0.4347 H   0  0  0  0  0  0  0  0  0  0  0  0
    7.8281   14.1718   -1.1429 H   0  0  0  0  0  0  0  0  0  0  0  0
   10.8852   13.9197    0.2975 H   0  0  0  0  0  0  0  0  0  0  0  0
   10.5088   15.0754   -1.0264 H   0  0  0  0  0  0  0  0  0  0  0  0
   12.8579   14.3312   -1.2030 H   0  0  0  0  0  0  0  0  0  0  0  0
   12.3326   12.6125   -1.2209 H   0  0  0  0  0  0  0  0  0  0  0  0
   10.7034   13.0009   -4.4825 H   0  0  0  0  0  0  0  0  0  0  0  0
   11.0491   11.8206   -3.1718 H   0  0  0  0  0  0  0  0  0  0  0  0
    8.7001   12.5697   -3.0289 H   0  0  0  0  0  0  0  0  0  0  0  0
    9.2307   14.2861   -2.9731 H   0  0  0  0  0  0  0  0  0  0  0  0
  1  2  1  0  0  0  0
  1 34  1  0  0  0  0
  1 35  1  0  0  0  0
  1 36  1  0  0  0  0
  2  3  1  0  0  0  0
  3  8  2  0  0  0  0
  3  4  1  0  0  0  0
  4  5  2  0  0  0  0
  4 37  1  0  0  0  0
  5  6  1  0  0  0  0
  5 38  1  0  0  0  0
  6  7  2  0  0  0  0
  6 39  1  0  0  0  0
  7  8  1  0  0  0  0
  7 11  1  0  0  0  0
  8  9  1  0  0  0  0
  9 10  1  0  0  0  0
 10 40  1  0  0  0  0
 10 41  1  0  0  0  0
 10 42  1  0  0  0  0
 11 12  2  0  0  0  0
 11 43  1  0  0  0  0
 12 13  1  0  0  0  0
 13 14  1  0  0  0  0
 13 44  1  0  0  0  0
 14 15  2  0  0  0  0
 14 16  1  0  0  0  0
 16 20  1  0  0  0  0
 16 17  2  0  0  0  0
 17 18  1  0  0  0  0
 17 27  1  0  0  0  0
 18 19  2  0  0  0  0
 19 20  1  0  0  0  0
 20 21  1  0  0  0  0
 21 25  2  0  0  0  0
 21 22  1  0  0  0  0
 22 23  2  0  0  0  0
 22 26  1  0  0  0  0
 23 24  1  0  0  0  0
 24 25  1  0  0  0  0
 26 45  1  0  0  0  0
 26 46  1  0  0  0  0
 27 28  1  0  0  0  0
 27 47  1  0  0  0  0
 27 48  1  0  0  0  0
 28 33  1  0  0  0  0
 28 29  1  0  0  0  0
 29 30  1  0  0  0  0
 29 49  1  0  0  0  0
 29 50  1  0  0  0  0
 30 31  1  0  0  0  0
 30 51  1  0  0  0  0
 30 52  1  0  0  0  0
 31 32  1  0  0  0  0
 32 33  1  0  0  0  0
 32 53  1  0  0  0  0
 32 54  1  0  0  0  0
 33 55  1  0  0  0  0
 33 56  1  0  0  0  0
M  END
> <Name>
ZINC19925920

> <reference>
BDB4968

> <quality>
0.786

> <status>
decoy

> <atoms in reference ligand area>
23

> <score>
-35.0247

$$$$
ZINC07417784
      BALL 1.4.0 (Jan  4 2012, 23:22:29)

 29 30  0999  0  0  0  0  0  0999 V2000
    6.4521   11.7800   -1.8799 C   0  0  0  0  0  0  0  0  0  0  0  0
    6.9030   11.1660   -0.6936 C   0  0  0  0  0  0  0  0  0  0  0  0
    6.3361   10.2372    0.2150 C   0  0  0  0  0  0  0  0  0  0  0  0
    5.2132    9.7977    0.0403 O   0  0  0  0  0  0  0  0  0  0  0  0
    7.0734    9.8521    1.2805 N   0  0  0  0  0  0  0  0  0  0  0  0
    8.3300   10.3519    1.4656 C   0  0  0  0  0  0  0  0  0  0  0  0
    8.8682   11.2132    0.6311 N   0  0  0  0  0  0  0  0  0  0  0  0
    8.2009   11.6436   -0.4480 C   0  0  0  0  0  0  0  0  0  0  0  0
    8.4955   12.5063   -1.4570 N   0  0  0  0  0  0  0  0  0  0  0  0
    7.3948   12.5653   -2.3204 N   0  0  0  0  0  0  0  0  0  0  0  0
    9.7497   13.2471   -1.6137 C   0  0  0  0  0  0  0  0  0  0  0  0
   10.9133   12.2607   -1.7321 C   0  0  0  0  0  0  0  0  0  0  0  0
   12.0985   12.8561   -1.2004 O   0  0  0  0  0  0  0  0  0  0  0  0
    9.2599    9.8256    2.8666 S   0  0  0  0  0  0  0  0  0  0  0  0
    7.9213    9.2139    3.9204 C   0  0  0  0  0  0  0  0  0  0  0  0
    8.3070    9.3928    5.3901 C   0  0  0  0  0  0  0  0  0  0  0  0
    7.1274    9.5945    6.1710 O   0  0  0  0  0  0  0  0  0  0  0  0
    5.4716   11.6231   -2.3533 H   0  0  0  0  0  0  0  0  0  0  0  0
    6.6852    9.1784    1.9559 H   0  0  0  0  0  0  0  0  0  0  0  0
    9.6996   13.8650   -2.5224 H   0  0  0  0  0  0  0  0  0  0  0  0
    9.9063   13.8944   -0.7383 H   0  0  0  0  0  0  0  0  0  0  0  0
   11.0741   12.0070   -2.7902 H   0  0  0  0  0  0  0  0  0  0  0  0
   10.6779   11.3465   -1.1675 H   0  0  0  0  0  0  0  0  0  0  0  0
   12.8091   12.1707   -1.1275 H   0  0  0  0  0  0  0  0  0  0  0  0
    7.0019    9.7806    3.7116 H   0  0  0  0  0  0  0  0  0  0  0  0
    7.7494    8.1472    3.7144 H   0  0  0  0  0  0  0  0  0  0  0  0
    8.9679   10.2660    5.4932 H   0  0  0  0  0  0  0  0  0  0  0  0
    8.8309    8.4926    5.7439 H   0  0  0  0  0  0  0  0  0  0  0  0
    7.2439   10.3914    6.7467 H   0  0  0  0  0  0  0  0  0  0  0  0
  1 10  2  0  0  0  0
  1  2  1  0  0  0  0
  1 18  1  0  0  0  0
  2  8  2  0  0  0  0
  2  3  1  0  0  0  0
  3  4  2  0  0  0  0
  3  5  1  0  0  0  0
  5  6  1  0  0  0  0
  5 19  1  0  0  0  0
  6  7  2  0  0  0  0
  6 14  1  0  0  0  0
  7  8  1  0  0  0  0
  8  9  1  0  0  0  0
  9 10  1  0  0  0  0
  9 11  1  0  0  0  0
 11 12  1  0  0  0  0
 11 20  1  0  0  0  0
 11 21  1  0  0  0  0
 12 13  1  0  0  0  0
 12 22  1  0  0  0  0
 12 23  1  0  0  0  0
 13 24  1  0  0  0  0
 14 15  1  0  0  0  0
 15 16  1  0  0  0  0
 15 25  1  0  0  0  0
 15 26  1  0  0  0  0
 16 17  1  0  0  0  0
 16 27  1  0  0  0  0
 16 28  1  0  0  0  0
 17 29  1  0  0  0  0
M  END
> <Name>
ZINC07417784

> <reference>
BDB5233

> <quality>
0.736

> <status>
decoy

> <atoms in reference ligand area>
15

> <score>
-34.7329

$$$$
ZINC19944023
      BALL 1.4.0 (Jan  4 2012, 23:22:29)

 31 32  0999  0  0  0  0  0  0999 V2000
    9.4985   11.7674    1.1824 C   0  0  0  0  0  0  0  0  0  0  0  0
    9.0048   12.1971   -0.0380 C   0  0  0  0  0  0  0  0  0  0  0  0
    7.6988   11.8753   -0.4276 C   0  0  0  0  0  0  0  0  0  0  0  0
    6.8947   11.1358    0.3862 C   0  0  0  0  0  0  0  0  0  0  0  0
    7.3746   10.6899    1.6298 C   0  0  0  0  0  0  0  0  0  0  0  0
    8.6917   11.0125    2.0252 C   0  0  0  0  0  0  0  0  0  0  0  0
    9.1620   10.5753    3.2410 N   0  3  0  0  0  0  0  0  0  0  0  0
   10.4794   10.8895    3.6543 O   0  0  0  0  0  0  0  0  0  0  0  0
    8.3558    9.8459    4.0336 C   0  0  0  0  0  0  0  0  0  0  0  0
    7.0476    9.5375    3.6161 C   0  0  0  0  0  0  0  0  0  0  0  0
    6.5939    9.9556    2.4386 N   0  0  0  0  0  0  0  0  0  0  0  0
    5.4603    9.6745    2.0929 O   0  0  0  0  0  0  0  0  0  0  0  0
    6.1977    8.7596    4.4667 C   0  0  0  0  0  0  0  0  0  0  0  0
    5.5236    8.1426    5.1414 N   0  0  0  0  0  0  0  0  0  0  0  0
    8.8082    9.4033    5.2460 N   0  0  0  0  0  0  0  0  0  0  0  0
    7.2322   12.3018   -1.6215 F   0  0  0  0  0  0  0  0  0  0  0  0
    9.8120   12.9532   -0.8828 N   0  0  0  0  0  0  0  0  0  0  0  0
    9.7878   12.7127   -2.3277 C   0  0  0  0  0  0  0  0  0  0  0  0
   11.2103   12.8036   -2.8837 C   0  0  0  0  0  0  0  0  0  0  0  0
   12.1326   12.9789   -1.8063 O   0  0  0  0  0  0  0  0  0  0  0  0
   10.5253   12.0226    1.4835 H   0  0  0  0  0  0  0  0  0  0  0  0
    5.8706   10.8879    0.0704 H   0  0  0  0  0  0  0  0  0  0  0  0
    4.8722   10.1572    2.7264 H   0  0  0  0  0  0  0  0  0  0  0  0
    9.2772    8.4891    5.3187 H   0  0  0  0  0  0  0  0  0  0  0  0
    8.6798    9.9844    6.0867 H   0  0  0  0  0  0  0  0  0  0  0  0
   10.4264   13.6818   -0.4923 H   0  0  0  0  0  0  0  0  0  0  0  0
    9.1551   13.4685   -2.8158 H   0  0  0  0  0  0  0  0  0  0  0  0
    9.3806   11.7102   -2.5259 H   0  0  0  0  0  0  0  0  0  0  0  0
   11.4521   11.8775   -3.4258 H   0  0  0  0  0  0  0  0  0  0  0  0
   11.2827   13.6600   -3.5703 H   0  0  0  0  0  0  0  0  0  0  0  0
   12.6714   12.1559   -1.6947 H   0  0  0  0  0  0  0  0  0  0  0  0
  1  6  2  0  0  0  0
  1  2  1  0  0  0  0
  1 21  1  0  0  0  0
  2  3  2  0  0  0  0
  2 17  1  0  0  0  0
  3  4  1  0  0  0  0
  3 16  1  0  0  0  0
  4  5  2  0  0  0  0
  4 22  1  0  0  0  0
  5 11  1  0  0  0  0
  5  6  1  0  0  0  0
  6  7  1  0  0  0  0
  7  8  2  0  0  0  0
  7  9  1  0  0  0  0
  9 10  2  0  0  0  0
  9 15  1  0  0  0  0
 10 11  1  0  0  0  0
 10 13  1  0  0  0  0
 11 12  1  0  0  0  0
 12 23  1  0  0  0  0
 13 14  3  0  0  0  0
 15 24  1  0  0  0  0
 15 25  1  0  0  0  0
 17 18  1  0  0  0  0
 17 26  1  0  0  0  0
 18 19  1  0  0  0  0
 18 27  1  0  0  0  0
 18 28  1  0  0  0  0
 19 20  1  0  0  0  0
 19 29  1  0  0  0  0
 19 30  1  0  0  0  0
 20 31  1  0  0  0  0
M  END
> <Name>
ZINC19944023

> <reference>
BDB5008

> <quality>
0.798

> <status>
decoy

> <atoms in reference ligand area>
20

> <score>
-34.7089

$$$$
ZINC06094146
      BALL 1.4.0 (Jan  4 2012, 23:22:29)

 41 42  0999  0  0  0  0  0  0999 V2000
    9.9825   16.1698    0.9805 C   0  0  0  0  0  0  0  0  0  0  0  0
   10.2974   15.3376   -0.0707 C   0  0  0  0  0  0  0  0  0  0  0  0
   10.2347   13.9580    0.0920 C   0  0  0  0  0  0  0  0  0  0  0  0
    9.8490   13.4234    1.3345 C   0  0  0  0  0  0  0  0  0  0  0  0
    9.5320   14.2766    2.3934 C   0  0  0  0  0  0  0  0  0  0  0  0
    9.6000   15.6437    2.2115 C   0  0  0  0  0  0  0  0  0  0  0  0
    9.2924   16.4797    3.2390 O   0  0  0  0  0  0  0  0  0  0  0  0
    9.8848   11.9672    1.1779 C   0  0  0  0  0  0  0  0  0  0  0  0
   10.2698   11.7168   -0.0835 C   0  0  0  0  0  0  0  0  0  0  0  0
   10.4836   12.8932   -0.7483 N   0  0  0  0  0  0  0  0  0  0  0  0
    9.5531   10.9440    2.2335 C   0  0  0  0  0  0  0  0  0  0  0  0
    8.0426   10.7015    2.2519 C   0  0  0  0  0  0  0  0  0  0  0  0
    7.6915    9.8959    3.4241 N   0  0  0  0  0  0  0  0  0  0  0  0
    6.4496    9.3865    3.5442 C   0  0  0  0  0  0  0  0  0  0  0  0
    5.6226    9.5948    2.6818 O   0  0  0  0  0  0  0  0  0  0  0  0
    6.0884    8.5578    4.7501 C   0  0  0  0  0  0  0  0  0  0  0  0
    4.5670    8.5238    4.9084 C   0  0  0  0  0  0  0  0  0  0  0  0
    4.1406    7.1561    5.4456 C   0  0  0  0  0  0  0  0  0  0  0  0
    2.7677    7.2626    6.0578 C   0  0  0  0  0  0  0  0  0  0  0  0
    2.3386    8.3405    6.3949 O   0  0  0  0  0  0  0  0  0  0  0  0
    2.0217    6.1599    6.2286 O   0  5  0  0  0  0  0  0  0  0  0  0
    6.7170    9.1504    5.9437 N   0  3  0  0  0  0  0  0  0  0  0  0
   10.0337   17.2604    0.8463 H   0  0  0  0  0  0  0  0  0  0  0  0
   10.5985   15.7641   -1.0388 H   0  0  0  0  0  0  0  0  0  0  0  0
    9.2299   13.8623    3.3665 H   0  0  0  0  0  0  0  0  0  0  0  0
    9.3206   15.9109    4.0488 H   0  0  0  0  0  0  0  0  0  0  0  0
   10.3949   10.7142   -0.5182 H   0  0  0  0  0  0  0  0  0  0  0  0
   10.7854   12.9719   -1.7299 H   0  0  0  0  0  0  0  0  0  0  0  0
   10.0725   10.0013    2.0066 H   0  0  0  0  0  0  0  0  0  0  0  0
    9.8764   11.3131    3.2179 H   0  0  0  0  0  0  0  0  0  0  0  0
    7.5167   11.6665    2.2999 H   0  0  0  0  0  0  0  0  0  0  0  0
    7.7448   10.1668    1.3379 H   0  0  0  0  0  0  0  0  0  0  0  0
    8.3938    9.7189    4.1564 H   0  0  0  0  0  0  0  0  0  0  0  0
    6.4521    7.5274    4.6244 H   0  0  0  0  0  0  0  0  0  0  0  0
    4.2538    9.3079    5.6135 H   0  0  0  0  0  0  0  0  0  0  0  0
    4.0916    8.6977    3.9318 H   0  0  0  0  0  0  0  0  0  0  0  0
    4.8573    6.8216    6.2101 H   0  0  0  0  0  0  0  0  0  0  0  0
    4.1182    6.4288    4.6208 H   0  0  0  0  0  0  0  0  0  0  0  0
    6.4810    8.5908    6.7757 H   0  0  0  0  0  0  0  0  0  0  0  0
    6.3813   10.1158    6.0711 H   0  0  0  0  0  0  0  0  0  0  0  0
    7.7394    9.1602    5.8201 H   0  0  0  0  0  0  0  0  0  0  0  0
  1  6  2  0  0  0  0
  1  2  1  0  0  0  0
  1 23  1  0  0  0  0
  2  3  2  0  0  0  0
  2 24  1  0  0  0  0
  3 10  1  0  0  0  0
  3  4  1  0  0  0  0
  4  5  2  0  0  0  0
  4  8  1  0  0  0  0
  5  6  1  0  0  0  0
  5 25  1  0  0  0  0
  6  7  1  0  0  0  0
  7 26  1  0  0  0  0
  8  9  2  0  0  0  0
  8 11  1  0  0  0  0
  9 10  1  0  0  0  0
  9 27  1  0  0  0  0
 10 28  1  0  0  0  0
 11 12  1  0  0  0  0
 11 29  1  0  0  0  0
 11 30  1  0  0  0  0
 12 13  1  0  0  0  0
 12 31  1  0  0  0  0
 12 32  1  0  0  0  0
 13 14  1  0  0  0  0
 13 33  1  0  0  0  0
 14 15  2  0  0  0  0
 14 16  1  0  0  0  0
 16 17  1  0  0  0  0
 16 22  1  0  0  0  0
 16 34  1  0  0  0  0
 17 18  1  0  0  0  0
 17 35  1  0  0  0  0
 17 36  1  0  0  0  0
 18 19  1  0  0  0  0
 18 37  1  0  0  0  0
 18 38  1  0  0  0  0
 19 20  2  0  0  0  0
 19 21  1  0  0  0  0
 22 39  1  0  0  0  0
 22 40  1  0  0  0  0
 22 41  1  0  0  0  0
M  END
> <Name>
ZINC06094146

> <reference>
BDB5023

> <quality>
0.668

> <status>
decoy

> <atoms in reference ligand area>
13

> <score>
-34.3939

$$$$
ZINC19848534
      BALL 1.4.0 (Jan  4 2012, 23:22:29)

 47 49  0999  0  0  0  0  0  0999 V2000
    5.3696    7.0677    1.5668 C   0  0  0  0  0  0  0  0  0  0  0  0
    4.6877    6.1448    0.7950 C   0  0  0  0  0  0  0  0  0  0  0  0
    3.3967    5.7760    1.1348 C   0  0  0  0  0  0  0  0  0  0  0  0
    2.7882    6.3366    2.2556 C   0  0  0  0  0  0  0  0  0  0  0  0
    3.4772    7.2603    3.0240 C   0  0  0  0  0  0  0  0  0  0  0  0
    4.7678    7.6199    2.6817 C   0  0  0  0  0  0  0  0  0  0  0  0
    5.5175    8.6209    3.5225 C   0  0  0  0  0  0  0  0  0  0  0  0
    6.4547    9.3645    2.6770 N   0  0  0  0  0  0  0  0  0  0  0  0
    6.0119   10.3853    1.9165 C   0  0  0  0  0  0  0  0  0  0  0  0
    4.8370   10.6886    1.9322 O   0  0  0  0  0  0  0  0  0  0  0  0
    6.9680   11.1439    1.0539 C   0  0  0  0  0  0  0  0  0  0  0  0
    6.9152   11.0331   -0.1534 O   0  0  0  0  0  0  0  0  0  0  0  0
    7.8890   11.9510    1.6168 N   0  0  0  0  0  0  0  0  0  0  0  0
    8.8262   12.6946    0.7714 C   0  0  0  0  0  0  0  0  0  0  0  0
    9.2858   11.8049   -0.3853 C   0  0  0  0  0  0  0  0  0  0  0  0
    9.8164   12.6444   -1.4679 N   0  0  0  0  0  0  0  0  0  0  0  0
    8.7309   13.3310   -2.1821 C   0  0  0  0  0  0  0  0  0  0  0  0
    9.3169   14.1300   -3.3486 C   0  0  0  0  0  0  0  0  0  0  0  0
   10.2979   15.0955   -2.8337 N   0  3  0  0  0  0  0  0  0  0  0  0
   11.3834   14.4089   -2.1194 C   0  0  0  0  0  0  0  0  0  0  0  0
   10.7975   13.6099   -0.9531 C   0  0  0  0  0  0  0  0  0  0  0  0
    1.5318    5.8168    2.3756 O   0  0  0  0  0  0  0  0  0  0  0  0
    1.5263    4.6319    1.5575 C   0  0  0  0  0  0  0  0  0  0  0  0
    2.5214    4.9049    0.5531 O   0  0  0  0  0  0  0  0  0  0  0  0
    6.3932    7.3629    1.2927 H   0  0  0  0  0  0  0  0  0  0  0  0
    5.1709    5.7035   -0.0891 H   0  0  0  0  0  0  0  0  0  0  0  0
    2.9976    7.7079    3.9070 H   0  0  0  0  0  0  0  0  0  0  0  0
    4.8044    9.3211    3.9822 H   0  0  0  0  0  0  0  0  0  0  0  0
    6.0748    8.0945    4.3114 H   0  0  0  0  0  0  0  0  0  0  0  0
    7.4519    9.1071    2.6636 H   0  0  0  0  0  0  0  0  0  0  0  0
    7.9339   12.0449    2.6415 H   0  0  0  0  0  0  0  0  0  0  0  0
    8.3275   13.5889    0.3696 H   0  0  0  0  0  0  0  0  0  0  0  0
    9.6987   12.9983    1.3684 H   0  0  0  0  0  0  0  0  0  0  0  0
    8.4333   11.2197   -0.7604 H   0  0  0  0  0  0  0  0  0  0  0  0
   10.0726   11.1220   -0.0326 H   0  0  0  0  0  0  0  0  0  0  0  0
    8.0181   12.5877   -2.5687 H   0  0  0  0  0  0  0  0  0  0  0  0
    8.2122   14.0147   -1.4940 H   0  0  0  0  0  0  0  0  0  0  0  0
    8.5104   14.6688   -3.8675 H   0  0  0  0  0  0  0  0  0  0  0  0
    9.8122   13.4439   -4.0514 H   0  0  0  0  0  0  0  0  0  0  0  0
   10.6940   15.6300   -3.6201 H   0  0  0  0  0  0  0  0  0  0  0  0
    9.8283   15.7486   -2.1903 H   0  0  0  0  0  0  0  0  0  0  0  0
   12.0970   15.1514   -1.7327 H   0  0  0  0  0  0  0  0  0  0  0  0
   11.9013   13.7254   -2.8083 H   0  0  0  0  0  0  0  0  0  0  0  0
   11.6055   13.0727   -0.4347 H   0  0  0  0  0  0  0  0  0  0  0  0
   10.3029   14.2966   -0.2503 H   0  0  0  0  0  0  0  0  0  0  0  0
    0.5405    4.4970    1.0883 H   0  0  0  0  0  0  0  0  0  0  0  0
    1.8198    3.7559    2.1546 H   0  0  0  0  0  0  0  0  0  0  0  0
  1  6  2  0  0  0  0
  1  2  1  0  0  0  0
  1 25  1  0  0  0  0
  2  3  2  0  0  0  0
  2 26  1  0  0  0  0
  3 24  1  0  0  0  0
  3  4  1  0  0  0  0
  4  5  2  0  0  0  0
  4 22  1  0  0  0  0
  5  6  1  0  0  0  0
  5 27  1  0  0  0  0
  6  7  1  0  0  0  0
  7  8  1  0  0  0  0
  7 28  1  0  0  0  0
  7 29  1  0  0  0  0
  8  9  1  0  0  0  0
  8 30  1  0  0  0  0
  9 10  2  0  0  0  0
  9 11  1  0  0  0  0
 11 12  2  0  0  0  0
 11 13  1  0  0  0  0
 13 14  1  0  0  0  0
 13 31  1  0  0  0  0
 14 15  1  0  0  0  0
 14 32  1  0  0  0  0
 14 33  1  0  0  0  0
 15 16  1  0  0  0  0
 15 34  1  0  0  0  0
 15 35  1  0  0  0  0
 16 21  1  0  0  0  0
 16 17  1  0  0  0  0
 17 18  1  0  0  0  0
 17 36  1  0  0  0  0
 17 37  1  0  0  0  0
 18 19  1  0  0  0  0
 18 38  1  0  0  0  0
 18 39  1  0  0  0  0
 19 20  1  0  0  0  0
 19 40  1  0  0  0  0
 19 41  1  0  0  0  0
 20 21  1  0  0  0  0
 20 42  1  0  0  0  0
 20 43  1  0  0  0  0
 21 44  1  0  0  0  0
 21 45  1  0  0  0  0
 22 23  1  0  0  0  0
 23 24  1  0  0  0  0
 23 46  1  0  0  0  0
 23 47  1  0  0  0  0
M  END
> <Name>
ZINC19848534

> <reference>
BDB5228

> <quality>
0.779

> <status>
decoy

> <atoms in reference ligand area>
24

> <score>
-34.1633

$$$$
ZINC09216860
      BALL 1.4.0 (Jan  4 2012, 23:22:29)

 47 49  0999  0  0  0  0  0  0999 V2000
   12.5648   10.7764    1.7548 C   0  0  0  0  0  0  0  0  0  0  0  0
   12.1810    9.4425    1.9101 C   0  0  0  0  0  0  0  0  0  0  0  0
   10.8266    9.1018    1.8657 C   0  0  0  0  0  0  0  0  0  0  0  0
    9.8763   10.0866    1.6806 C   0  0  0  0  0  0  0  0  0  0  0  0
   10.2646   11.4063    1.5270 C   0  0  0  0  0  0  0  0  0  0  0  0
   11.6068   11.7489    1.5645 C   0  0  0  0  0  0  0  0  0  0  0  0
   12.0899   13.4320    1.3690 S   0  0  0  0  0  0  0  0  0  0  0  0
   10.9323   14.2182    1.6165 O   0  0  0  0  0  0  0  0  0  0  0  0
   13.2943   13.5970    2.1048 O   0  0  0  0  0  0  0  0  0  0  0  0
   12.4766   13.6482   -0.2267 N   0  0  0  0  0  0  0  0  0  0  0  0
   11.4700   14.1567   -1.1619 C   0  0  0  0  0  0  0  0  0  0  0  0
   11.3693   13.4775   -2.5292 C   0  0  0  0  0  0  0  0  0  0  0  0
   11.9704   14.8798   -2.4139 C   0  0  0  0  0  0  0  0  0  0  0  0
    9.0647   12.6378    1.2869 Cl  0  0  0  0  0  0  0  0  0  0  0  0
   10.3393    7.4458    2.0499 Cl  0  0  0  0  0  0  0  0  0  0  0  0
   13.2029    8.3957    2.1144 C   0  0  0  0  0  0  0  0  0  0  0  0
   12.9350    7.4032    2.7632 O   0  0  0  0  0  0  0  0  0  0  0  0
   14.4323    8.5408    1.5815 N   0  0  0  0  0  0  0  0  0  0  0  0
   15.4458    7.5026    1.7841 C   0  0  0  0  0  0  0  0  0  0  0  0
   14.9443    6.1798    1.2015 C   0  0  0  0  0  0  0  0  0  0  0  0
   15.3729    6.0725   -0.2633 C   0  0  0  0  0  0  0  0  0  0  0  0
   14.2147    6.4412   -1.1541 C   0  0  0  0  0  0  0  0  0  0  0  0
   12.9613    5.7877   -1.1977 C   0  0  0  0  0  0  0  0  0  0  0  0
   12.1917    6.4467   -2.1524 C   0  0  0  0  0  0  0  0  0  0  0  0
   12.9493    7.4446   -2.6534 N   0  0  0  0  0  0  0  0  0  0  0  0
   14.1953    7.4174   -2.0177 N   0  0  0  0  0  0  0  0  0  0  0  0
   10.8956    6.1373   -2.5181 N   0  0  0  0  0  0  0  0  0  0  0  0
   12.5602    4.6613   -0.4098 C   0  0  0  0  0  0  0  0  0  0  0  0
   12.2419    3.7677    0.2154 N   0  0  0  0  0  0  0  0  0  0  0  0
   13.6297   11.0504    1.7842 H   0  0  0  0  0  0  0  0  0  0  0  0
    8.8089    9.8218    1.6553 H   0  0  0  0  0  0  0  0  0  0  0  0
   13.4247   13.4252   -0.5616 H   0  0  0  0  0  0  0  0  0  0  0  0
   10.7591   14.3952   -0.3570 H   0  0  0  0  0  0  0  0  0  0  0  0
   10.3423   13.5109   -2.9219 H   0  0  0  0  0  0  0  0  0  0  0  0
   12.1505   12.7140   -2.6585 H   0  0  0  0  0  0  0  0  0  0  0  0
   13.0679   14.8542   -2.4834 H   0  0  0  0  0  0  0  0  0  0  0  0
   11.2596   15.6511   -2.7451 H   0  0  0  0  0  0  0  0  0  0  0  0
   14.6593    9.3818    1.0317 H   0  0  0  0  0  0  0  0  0  0  0  0
   16.3774    7.7956    1.2780 H   0  0  0  0  0  0  0  0  0  0  0  0
   15.6362    7.3795    2.8605 H   0  0  0  0  0  0  0  0  0  0  0  0
   15.3733    5.3421    1.7708 H   0  0  0  0  0  0  0  0  0  0  0  0
   13.8467    6.1424    1.2653 H   0  0  0  0  0  0  0  0  0  0  0  0
   16.2121    6.7585   -0.4511 H   0  0  0  0  0  0  0  0  0  0  0  0
   15.6872    5.0408   -0.4799 H   0  0  0  0  0  0  0  0  0  0  0  0
   12.6592    8.1135   -3.3810 H   0  0  0  0  0  0  0  0  0  0  0  0
   10.5428    6.6297   -3.3511 H   0  0  0  0  0  0  0  0  0  0  0  0
   10.3088    5.4640   -2.0052 H   0  0  0  0  0  0  0  0  0  0  0  0
  1  6  2  0  0  0  0
  1  2  1  0  0  0  0
  1 30  1  0  0  0  0
  2  3  2  0  0  0  0
  2 16  1  0  0  0  0
  3  4  1  0  0  0  0
  3 15  1  0  0  0  0
  4  5  2  0  0  0  0
  4 31  1  0  0  0  0
  5  6  1  0  0  0  0
  5 14  1  0  0  0  0
  6  7  1  0  0  0  0
  7  8  2  0  0  0  0
  7  9  2  0  0  0  0
  7 10  1  0  0  0  0
 10 11  1  0  0  0  0
 10 32  1  0  0  0  0
 11 13  1  0  0  0  0
 11 12  1  0  0  0  0
 11 33  1  0  0  0  0
 12 13  1  0  0  0  0
 12 34  1  0  0  0  0
 12 35  1  0  0  0  0
 13 36  1  0  0  0  0
 13 37  1  0  0  0  0
 16 17  2  0  0  0  0
 16 18  1  0  0  0  0
 18 19  1  0  0  0  0
 18 38  1  0  0  0  0
 19 20  1  0  0  0  0
 19 39  1  0  0  0  0
 19 40  1  0  0  0  0
 20 21  1  0  0  0  0
 20 41  1  0  0  0  0
 20 42  1  0  0  0  0
 21 22  1  0  0  0  0
 21 43  1  0  0  0  0
 21 44  1  0  0  0  0
 22 26  2  0  0  0  0
 22 23  1  0  0  0  0
 23 24  2  0  0  0  0
 23 28  1  0  0  0  0
 24 25  1  0  0  0  0
 24 27  1  0  0  0  0
 25 26  1  0  0  0  0
 25 45  1  0  0  0  0
 27 46  1  0  0  0  0
 27 47  1  0  0  0  0
 28 29  3  0  0  0  0
M  END
> <Name>
ZINC09216860

> <reference>
BDB4968

> <quality>
0.742

> <status>
decoy

> <atoms in reference ligand area>
10

> <score>
-33.8191

$$$$
ZINC01625773
      BALL 1.4.0 (Jan  4 2012, 23:22:29)

 34 35  0999  0  0  0  0  0  0999 V2000
   10.5738    9.6935    1.5848 C   0  0  0  0  0  0  0  0  0  0  0  0
   11.3219   10.5739    2.1830 N   0  0  0  0  0  0  0  0  0  0  0  0
   10.5591   11.6282    2.5614 C   0  0  0  0  0  0  0  0  0  0  0  0
   10.8238   12.8457    3.2313 C   0  0  0  0  0  0  0  0  0  0  0  0
   11.9521   13.1229    3.6010 O   0  0  0  0  0  0  0  0  0  0  0  0
    9.7951   13.6941    3.4509 N   0  0  0  0  0  0  0  0  0  0  0  0
    8.5378   13.3743    3.0328 C   0  0  0  0  0  0  0  0  0  0  0  0
    8.2789   12.2467    2.4091 N   0  0  0  0  0  0  0  0  0  0  0  0
    9.2469   11.3578    2.1571 C   0  0  0  0  0  0  0  0  0  0  0  0
    9.2838   10.1369    1.5398 N   0  0  0  0  0  0  0  0  0  0  0  0
    8.1460    9.4329    0.9430 C   0  0  0  0  0  0  0  0  0  0  0  0
    6.9074   10.3294    0.9950 C   0  0  0  0  0  0  0  0  0  0  0  0
    5.7561    9.6524    0.2485 C   0  0  0  0  0  0  0  0  0  0  0  0
    4.6991   10.5932    0.0492 O   0  0  0  0  0  0  0  0  0  0  0  0
    7.8266    7.9059    1.8688 S   0  0  0  0  0  0  0  0  0  0  0  0
    6.8262    8.4499    3.2808 C   0  0  0  0  0  0  0  0  0  0  0  0
    7.6932    8.4735    4.5413 C   0  0  0  0  0  0  0  0  0  0  0  0
    7.7250    9.7995    5.0728 O   0  0  0  0  0  0  0  0  0  0  0  0
    7.5126   14.2554    3.2695 N   0  0  0  0  0  0  0  0  0  0  0  0
   10.9278    8.7355    1.1765 H   0  0  0  0  0  0  0  0  0  0  0  0
    9.9620   14.5869    3.9366 H   0  0  0  0  0  0  0  0  0  0  0  0
    8.3760    9.1856   -0.1038 H   0  0  0  0  0  0  0  0  0  0  0  0
    6.6175   10.4940    2.0432 H   0  0  0  0  0  0  0  0  0  0  0  0
    7.1328   11.2960    0.5207 H   0  0  0  0  0  0  0  0  0  0  0  0
    6.1135    9.2913   -0.7271 H   0  0  0  0  0  0  0  0  0  0  0  0
    5.3833    8.8031    0.8398 H   0  0  0  0  0  0  0  0  0  0  0  0
    3.8758   10.2644    0.4899 H   0  0  0  0  0  0  0  0  0  0  0  0
    6.4356    9.4596    3.0861 H   0  0  0  0  0  0  0  0  0  0  0  0
    5.9870    7.7539    3.4268 H   0  0  0  0  0  0  0  0  0  0  0  0
    8.7158    8.1552    4.2903 H   0  0  0  0  0  0  0  0  0  0  0  0
    7.2695    7.7887    5.2906 H   0  0  0  0  0  0  0  0  0  0  0  0
    6.8776   10.2632    4.8563 H   0  0  0  0  0  0  0  0  0  0  0  0
    6.8767   14.5385    2.5103 H   0  0  0  0  0  0  0  0  0  0  0  0
    7.3794   14.6363    4.2171 H   0  0  0  0  0  0  0  0  0  0  0  0
  1 10  1  0  0  0  0
  1  2  2  0  0  0  0
  1 20  1  0  0  0  0
  2  3  1  0  0  0  0
  3  9  2  0  0  0  0
  3  4  1  0  0  0  0
  4  5  2  0  0  0  0
  4  6  1  0  0  0  0
  6  7  1  0  0  0  0
  6 21  1  0  0  0  0
  7  8  2  0  0  0  0
  7 19  1  0  0  0  0
  8  9  1  0  0  0  0
  9 10  1  0  0  0  0
 10 11  1  0  0  0  0
 11 12  1  0  0  0  0
 11 15  1  0  0  0  0
 11 22  1  0  0  0  0
 12 13  1  0  0  0  0
 12 23  1  0  0  0  0
 12 24  1  0  0  0  0
 13 14  1  0  0  0  0
 13 25  1  0  0  0  0
 13 26  1  0  0  0  0
 14 27  1  0  0  0  0
 15 16  1  0  0  0  0
 16 17  1  0  0  0  0
 16 28  1  0  0  0  0
 16 29  1  0  0  0  0
 17 18  1  0  0  0  0
 17 30  1  0  0  0  0
 17 31  1  0  0  0  0
 18 32  1  0  0  0  0
 19 33  1  0  0  0  0
 19 34  1  0  0  0  0
M  END
> <Name>
ZINC01625773

> <reference>
BDB5015

> <quality>
0.714

> <status>
decoy

> <atoms in reference ligand area>
15

> <score>
-33.6657

$$$$
ZINC05117605
      BALL 1.4.0 (Jan  4 2012, 23:22:29)

 38 39  0999  0  0  0  0  0  0999 V2000
    8.8464    8.8498    3.4294 C   0  0  0  0  0  0  0  0  0  0  0  0
    9.7839    9.7066    2.9816 C   0  0  0  0  0  0  0  0  0  0  0  0
    9.1191   10.7606    2.4152 N   0  0  0  0  0  0  0  0  0  0  0  0
    7.7975   10.5065    2.5283 C   0  0  0  0  0  0  0  0  0  0  0  0
    7.6420    9.3620    3.1359 N   0  0  0  0  0  0  0  0  0  0  0  0
    6.7062   11.3815    2.0439 N   0  0  0  0  0  0  0  0  0  0  0  0
    6.9561   12.5084    1.6554 O   0  0  0  0  0  0  0  0  0  0  0  0
    5.5583   10.9744    2.0339 O   0  0  0  0  0  0  0  0  0  0  0  0
    9.7275   11.9408    1.7963 C   0  0  0  0  0  0  0  0  0  0  0  0
   10.0751   11.6303    0.3390 C   0  0  0  0  0  0  0  0  0  0  0  0
    8.9359   12.0999   -0.5681 C   0  0  0  0  0  0  0  0  0  0  0  0
   10.5495   12.4353   -2.3414 C   0  0  0  0  0  0  0  0  0  0  0  0
   11.0114   13.4172   -3.4206 C   0  0  0  0  0  0  0  0  0  0  0  0
   11.5466   14.6870   -2.7530 C   0  0  0  0  0  0  0  0  0  0  0  0
   10.4502   15.2917   -1.8715 C   0  0  0  0  0  0  0  0  0  0  0  0
   10.0047   14.2554   -0.8373 C   0  0  0  0  0  0  0  0  0  0  0  0
   10.9589   16.4466   -1.2011 O   0  0  0  0  0  0  0  0  0  0  0  0
   11.2800   12.3103   -0.0187 O   0  0  0  0  0  0  0  0  0  0  0  0
    9.4778   13.0684   -1.5436 N   0  3  0  0  0  0  0  0  0  0  0  0
    9.0352    7.8968    3.9454 H   0  0  0  0  0  0  0  0  0  0  0  0
   10.8745    9.5832    3.0566 H   0  0  0  0  0  0  0  0  0  0  0  0
   10.6440   12.2108    2.3414 H   0  0  0  0  0  0  0  0  0  0  0  0
    9.0182   12.7808    1.8325 H   0  0  0  0  0  0  0  0  0  0  0  0
   10.2164   10.5461    0.2188 H   0  0  0  0  0  0  0  0  0  0  0  0
    8.5108   11.2376   -1.1026 H   0  0  0  0  0  0  0  0  0  0  0  0
    8.1566   12.5849    0.0380 H   0  0  0  0  0  0  0  0  0  0  0  0
   11.3957   12.1831   -1.6853 H   0  0  0  0  0  0  0  0  0  0  0  0
   10.1632   11.5214   -2.8164 H   0  0  0  0  0  0  0  0  0  0  0  0
   11.8088   12.9548   -4.0209 H   0  0  0  0  0  0  0  0  0  0  0  0
   10.1629   13.6751   -4.0713 H   0  0  0  0  0  0  0  0  0  0  0  0
   11.8389   15.4140   -3.5250 H   0  0  0  0  0  0  0  0  0  0  0  0
   12.4195   14.4361   -2.1325 H   0  0  0  0  0  0  0  0  0  0  0  0
    9.5928   15.5814   -2.4967 H   0  0  0  0  0  0  0  0  0  0  0  0
   10.8640   13.9622   -0.2163 H   0  0  0  0  0  0  0  0  0  0  0  0
    9.2164   14.6843   -0.2012 H   0  0  0  0  0  0  0  0  0  0  0  0
   10.6601   17.2625   -1.6755 H   0  0  0  0  0  0  0  0  0  0  0  0
   11.9642   11.6492   -0.2925 H   0  0  0  0  0  0  0  0  0  0  0  0
    8.7217   13.3654   -2.1767 H   0  0  0  0  0  0  0  0  0  0  0  0
  1  5  1  0  0  0  0
  1  2  2  0  0  0  0
  1 20  1  0  0  0  0
  2  3  1  0  0  0  0
  2 21  1  0  0  0  0
  3  4  1  0  0  0  0
  3  9  1  0  0  0  0
  4  5  2  0  0  0  0
  4  6  1  0  0  0  0
  6  7  2  0  0  0  0
  6  8  2  0  0  0  0
  9 10  1  0  0  0  0
  9 22  1  0  0  0  0
  9 23  1  0  0  0  0
 10 11  1  0  0  0  0
 10 18  1  0  0  0  0
 10 24  1  0  0  0  0
 11 19  1  0  0  0  0
 11 25  1  0  0  0  0
 11 26  1  0  0  0  0
 12 13  1  0  0  0  0
 12 19  1  0  0  0  0
 12 27  1  0  0  0  0
 12 28  1  0  0  0  0
 13 14  1  0  0  0  0
 13 29  1  0  0  0  0
 13 30  1  0  0  0  0
 14 15  1  0  0  0  0
 14 31  1  0  0  0  0
 14 32  1  0  0  0  0
 15 16  1  0  0  0  0
 15 17  1  0  0  0  0
 15 33  1  0  0  0  0
 16 19  1  0  0  0  0
 16 34  1  0  0  0  0
 16 35  1  0  0  0  0
 17 36  1  0  0  0  0
 18 37  1  0  0  0  0
 19 38  1  0  0  0  0
M  END
> <Name>
ZINC05117605

> <reference>
BDB4983

> <quality>
0.787

> <status>
decoy

> <atoms in reference ligand area>
27

> <score>
-33.6288

$$$$
ZINC01646936
      BALL 1.4.0 (Jan  4 2012, 23:22:29)

 34 35  0999  0  0  0  0  0  0999 V2000
   10.3528   10.3430    1.1043 C   0  0  0  0  0  0  0  0  0  0  0  0
    9.6280    9.6428    1.9371 N   0  0  0  0  0  0  0  0  0  0  0  0
    9.1149   10.4447    2.8774 C   0  0  0  0  0  0  0  0  0  0  0  0
    9.5601   11.7305    2.6138 C   0  0  0  0  0  0  0  0  0  0  0  0
   10.3480   11.6352    1.4764 N   0  0  0  0  0  0  0  0  0  0  0  0
   11.0450   12.7359    0.8064 C   0  0  0  0  0  0  0  0  0  0  0  0
   10.1005   13.9336    0.6752 C   0  0  0  0  0  0  0  0  0  0  0  0
   10.8163   15.0583   -0.0792 C   0  0  0  0  0  0  0  0  0  0  0  0
   11.2788   14.5308   -1.4409 C   0  0  0  0  0  0  0  0  0  0  0  0
   12.1778   13.3101   -1.2281 C   0  0  0  0  0  0  0  0  0  0  0  0
   11.4615   12.3149   -0.4942 O   0  0  0  0  0  0  0  0  0  0  0  0
   10.1407   14.1559   -2.2194 O   0  0  0  0  0  0  0  0  0  0  0  0
    9.9179   16.1528   -0.2706 O   0  0  0  0  0  0  0  0  0  0  0  0
    8.9312   13.5429   -0.0472 O   0  0  0  0  0  0  0  0  0  0  0  0
    9.2610   12.9392    3.3783 C   0  0  0  0  0  0  0  0  0  0  0  0
    9.8135   13.9879    3.0998 O   0  0  0  0  0  0  0  0  0  0  0  0
    8.3736   12.8933    4.3916 N   0  0  0  0  0  0  0  0  0  0  0  0
    8.2906   10.0576    3.9303 N   0  0  0  0  0  0  0  0  0  0  0  0
    8.7244    9.1501    4.8274 C   0  0  0  0  0  0  0  0  0  0  0  0
    8.3214    9.1870    5.9707 O   0  0  0  0  0  0  0  0  0  0  0  0
   10.8855    9.9368    0.2318 H   0  0  0  0  0  0  0  0  0  0  0  0
   11.9258   13.0257    1.3982 H   0  0  0  0  0  0  0  0  0  0  0  0
    9.8090   14.2862    1.6756 H   0  0  0  0  0  0  0  0  0  0  0  0
   11.6857   15.4004    0.5014 H   0  0  0  0  0  0  0  0  0  0  0  0
   11.8392   15.3152   -1.9707 H   0  0  0  0  0  0  0  0  0  0  0  0
   12.4775   12.9006   -2.2041 H   0  0  0  0  0  0  0  0  0  0  0  0
   13.0739   13.6071   -0.6636 H   0  0  0  0  0  0  0  0  0  0  0  0
   10.1194   14.6904   -3.0525 H   0  0  0  0  0  0  0  0  0  0  0  0
    9.9301   16.4279   -1.2215 H   0  0  0  0  0  0  0  0  0  0  0  0
    8.1588   14.0820    0.2577 H   0  0  0  0  0  0  0  0  0  0  0  0
    7.5939   12.2208    4.3633 H   0  0  0  0  0  0  0  0  0  0  0  0
    8.4751   13.5306    5.1943 H   0  0  0  0  0  0  0  0  0  0  0  0
    7.3491   10.4647    4.0237 H   0  0  0  0  0  0  0  0  0  0  0  0
    9.4439    8.3759    4.5226 H   0  0  0  0  0  0  0  0  0  0  0  0
  1  5  1  0  0  0  0
  1  2  2  0  0  0  0
  1 21  1  0  0  0  0
  2  3  1  0  0  0  0
  3  4  2  0  0  0  0
  3 18  1  0  0  0  0
  4  5  1  0  0  0  0
  4 15  1  0  0  0  0
  5  6  1  0  0  0  0
  6 11  1  0  0  0  0
  6  7  1  0  0  0  0
  6 22  1  0  0  0  0
  7  8  1  0  0  0  0
  7 14  1  0  0  0  0
  7 23  1  0  0  0  0
  8  9  1  0  0  0  0
  8 13  1  0  0  0  0
  8 24  1  0  0  0  0
  9 10  1  0  0  0  0
  9 12  1  0  0  0  0
  9 25  1  0  0  0  0
 10 11  1  0  0  0  0
 10 26  1  0  0  0  0
 10 27  1  0  0  0  0
 12 28  1  0  0  0  0
 13 29  1  0  0  0  0
 14 30  1  0  0  0  0
 15 16  2  0  0  0  0
 15 17  1  0  0  0  0
 17 31  1  0  0  0  0
 17 32  1  0  0  0  0
 18 19  1  0  0  0  0
 18 33  1  0  0  0  0
 19 20  2  0  0  0  0
 19 34  1  0  0  0  0
M  END
> <Name>
ZINC01646936

> <reference>
BDB5008

> <quality>
0.705

> <status>
decoy

> <atoms in reference ligand area>
20

> <score>
-33.614

$$$$
ZINC06536724
      BALL 1.4.0 (Jan  4 2012, 23:22:29)

 29 31  0999  0  0  0  0  0  0999 V2000
   12.0916   13.4817    4.4405 C   0  0  0  0  0  0  0  0  0  0  0  0
   11.1995   13.0422    3.4356 C   0  0  0  0  0  0  0  0  0  0  0  0
   11.9288   12.8570    2.3206 C   0  0  0  0  0  0  0  0  0  0  0  0
   13.2098   13.1502    2.5979 O   0  0  0  0  0  0  0  0  0  0  0  0
   13.3145   13.5296    3.8820 C   0  0  0  0  0  0  0  0  0  0  0  0
   11.3996   12.3920    0.9885 C   0  0  0  0  0  0  0  0  0  0  0  0
   10.2349   11.5289    1.1999 N   0  0  0  0  0  0  0  0  0  0  0  0
    9.0922   11.7577    0.5176 C   0  0  0  0  0  0  0  0  0  0  0  0
    8.0325   10.9919    0.6863 N   0  0  0  0  0  0  0  0  0  0  0  0
    6.9173   11.1028   -0.0437 C   0  0  0  0  0  0  0  0  0  0  0  0
    6.8902   11.7672   -1.2019 N   0  0  0  0  0  0  0  0  0  0  0  0
    7.9567   12.4915   -1.5037 C   0  0  0  0  0  0  0  0  0  0  0  0
    8.4954   12.8218   -2.6475 N   0  0  0  0  0  0  0  0  0  0  0  0
    9.7830   13.1552   -2.4996 C   0  0  0  0  0  0  0  0  0  0  0  0
   10.1725   13.1703   -1.2548 N   0  0  0  0  0  0  0  0  0  0  0  0
    8.9875   12.8856   -0.4606 C   0  0  0  0  0  0  0  0  0  0  0  0
    5.7673   10.5125    0.4080 N   0  0  0  0  0  0  0  0  0  0  0  0
    5.3471   10.7278    1.6898 N   0  0  0  0  0  0  0  0  0  0  0  0
   11.8350   13.7356    5.4795 H   0  0  0  0  0  0  0  0  0  0  0  0
   10.1166   12.8824    3.5446 H   0  0  0  0  0  0  0  0  0  0  0  0
   14.2427   13.8288    4.3908 H   0  0  0  0  0  0  0  0  0  0  0  0
   11.1046   13.2640    0.3864 H   0  0  0  0  0  0  0  0  0  0  0  0
   12.1815   11.8281    0.4586 H   0  0  0  0  0  0  0  0  0  0  0  0
   10.2876   10.7475    1.8690 H   0  0  0  0  0  0  0  0  0  0  0  0
   10.4469   13.3929   -3.3438 H   0  0  0  0  0  0  0  0  0  0  0  0
    8.7662   13.7646    0.1626 H   0  0  0  0  0  0  0  0  0  0  0  0
    5.2192    9.9062   -0.2188 H   0  0  0  0  0  0  0  0  0  0  0  0
    4.4454   10.2349    1.7604 H   0  0  0  0  0  0  0  0  0  0  0  0
    5.1455   11.7367    1.7379 H   0  0  0  0  0  0  0  0  0  0  0  0
  1  5  2  0  0  0  0
  1  2  1  0  0  0  0
  1 19  1  0  0  0  0
  2  3  2  0  0  0  0
  2 20  1  0  0  0  0
  3  4  1  0  0  0  0
  3  6  1  0  0  0  0
  4  5  1  0  0  0  0
  5 21  1  0  0  0  0
  6  7  1  0  0  0  0
  6 22  1  0  0  0  0
  6 23  1  0  0  0  0
  7  8  1  0  0  0  0
  7 24  1  0  0  0  0
  8 16  1  0  0  0  0
  8  9  2  0  0  0  0
  9 10  1  0  0  0  0
 10 11  2  0  0  0  0
 10 17  1  0  0  0  0
 11 12  1  0  0  0  0
 12 16  1  0  0  0  0
 12 13  2  0  0  0  0
 13 14  1  0  0  0  0
 14 15  2  0  0  0  0
 14 25  1  0  0  0  0
 15 16  1  0  0  0  0
 16 26  1  0  0  0  0
 17 18  1  0  0  0  0
 17 27  1  0  0  0  0
 18 28  1  0  0  0  0
 18 29  1  0  0  0  0
M  END
> <Name>
ZINC06536724

> <reference>
BDB5233

> <quality>
0.821

> <status>
decoy

> <atoms in reference ligand area>
23

> <score>
-33.1769

$$$$
ZINC20423296
      BALL 1.4.0 (Jan  4 2012, 23:22:29)

 37 37  0999  0  0  0  0  0  0999 V2000
    9.9971   19.2167    2.8380 C   0  0  0  0  0  0  0  0  0  0  0  0
    8.9536   18.3691    2.3535 O   0  0  0  0  0  0  0  0  0  0  0  0
    9.3298   17.2634    1.6570 C   0  0  0  0  0  0  0  0  0  0  0  0
    9.4835   17.3302    0.2799 C   0  0  0  0  0  0  0  0  0  0  0  0
    9.8654   16.2072   -0.4275 C   0  0  0  0  0  0  0  0  0  0  0  0
   10.0954   15.0125    0.2389 C   0  0  0  0  0  0  0  0  0  0  0  0
    9.9421   14.9459    1.6156 C   0  0  0  0  0  0  0  0  0  0  0  0
    9.5553   16.0680    2.3227 C   0  0  0  0  0  0  0  0  0  0  0  0
   10.1912   13.6479    2.3395 C   0  0  0  0  0  0  0  0  0  0  0  0
    8.9668   12.7416    2.1977 C   0  0  0  0  0  0  0  0  0  0  0  0
    9.3946   11.3942    1.6123 C   0  0  0  0  0  0  0  0  0  0  0  0
    8.2294   10.4067    1.7009 C   0  0  0  0  0  0  0  0  0  0  0  0
    6.9423   11.1171    1.3694 C   0  0  0  0  0  0  0  0  0  0  0  0
    6.9485   12.0530    0.6051 O   0  0  0  0  0  0  0  0  0  0  0  0
    5.7893   10.7103    1.9230 O   0  5  0  0  0  0  0  0  0  0  0  0
   10.4369   13.9200    3.7621 N   0  3  0  0  0  0  0  0  0  0  0  0
   10.4714   13.9068   -0.4576 O   0  0  0  0  0  0  0  0  0  0  0  0
   11.8737   13.6997   -0.6383 C   0  0  0  0  0  0  0  0  0  0  0  0
    9.5126   19.9679    3.4792 H   0  0  0  0  0  0  0  0  0  0  0  0
   10.4064   19.7366    1.9593 H   0  0  0  0  0  0  0  0  0  0  0  0
   10.7773   18.6632    3.3811 H   0  0  0  0  0  0  0  0  0  0  0  0
    9.3012   18.2775   -0.2486 H   0  0  0  0  0  0  0  0  0  0  0  0
    9.9872   16.2601   -1.5194 H   0  0  0  0  0  0  0  0  0  0  0  0
    9.4264   16.0131    3.4137 H   0  0  0  0  0  0  0  0  0  0  0  0
   11.0695   13.1483    1.9047 H   0  0  0  0  0  0  0  0  0  0  0  0
    8.5112   12.5832    3.1863 H   0  0  0  0  0  0  0  0  0  0  0  0
    8.2341   13.2155    1.5278 H   0  0  0  0  0  0  0  0  0  0  0  0
    9.6829   11.5268    0.5591 H   0  0  0  0  0  0  0  0  0  0  0  0
   10.2509   11.0017    2.1803 H   0  0  0  0  0  0  0  0  0  0  0  0
    8.1698    9.9986    2.7207 H   0  0  0  0  0  0  0  0  0  0  0  0
    8.3891    9.5859    0.9862 H   0  0  0  0  0  0  0  0  0  0  0  0
   10.7709   13.0622    4.2241 H   0  0  0  0  0  0  0  0  0  0  0  0
    9.5628   14.2319    4.2089 H   0  0  0  0  0  0  0  0  0  0  0  0
   11.1500   14.6577    3.8531 H   0  0  0  0  0  0  0  0  0  0  0  0
   12.1850   12.9916    0.1438 H   0  0  0  0  0  0  0  0  0  0  0  0
   12.3581   14.6653   -0.4313 H   0  0  0  0  0  0  0  0  0  0  0  0
   12.1230   13.3285   -1.6433 H   0  0  0  0  0  0  0  0  0  0  0  0
  1  2  1  0  0  0  0
  1 19  1  0  0  0  0
  1 20  1  0  0  0  0
  1 21  1  0  0  0  0
  2  3  1  0  0  0  0
  3  8  2  0  0  0  0
  3  4  1  0  0  0  0
  4  5  2  0  0  0  0
  4 22  1  0  0  0  0
  5  6  1  0  0  0  0
  5 23  1  0  0  0  0
  6  7  2  0  0  0  0
  6 17  1  0  0  0  0
  7  8  1  0  0  0  0
  7  9  1  0  0  0  0
  8 24  1  0  0  0  0
  9 10  1  0  0  0  0
  9 16  1  0  0  0  0
  9 25  1  0  0  0  0
 10 11  1  0  0  0  0
 10 26  1  0  0  0  0
 10 27  1  0  0  0  0
 11 12  1  0  0  0  0
 11 28  1  0  0  0  0
 11 29  1  0  0  0  0
 12 13  1  0  0  0  0
 12 30  1  0  0  0  0
 12 31  1  0  0  0  0
 13 14  2  0  0  0  0
 13 15  1  0  0  0  0
 16 32  1  0  0  0  0
 16 33  1  0  0  0  0
 16 34  1  0  0  0  0
 17 18  1  0  0  0  0
 18 35  1  0  0  0  0
 18 36  1  0  0  0  0
 18 37  1  0  0  0  0
M  END
> <Name>
ZINC20423296

> <reference>
BDB4995

> <quality>
0.786

> <status>
decoy

> <atoms in reference ligand area>
20

> <score>
-33.0067

$$$$
ZINC21063225
      BALL 1.4.0 (Jan  4 2012, 23:22:29)

 33 34  0999  0  0  0  0  0  0999 V2000
   10.1343   16.8832   -0.1224 C   0  0  0  0  0  0  0  0  0  0  0  0
    9.4732   16.5795    1.0531 C   0  0  0  0  0  0  0  0  0  0  0  0
    9.4001   15.2689    1.4861 C   0  0  0  0  0  0  0  0  0  0  0  0
    9.9973   14.2631    0.7491 C   0  0  0  0  0  0  0  0  0  0  0  0
   10.6582   14.5668   -0.4262 C   0  0  0  0  0  0  0  0  0  0  0  0
   10.7268   15.8770   -0.8619 C   0  0  0  0  0  0  0  0  0  0  0  0
   11.3038   13.4695   -1.2327 C   0  0  0  0  0  0  0  0  0  0  0  0
   12.7650   13.5950   -1.1487 N   0  3  0  0  0  0  0  0  0  0  0  0
    9.9220   12.8348    1.2239 C   0  0  0  0  0  0  0  0  0  0  0  0
    8.9966   12.7637    2.7825 S   0  0  0  0  0  0  0  0  0  0  0  0
    9.0195   14.0316    3.4236 O   0  0  0  0  0  0  0  0  0  0  0  0
    9.3340   11.5836    3.4987 O   0  0  0  0  0  0  0  0  0  0  0  0
    7.4182   12.5470    2.3307 N   0  5  0  0  0  0  0  0  0  0  0  0
    7.0361   11.3824    1.6878 C   0  0  0  0  0  0  0  0  0  0  0  0
    5.7480   11.0851    1.5998 N   0  0  0  0  0  0  0  0  0  0  0  0
    5.3491    9.9800    0.9921 C   0  0  0  0  0  0  0  0  0  0  0  0
    6.2969    9.1298    0.4445 C   0  0  0  0  0  0  0  0  0  0  0  0
    7.6357    9.4711    0.5545 C   0  0  0  0  0  0  0  0  0  0  0  0
    7.9671   10.5911    1.1755 N   0  0  0  0  0  0  0  0  0  0  0  0
   10.1888   17.9257   -0.4693 H   0  0  0  0  0  0  0  0  0  0  0  0
    9.0053   17.3807    1.6439 H   0  0  0  0  0  0  0  0  0  0  0  0
    8.8668   15.0262    2.4170 H   0  0  0  0  0  0  0  0  0  0  0  0
   11.2529   16.1187   -1.7972 H   0  0  0  0  0  0  0  0  0  0  0  0
   10.9967   12.4915   -0.8335 H   0  0  0  0  0  0  0  0  0  0  0  0
   10.9892   13.5518   -2.2836 H   0  0  0  0  0  0  0  0  0  0  0  0
   13.0152   14.1601   -0.3247 H   0  0  0  0  0  0  0  0  0  0  0  0
   13.1207   14.0535   -1.9996 H   0  0  0  0  0  0  0  0  0  0  0  0
   13.1862   12.6590   -1.0626 H   0  0  0  0  0  0  0  0  0  0  0  0
   10.9387   12.4463    1.3840 H   0  0  0  0  0  0  0  0  0  0  0  0
    9.4107   12.2227    0.4663 H   0  0  0  0  0  0  0  0  0  0  0  0
    4.2781    9.7386    0.9221 H   0  0  0  0  0  0  0  0  0  0  0  0
    5.9932    8.2042   -0.0664 H   0  0  0  0  0  0  0  0  0  0  0  0
    8.4132    8.8186    0.1307 H   0  0  0  0  0  0  0  0  0  0  0  0
  1  6  2  0  0  0  0
  1  2  1  0  0  0  0
  1 20  1  0  0  0  0
  2  3  2  0  0  0  0
  2 21  1  0  0  0  0
  3  4  1  0  0  0  0
  3 22  1  0  0  0  0
  4  5  2  0  0  0  0
  4  9  1  0  0  0  0
  5  6  1  0  0  0  0
  5  7  1  0  0  0  0
  6 23  1  0  0  0  0
  7  8  1  0  0  0  0
  7 24  1  0  0  0  0
  7 25  1  0  0  0  0
  8 26  1  0  0  0  0
  8 27  1  0  0  0  0
  8 28  1  0  0  0  0
  9 10  1  0  0  0  0
  9 29  1  0  0  0  0
  9 30  1  0  0  0  0
 10 11  2  0  0  0  0
 10 12  2  0  0  0  0
 10 13  1  0  0  0  0
 13 14  1  0  0  0  0
 14 19  2  0  0  0  0
 14 15  1  0  0  0  0
 15 16  2  0  0  0  0
 16 17  1  0  0  0  0
 16 31  1  0  0  0  0
 17 18  2  0  0  0  0
 17 32  1  0  0  0  0
 18 19  1  0  0  0  0
 18 33  1  0  0  0  0
M  END
> <Name>
ZINC21063225

> <reference>
BDB4983

> <quality>
0.863

> <status>
decoy

> <atoms in reference ligand area>
15

> <score>
-32.8636

$$$$
ZINC00056328
      BALL 1.4.0 (Jan  4 2012, 23:22:29)

 43 45  0999  0  0  0  0  0  0999 V2000
    9.8717   12.8990   -1.9128 C   0  0  0  0  0  0  0  0  0  0  0  0
    9.9760   13.5319   -3.3029 C   0  0  0  0  0  0  0  0  0  0  0  0
    9.3184   14.8020   -3.2935 O   0  0  0  0  0  0  0  0  0  0  0  0
    7.9369   14.7323   -2.9303 C   0  0  0  0  0  0  0  0  0  0  0  0
    7.8119   14.1115   -1.5365 C   0  0  0  0  0  0  0  0  0  0  0  0
    8.4551   12.7895   -1.5350 N   0  0  0  0  0  0  0  0  0  0  0  0
    8.3168   12.1735   -0.3077 C   0  0  0  0  0  0  0  0  0  0  0  0
    7.6887   11.0056   -0.2173 N   0  0  0  0  0  0  0  0  0  0  0  0
    7.5561   10.4125    0.9650 C   0  0  0  0  0  0  0  0  0  0  0  0
    8.0518   10.9879    2.0563 N   0  0  0  0  0  0  0  0  0  0  0  0
    8.6793   12.1551    1.9654 C   0  0  0  0  0  0  0  0  0  0  0  0
    8.8074   12.7508    0.7849 N   0  0  0  0  0  0  0  0  0  0  0  0
    9.1958   12.7543    3.1031 N   0  0  0  0  0  0  0  0  0  0  0  0
    9.4308   12.0161    4.2060 C   0  0  0  0  0  0  0  0  0  0  0  0
    9.5446   10.8091    4.1166 O   0  0  0  0  0  0  0  0  0  0  0  0
    9.5396   12.6161    5.4078 N   0  0  0  0  0  0  0  0  0  0  0  0
    9.4669   14.0932    3.1067 N   0  0  0  0  0  0  0  0  0  0  0  0
    6.9036    9.2002    1.0596 N   0  0  0  0  0  0  0  0  0  0  0  0
    6.3077    8.8204   -0.2296 C   0  0  0  0  0  0  0  0  0  0  0  0
    5.6475    7.4457   -0.0953 C   0  0  0  0  0  0  0  0  0  0  0  0
    4.6797    7.4880    0.9569 O   0  0  0  0  0  0  0  0  0  0  0  0
    5.2258    7.8539    2.2269 C   0  0  0  0  0  0  0  0  0  0  0  0
    5.8819    9.2328    2.1162 C   0  0  0  0  0  0  0  0  0  0  0  0
   10.3265   11.8976   -1.9312 H   0  0  0  0  0  0  0  0  0  0  0  0
   10.3991   13.5299   -1.1822 H   0  0  0  0  0  0  0  0  0  0  0  0
   11.0354   13.6693   -3.5652 H   0  0  0  0  0  0  0  0  0  0  0  0
    9.4953   12.8757   -4.0433 H   0  0  0  0  0  0  0  0  0  0  0  0
    7.5081   15.7452   -2.9203 H   0  0  0  0  0  0  0  0  0  0  0  0
    7.3955   14.1103   -3.6583 H   0  0  0  0  0  0  0  0  0  0  0  0
    6.7488   14.0021   -1.2760 H   0  0  0  0  0  0  0  0  0  0  0  0
    8.3068   14.7609   -0.7994 H   0  0  0  0  0  0  0  0  0  0  0  0
    9.4104   12.0684    6.2705 H   0  0  0  0  0  0  0  0  0  0  0  0
    9.7518   13.6225    5.4637 H   0  0  0  0  0  0  0  0  0  0  0  0
    9.8854   14.5362    2.2764 H   0  0  0  0  0  0  0  0  0  0  0  0
    9.2529   14.6596    3.9399 H   0  0  0  0  0  0  0  0  0  0  0  0
    7.0923    8.7764   -0.9993 H   0  0  0  0  0  0  0  0  0  0  0  0
    5.5503    9.5643   -0.5176 H   0  0  0  0  0  0  0  0  0  0  0  0
    5.1501    7.1832   -1.0407 H   0  0  0  0  0  0  0  0  0  0  0  0
    6.4124    6.6912    0.1403 H   0  0  0  0  0  0  0  0  0  0  0  0
    4.4212    7.8898    2.9762 H   0  0  0  0  0  0  0  0  0  0  0  0
    5.9796    7.1128    2.5311 H   0  0  0  0  0  0  0  0  0  0  0  0
    6.3535    9.4925    3.0754 H   0  0  0  0  0  0  0  0  0  0  0  0
    5.1175    9.9833    1.8664 H   0  0  0  0  0  0  0  0  0  0  0  0
  1  6  1  0  0  0  0
  1  2  1  0  0  0  0
  1 24  1  0  0  0  0
  1 25  1  0  0  0  0
  2  3  1  0  0  0  0
  2 26  1  0  0  0  0
  2 27  1  0  0  0  0
  3  4  1  0  0  0  0
  4  5  1  0  0  0  0
  4 28  1  0  0  0  0
  4 29  1  0  0  0  0
  5  6  1  0  0  0  0
  5 30  1  0  0  0  0
  5 31  1  0  0  0  0
  6  7  1  0  0  0  0
  7 12  2  0  0  0  0
  7  8  1  0  0  0  0
  8  9  2  0  0  0  0
  9 10  1  0  0  0  0
  9 18  1  0  0  0  0
 10 11  2  0  0  0  0
 11 12  1  0  0  0  0
 11 13  1  0  0  0  0
 13 14  1  0  0  0  0
 13 17  1  0  0  0  0
 14 15  2  0  0  0  0
 14 16  1  0  0  0  0
 16 32  1  0  0  0  0
 16 33  1  0  0  0  0
 17 34  1  0  0  0  0
 17 35  1  0  0  0  0
 18 23  1  0  0  0  0
 18 19  1  0  0  0  0
 19 20  1  0  0  0  0
 19 36  1  0  0  0  0
 19 37  1  0  0  0  0
 20 21  1  0  0  0  0
 20 38  1  0  0  0  0
 20 39  1  0  0  0  0
 21 22  1  0  0  0  0
 22 23  1  0  0  0  0
 22 40  1  0  0  0  0
 22 41  1  0  0  0  0
 23 42  1  0  0  0  0
 23 43  1  0  0  0  0
M  END
> <Name>
ZINC00056328

> <reference>
BDB4977

> <quality>
0.651

> <status>
decoy

> <atoms in reference ligand area>
25

> <score>
-32.6795

$$$$
ZINC02338152
      BALL 1.4.0 (Jan  4 2012, 23:22:29)

 41 42  0999  0  0  0  0  0  0999 V2000
   11.8954   14.3527   -2.6054 C   0  0  0  0  0  0  0  0  0  0  0  0
   11.4828   14.4237   -1.1577 C   0  0  0  0  0  0  0  0  0  0  0  0
   12.1443   13.6624   -0.2123 C   0  0  0  0  0  0  0  0  0  0  0  0
   11.7659   13.7278    1.1156 C   0  0  0  0  0  0  0  0  0  0  0  0
   10.7266   14.5550    1.4983 C   0  0  0  0  0  0  0  0  0  0  0  0
   10.0658   15.3171    0.5531 C   0  0  0  0  0  0  0  0  0  0  0  0
   10.4433   15.2508   -0.7752 C   0  0  0  0  0  0  0  0  0  0  0  0
   10.2395   14.6328    3.1898 S   0  0  0  0  0  0  0  0  0  0  0  0
   11.2757   14.0138    3.9398 O   0  0  0  0  0  0  0  0  0  0  0  0
    9.8188   15.9686    3.4302 O   0  0  0  0  0  0  0  0  0  0  0  0
    8.8979   13.6766    3.3575 N   0  5  0  0  0  0  0  0  0  0  0  0
    8.9382   12.3518    2.9591 C   0  0  0  0  0  0  0  0  0  0  0  0
    9.8801   11.5586    3.4481 N   0  0  0  0  0  0  0  0  0  0  0  0
    9.9481   10.2837    3.0943 C   0  0  0  0  0  0  0  0  0  0  0  0
    9.0279    9.7821    2.1944 C   0  0  0  0  0  0  0  0  0  0  0  0
    8.0500   10.6430    1.6920 C   0  0  0  0  0  0  0  0  0  0  0  0
    8.0376   11.9100    2.0945 N   0  0  0  0  0  0  0  0  0  0  0  0
    7.1069   10.1838    0.7872 N   0  0  0  0  0  0  0  0  0  0  0  0
    6.9891    8.7487    0.5169 C   0  0  0  0  0  0  0  0  0  0  0  0
    5.7301    8.4876   -0.3121 C   0  0  0  0  0  0  0  0  0  0  0  0
   11.0212    9.3916    3.6633 C   0  0  0  0  0  0  0  0  0  0  0  0
    4.9355    9.7266   -0.3816 N   0  3  0  0  0  0  0  0  0  0  0  0
   11.3327   13.5040   -3.0217 H   0  0  0  0  0  0  0  0  0  0  0  0
   12.9560   14.0615   -2.5865 H   0  0  0  0  0  0  0  0  0  0  0  0
   11.7246   15.2853   -3.1632 H   0  0  0  0  0  0  0  0  0  0  0  0
   12.9718   13.0047   -0.5167 H   0  0  0  0  0  0  0  0  0  0  0  0
   12.2917   13.1214    1.8677 H   0  0  0  0  0  0  0  0  0  0  0  0
    9.2396   15.9763    0.8577 H   0  0  0  0  0  0  0  0  0  0  0  0
    9.9165   15.8560   -1.5276 H   0  0  0  0  0  0  0  0  0  0  0  0
    9.0645    8.7284    1.8808 H   0  0  0  0  0  0  0  0  0  0  0  0
    6.4886   10.8513    0.3043 H   0  0  0  0  0  0  0  0  0  0  0  0
    7.8729    8.4069   -0.0418 H   0  0  0  0  0  0  0  0  0  0  0  0
    6.9216    8.1998    1.4678 H   0  0  0  0  0  0  0  0  0  0  0  0
    6.0163    8.1772   -1.3279 H   0  0  0  0  0  0  0  0  0  0  0  0
    5.1334    7.6950    0.1630 H   0  0  0  0  0  0  0  0  0  0  0  0
   11.7600    9.2827    2.8557 H   0  0  0  0  0  0  0  0  0  0  0  0
   10.5374    8.4128    3.7973 H   0  0  0  0  0  0  0  0  0  0  0  0
   11.4673    9.7720    4.5941 H   0  0  0  0  0  0  0  0  0  0  0  0
    4.8249   10.0142   -1.3645 H   0  0  0  0  0  0  0  0  0  0  0  0
    5.4099   10.4741    0.1448 H   0  0  0  0  0  0  0  0  0  0  0  0
    4.0062    9.5585    0.0298 H   0  0  0  0  0  0  0  0  0  0  0  0
  1  2  1  0  0  0  0
  1 23  1  0  0  0  0
  1 24  1  0  0  0  0
  1 25  1  0  0  0  0
  2  7  2  0  0  0  0
  2  3  1  0  0  0  0
  3  4  2  0  0  0  0
  3 26  1  0  0  0  0
  4  5  1  0  0  0  0
  4 27  1  0  0  0  0
  5  6  2  0  0  0  0
  5  8  1  0  0  0  0
  6  7  1  0  0  0  0
  6 28  1  0  0  0  0
  7 29  1  0  0  0  0
  8  9  2  0  0  0  0
  8 10  2  0  0  0  0
  8 11  1  0  0  0  0
 11 12  1  0  0  0  0
 12 17  2  0  0  0  0
 12 13  1  0  0  0  0
 13 14  2  0  0  0  0
 14 15  1  0  0  0  0
 14 21  1  0  0  0  0
 15 16  2  0  0  0  0
 15 30  1  0  0  0  0
 16 17  1  0  0  0  0
 16 18  1  0  0  0  0
 18 19  1  0  0  0  0
 18 31  1  0  0  0  0
 19 20  1  0  0  0  0
 19 32  1  0  0  0  0
 19 33  1  0  0  0  0
 20 22  1  0  0  0  0
 20 34  1  0  0  0  0
 20 35  1  0  0  0  0
 21 36  1  0  0  0  0
 21 37  1  0  0  0  0
 21 38  1  0  0  0  0
 22 39  1  0  0  0  0
 22 40  1  0  0  0  0
 22 41  1  0  0  0  0
M  END
> <Name>
ZINC02338152

> <reference>
BDB5200

> <quality>
0.778

> <status>
decoy

> <atoms in reference ligand area>
15

> <score>
-32.5777

$$$$
ZINC02441083
      BALL 1.4.0 (Jan  4 2012, 23:22:29)

 61 64  0999  0  0  0  0  0  0999 V2000
   16.3894   10.4747    8.9760 C   0  0  0  0  0  0  0  0  0  0  0  0
   15.6861    9.1218    8.8490 C   0  0  0  0  0  0  0  0  0  0  0  0
   15.6363    8.7158    7.3986 C   0  0  0  0  0  0  0  0  0  0  0  0
   15.8536    7.3975    7.0431 C   0  0  0  0  0  0  0  0  0  0  0  0
   15.8085    7.0227    5.7142 C   0  0  0  0  0  0  0  0  0  0  0  0
   15.5447    7.9704    4.7361 C   0  0  0  0  0  0  0  0  0  0  0  0
   15.3327    9.2936    5.0948 C   0  0  0  0  0  0  0  0  0  0  0  0
   15.3737    9.6624    6.4255 C   0  0  0  0  0  0  0  0  0  0  0  0
   15.4998    7.6042    3.4281 O   0  0  0  0  0  0  0  0  0  0  0  0
   15.2231    8.6329    2.4755 C   0  0  0  0  0  0  0  0  0  0  0  0
   13.7407    8.9016    2.4427 C   0  0  0  0  0  0  0  0  0  0  0  0
   12.8957    7.9967    2.9002 C   0  0  0  0  0  0  0  0  0  0  0  0
   13.2634   10.1016    1.9309 N   0  3  0  0  0  0  0  0  0  0  0  0
   11.8911   10.2705    1.7051 N   0  0  0  0  0  0  0  0  0  0  0  0
   11.4365   11.3728    1.0098 C   0  0  0  0  0  0  0  0  0  0  0  0
   12.1965   12.3197    0.5183 N   0  0  0  0  0  0  0  0  0  0  0  0
   11.4202   13.2444   -0.1008 C   0  0  0  0  0  0  0  0  0  0  0  0
   11.6741   14.4427   -0.7877 C   0  0  0  0  0  0  0  0  0  0  0  0
   10.6434   15.1200   -1.2830 N   0  0  0  0  0  0  0  0  0  0  0  0
    9.4056   14.6836   -1.1375 C   0  0  0  0  0  0  0  0  0  0  0  0
    9.1209   13.5662   -0.5018 N   0  0  0  0  0  0  0  0  0  0  0  0
   10.0869   12.8229    0.0268 C   0  0  0  0  0  0  0  0  0  0  0  0
   10.1248   11.6410    0.7306 N   0  0  0  0  0  0  0  0  0  0  0  0
    8.9720   10.8211    1.1113 C   0  0  0  0  0  0  0  0  0  0  0  0
    8.2687   11.4140    2.3588 C   0  0  0  0  0  0  0  0  0  0  0  0
    7.5668   10.1705    2.9570 C   0  0  0  0  0  0  0  0  0  0  0  0
    8.3404    8.9777    2.3624 C   0  0  0  0  0  0  0  0  0  0  0  0
    9.4009    9.5158    1.5549 O   0  0  0  0  0  0  0  0  0  0  0  0
    8.9262    8.1239    3.4889 C   0  0  0  0  0  0  0  0  0  0  0  0
    8.6615    8.7483    4.7467 O   0  0  0  0  0  0  0  0  0  0  0  0
    6.1955   10.1264    2.5577 O   0  0  0  0  0  0  0  0  0  0  0  0
    7.3128   12.4070    1.9816 O   0  0  0  0  0  0  0  0  0  0  0  0
   12.9696   14.9084   -0.9454 N   0  0  0  0  0  0  0  0  0  0  0  0
   16.7461   10.6082   10.0079 H   0  0  0  0  0  0  0  0  0  0  0  0
   15.6841   11.2807    8.7253 H   0  0  0  0  0  0  0  0  0  0  0  0
   17.2452   10.5100    8.2859 H   0  0  0  0  0  0  0  0  0  0  0  0
   16.2411    8.3647    9.4222 H   0  0  0  0  0  0  0  0  0  0  0  0
   14.6619    9.2015    9.2420 H   0  0  0  0  0  0  0  0  0  0  0  0
   16.0626    6.6464    7.8191 H   0  0  0  0  0  0  0  0  0  0  0  0
   15.9815    5.9737    5.4320 H   0  0  0  0  0  0  0  0  0  0  0  0
   15.1320   10.0485    4.3204 H   0  0  0  0  0  0  0  0  0  0  0  0
   15.1973   10.7099    6.7112 H   0  0  0  0  0  0  0  0  0  0  0  0
   15.5588    8.3110    1.4786 H   0  0  0  0  0  0  0  0  0  0  0  0
   15.7554    9.5516    2.7627 H   0  0  0  0  0  0  0  0  0  0  0  0
   13.2735    7.0465    3.3055 H   0  0  0  0  0  0  0  0  0  0  0  0
   11.8136    8.1929    2.8762 H   0  0  0  0  0  0  0  0  0  0  0  0
   13.5720   10.8554    2.5613 H   0  0  0  0  0  0  0  0  0  0  0  0
   13.7510   10.2793    1.0411 H   0  0  0  0  0  0  0  0  0  0  0  0
   11.2214    9.5721    2.0581 H   0  0  0  0  0  0  0  0  0  0  0  0
    8.5818   15.2755   -1.5630 H   0  0  0  0  0  0  0  0  0  0  0  0
    8.3184   10.7815    0.2275 H   0  0  0  0  0  0  0  0  0  0  0  0
    8.9534   11.9167    3.0577 H   0  0  0  0  0  0  0  0  0  0  0  0
    7.5714   10.1723    4.0570 H   0  0  0  0  0  0  0  0  0  0  0  0
    7.6748    8.3424    1.7596 H   0  0  0  0  0  0  0  0  0  0  0  0
   10.0131    8.0272    3.3499 H   0  0  0  0  0  0  0  0  0  0  0  0
    8.4640    7.1259    3.4711 H   0  0  0  0  0  0  0  0  0  0  0  0
    7.7960    8.4242    5.1013 H   0  0  0  0  0  0  0  0  0  0  0  0
    5.7020   10.8503    3.0186 H   0  0  0  0  0  0  0  0  0  0  0  0
    6.5761   12.4098    2.6428 H   0  0  0  0  0  0  0  0  0  0  0  0
   13.5660   14.5060   -1.6825 H   0  0  0  0  0  0  0  0  0  0  0  0
   13.3348   15.6505   -0.3316 H   0  0  0  0  0  0  0  0  0  0  0  0
  1  2  1  0  0  0  0
  1 34  1  0  0  0  0
  1 35  1  0  0  0  0
  1 36  1  0  0  0  0
  2  3  1  0  0  0  0
  2 37  1  0  0  0  0
  2 38  1  0  0  0  0
  3  8  2  0  0  0  0
  3  4  1  0  0  0  0
  4  5  2  0  0  0  0
  4 39  1  0  0  0  0
  5  6  1  0  0  0  0
  5 40  1  0  0  0  0
  6  7  2  0  0  0  0
  6  9  1  0  0  0  0
  7  8  1  0  0  0  0
  7 41  1  0  0  0  0
  8 42  1  0  0  0  0
  9 10  1  0  0  0  0
 10 11  1  0  0  0  0
 10 43  1  0  0  0  0
 10 44  1  0  0  0  0
 11 12  2  0  0  0  0
 11 13  1  0  0  0  0
 12 45  1  0  0  0  0
 12 46  1  0  0  0  0
 13 14  1  0  0  0  0
 13 47  1  0  0  0  0
 13 48  1  0  0  0  0
 14 15  1  0  0  0  0
 14 49  1  0  0  0  0
 15 23  1  0  0  0  0
 15 16  2  0  0  0  0
 16 17  1  0  0  0  0
 17 22  1  0  0  0  0
 17 18  2  0  0  0  0
 18 19  1  0  0  0  0
 18 33  1  0  0  0  0
 19 20  2  0  0  0  0
 20 21  1  0  0  0  0
 20 50  1  0  0  0  0
 21 22  2  0  0  0  0
 22 23  1  0  0  0  0
 23 24  1  0  0  0  0
 24 28  1  0  0  0  0
 24 25  1  0  0  0  0
 24 51  1  0  0  0  0
 25 26  1  0  0  0  0
 25 32  1  0  0  0  0
 25 52  1  0  0  0  0
 26 27  1  0  0  0  0
 26 31  1  0  0  0  0
 26 53  1  0  0  0  0
 27 28  1  0  0  0  0
 27 29  1  0  0  0  0
 27 54  1  0  0  0  0
 29 30  1  0  0  0  0
 29 55  1  0  0  0  0
 29 56  1  0  0  0  0
 30 57  1  0  0  0  0
 31 58  1  0  0  0  0
 32 59  1  0  0  0  0
 33 60  1  0  0  0  0
 33 61  1  0  0  0  0
M  END
> <Name>
ZINC02441083

> <reference>
BDB4972

> <quality>
0.685

> <status>
decoy

> <atoms in reference ligand area>
15

> <score>
-32.5715

$$$$
ZINC30924904
      BALL 1.4.0 (Jan  4 2012, 23:22:29)

 52 53  0999  0  0  0  0  0  0999 V2000
    4.2163    6.8518   -1.5151 C   0  0  0  0  0  0  0  0  0  0  0  0
    3.4220    6.1442   -0.4477 C   0  0  0  0  0  0  0  0  0  0  0  0
    4.0380    5.7506    0.7255 C   0  0  0  0  0  0  0  0  0  0  0  0
    3.3094    5.1016    1.7047 C   0  0  0  0  0  0  0  0  0  0  0  0
    1.9646    4.8470    1.5110 C   0  0  0  0  0  0  0  0  0  0  0  0
    1.3497    5.2362    0.3358 C   0  0  0  0  0  0  0  0  0  0  0  0
    2.0773    5.8892   -0.6416 C   0  0  0  0  0  0  0  0  0  0  0  0
    1.0359    4.0196    2.7591 S   0  0  0  0  0  0  0  0  0  0  0  0
    1.9199    3.0946    3.3770 O   0  0  0  0  0  0  0  0  0  0  0  0
   -0.1871    3.6188    2.1567 O   0  0  0  0  0  0  0  0  0  0  0  0
    0.6498    5.1463    3.9098 N   0  0  0  0  0  0  0  0  0  0  0  0
    0.7890    6.5741    3.6127 C   0  0  0  0  0  0  0  0  0  0  0  0
    1.8542    7.1697    4.4969 C   0  0  0  0  0  0  0  0  0  0  0  0
    1.6960    8.2711    4.9790 O   0  0  0  0  0  0  0  0  0  0  0  0
    2.9826    6.4781    4.7516 N   0  0  0  0  0  0  0  0  0  0  0  0
    4.0181    7.0570    5.6110 C   0  0  0  0  0  0  0  0  0  0  0  0
    4.8424    8.0357    4.8148 C   0  0  0  0  0  0  0  0  0  0  0  0
    5.1995    9.0793    5.3194 O   0  0  0  0  0  0  0  0  0  0  0  0
    5.1829    7.7513    3.5422 N   0  0  0  0  0  0  0  0  0  0  0  0
    5.8646    8.6997    2.7717 C   0  0  0  0  0  0  0  0  0  0  0  0
    5.4722    8.9437    1.4616 C   0  0  0  0  0  0  0  0  0  0  0  0
    6.1418    9.8838    0.7028 C   0  0  0  0  0  0  0  0  0  0  0  0
    7.2101   10.5762    1.2409 C   0  0  0  0  0  0  0  0  0  0  0  0
    7.6101   10.3325    2.5471 C   0  0  0  0  0  0  0  0  0  0  0  0
    6.9372    9.3937    3.3134 C   0  0  0  0  0  0  0  0  0  0  0  0
    8.6613   11.0135    3.0745 O   0  0  0  0  0  0  0  0  0  0  0  0
    9.3078   11.9659    2.2278 C   0  0  0  0  0  0  0  0  0  0  0  0
   10.0833   12.9439    3.0723 C   0  0  0  0  0  0  0  0  0  0  0  0
   11.2398   12.7152    3.3573 O   0  0  0  0  0  0  0  0  0  0  0  0
    9.4917   14.0726    3.5111 N   0  0  0  0  0  0  0  0  0  0  0  0
    5.0681    7.3032   -0.9855 H   0  0  0  0  0  0  0  0  0  0  0  0
    3.5703    7.6754   -1.8534 H   0  0  0  0  0  0  0  0  0  0  0  0
    4.5326    6.1981   -2.3414 H   0  0  0  0  0  0  0  0  0  0  0  0
    5.1080    5.9539    0.8800 H   0  0  0  0  0  0  0  0  0  0  0  0
    3.7998    4.7876    2.6379 H   0  0  0  0  0  0  0  0  0  0  0  0
    0.2814    5.0265    0.1783 H   0  0  0  0  0  0  0  0  0  0  0  0
    1.5862    6.2059   -1.5736 H   0  0  0  0  0  0  0  0  0  0  0  0
    0.3118    4.8432    4.8342 H   0  0  0  0  0  0  0  0  0  0  0  0
   -0.1681    7.0835    3.7989 H   0  0  0  0  0  0  0  0  0  0  0  0
    1.0740    6.7033    2.5581 H   0  0  0  0  0  0  0  0  0  0  0  0
    3.1170    5.5427    4.3420 H   0  0  0  0  0  0  0  0  0  0  0  0
    4.6687    6.2566    5.9933 H   0  0  0  0  0  0  0  0  0  0  0  0
    3.5444    7.5791    6.4554 H   0  0  0  0  0  0  0  0  0  0  0  0
    4.9412    6.8359    3.1367 H   0  0  0  0  0  0  0  0  0  0  0  0
    4.6276    8.3880    1.0283 H   0  0  0  0  0  0  0  0  0  0  0  0
    5.8242   10.0817   -0.3316 H   0  0  0  0  0  0  0  0  0  0  0  0
    7.7439   11.3215    0.6329 H   0  0  0  0  0  0  0  0  0  0  0  0
    7.2528    9.1991    4.3491 H   0  0  0  0  0  0  0  0  0  0  0  0
    8.5524   12.5083    1.6403 H   0  0  0  0  0  0  0  0  0  0  0  0
    9.9963   11.4436    1.5471 H   0  0  0  0  0  0  0  0  0  0  0  0
    9.6741   14.4118    4.4664 H   0  0  0  0  0  0  0  0  0  0  0  0
    8.8573   14.5961    2.8910 H   0  0  0  0  0  0  0  0  0  0  0  0
  1  2  1  0  0  0  0
  1 31  1  0  0  0  0
  1 32  1  0  0  0  0
  1 33  1  0  0  0  0
  2  7  2  0  0  0  0
  2  3  1  0  0  0  0
  3  4  2  0  0  0  0
  3 34  1  0  0  0  0
  4  5  1  0  0  0  0
  4 35  1  0  0  0  0
  5  6  2  0  0  0  0
  5  8  1  0  0  0  0
  6  7  1  0  0  0  0
  6 36  1  0  0  0  0
  7 37  1  0  0  0  0
  8  9  2  0  0  0  0
  8 10  2  0  0  0  0
  8 11  1  0  0  0  0
 11 12  1  0  0  0  0
 11 38  1  0  0  0  0
 12 13  1  0  0  0  0
 12 39  1  0  0  0  0
 12 40  1  0  0  0  0
 13 14  2  0  0  0  0
 13 15  1  0  0  0  0
 15 16  1  0  0  0  0
 15 41  1  0  0  0  0
 16 17  1  0  0  0  0
 16 42  1  0  0  0  0
 16 43  1  0  0  0  0
 17 18  2  0  0  0  0
 17 19  1  0  0  0  0
 19 20  1  0  0  0  0
 19 44  1  0  0  0  0
 20 25  2  0  0  0  0
 20 21  1  0  0  0  0
 21 22  2  0  0  0  0
 21 45  1  0  0  0  0
 22 23  1  0  0  0  0
 22 46  1  0  0  0  0
 23 24  2  0  0  0  0
 23 47  1  0  0  0  0
 24 25  1  0  0  0  0
 24 26  1  0  0  0  0
 25 48  1  0  0  0  0
 26 27  1  0  0  0  0
 27 28  1  0  0  0  0
 27 49  1  0  0  0  0
 27 50  1  0  0  0  0
 28 29  2  0  0  0  0
 28 30  1  0  0  0  0
 30 51  1  0  0  0  0
 30 52  1  0  0  0  0
M  END
> <Name>
ZINC30924904

> <reference>
BDB4946

> <quality>
0.757

> <status>
decoy

> <atoms in reference ligand area>
12

> <score>
-32.512

$$$$
ZINC27654081
      BALL 1.4.0 (Jan  4 2012, 23:22:29)

 38 39  0999  0  0  0  0  0  0999 V2000
    7.3706   11.8252    0.7011 C   0  0  0  0  0  0  0  0  0  0  0  0
    7.9443   12.9835    0.5554 N   0  0  0  0  0  0  0  0  0  0  0  0
    8.7957   13.1989    1.5888 C   0  0  0  0  0  0  0  0  0  0  0  0
    8.7247   12.0713    2.4251 C   0  0  0  0  0  0  0  0  0  0  0  0
    7.8188   11.2229    1.8403 N   0  0  0  0  0  0  0  0  0  0  0  0
    7.4082    9.9107    2.3463 C   0  0  0  0  0  0  0  0  0  0  0  0
    6.0022    9.7442    2.1524 O   0  0  0  0  0  0  0  0  0  0  0  0
    5.4565    8.5990    2.8102 C   0  0  0  0  0  0  0  0  0  0  0  0
    5.2870    7.4628    1.7994 C   0  0  0  0  0  0  0  0  0  0  0  0
    5.3897    7.9944    0.4522 O   0  0  0  0  0  0  0  0  0  0  0  0
    5.4701    7.1045   -0.5495 C   0  0  0  0  0  0  0  0  0  0  0  0
    6.1376    6.1059   -0.4183 O   0  0  0  0  0  0  0  0  0  0  0  0
    4.7277    7.3507   -1.8377 C   0  0  0  0  0  0  0  0  0  0  0  0
    5.6045    6.9322   -3.0196 C   0  0  0  0  0  0  0  0  0  0  0  0
    6.2315    8.1223   -3.6098 N   0  3  0  0  0  0  0  0  0  0  0  0
    9.4721   12.0315    3.5226 N   0  0  0  0  0  0  0  0  0  0  0  0
   10.2680   13.0426    3.8310 C   0  0  0  0  0  0  0  0  0  0  0  0
   10.3647   14.1250    3.0693 N   0  0  0  0  0  0  0  0  0  0  0  0
    9.6567   14.2450    1.9539 C   0  0  0  0  0  0  0  0  0  0  0  0
    9.7631   15.3539    1.1831 O   0  0  0  0  0  0  0  0  0  0  0  0
   11.0258   12.9689    4.9881 N   0  0  0  0  0  0  0  0  0  0  0  0
    6.6327   11.3948    0.0080 H   0  0  0  0  0  0  0  0  0  0  0  0
    7.9488    9.1222    1.8022 H   0  0  0  0  0  0  0  0  0  0  0  0
    7.6404    9.8412    3.4192 H   0  0  0  0  0  0  0  0  0  0  0  0
    4.4773    8.8543    3.2413 H   0  0  0  0  0  0  0  0  0  0  0  0
    6.1375    8.2772    3.6119 H   0  0  0  0  0  0  0  0  0  0  0  0
    6.0741    6.7108    1.9574 H   0  0  0  0  0  0  0  0  0  0  0  0
    4.3006    6.9949    1.9340 H   0  0  0  0  0  0  0  0  0  0  0  0
    3.7988    6.7616   -1.8442 H   0  0  0  0  0  0  0  0  0  0  0  0
    4.4844    8.4200   -1.9233 H   0  0  0  0  0  0  0  0  0  0  0  0
    6.3862    6.2418   -2.6701 H   0  0  0  0  0  0  0  0  0  0  0  0
    4.9848    6.4311   -3.7778 H   0  0  0  0  0  0  0  0  0  0  0  0
    6.3835    7.9679   -4.6167 H   0  0  0  0  0  0  0  0  0  0  0  0
    7.1359    8.2989   -3.1497 H   0  0  0  0  0  0  0  0  0  0  0  0
    5.6153    8.9371   -3.4776 H   0  0  0  0  0  0  0  0  0  0  0  0
   11.0007   14.8853    3.3490 H   0  0  0  0  0  0  0  0  0  0  0  0
   11.5990   12.1375    5.1909 H   0  0  0  0  0  0  0  0  0  0  0  0
   11.0145   13.7561    5.6522 H   0  0  0  0  0  0  0  0  0  0  0  0
  1  5  1  0  0  0  0
  1  2  2  0  0  0  0
  1 22  1  0  0  0  0
  2  3  1  0  0  0  0
  3  4  2  0  0  0  0
  3 19  1  0  0  0  0
  4  5  1  0  0  0  0
  4 16  1  0  0  0  0
  5  6  1  0  0  0  0
  6  7  1  0  0  0  0
  6 23  1  0  0  0  0
  6 24  1  0  0  0  0
  7  8  1  0  0  0  0
  8  9  1  0  0  0  0
  8 25  1  0  0  0  0
  8 26  1  0  0  0  0
  9 10  1  0  0  0  0
  9 27  1  0  0  0  0
  9 28  1  0  0  0  0
 10 11  1  0  0  0  0
 11 12  2  0  0  0  0
 11 13  1  0  0  0  0
 13 14  1  0  0  0  0
 13 29  1  0  0  0  0
 13 30  1  0  0  0  0
 14 15  1  0  0  0  0
 14 31  1  0  0  0  0
 14 32  1  0  0  0  0
 15 33  1  0  0  0  0
 15 34  1  0  0  0  0
 15 35  1  0  0  0  0
 16 17  2  0  0  0  0
 17 18  1  0  0  0  0
 17 21  1  0  0  0  0
 18 19  1  0  0  0  0
 18 36  1  0  0  0  0
 19 20  2  0  0  0  0
 21 37  1  0  0  0  0
 21 38  1  0  0  0  0
M  END
> <Name>
ZINC27654081

> <reference>
BDB5009

> <quality>
0.832

> <status>
decoy

> <atoms in reference ligand area>
10

> <score>
-32.4006

$$$$
ZINC19731960
      BALL 1.4.0 (Jan  4 2012, 23:22:29)

 42 43  0999  0  0  0  0  0  0999 V2000
    9.5650    9.9063    1.4148 C   0  0  0  0  0  0  0  0  0  0  0  0
    8.6503   10.9338    1.9302 N   0  0  0  0  0  0  0  0  0  0  0  0
    8.6734   10.9704    3.3986 C   0  0  0  0  0  0  0  0  0  0  0  0
    9.9507   11.6674    3.8714 C   0  0  0  0  0  0  0  0  0  0  0  0
   10.3820   12.7026    2.8306 C   0  0  0  0  0  0  0  0  0  0  0  0
    9.7745   13.9610    3.1302 O   0  0  0  0  0  0  0  0  0  0  0  0
    9.8828   14.9374    2.1913 C   0  0  0  0  0  0  0  0  0  0  0  0
   10.5603   14.6886    1.0056 C   0  0  0  0  0  0  0  0  0  0  0  0
   10.6713   15.6804    0.0498 C   0  0  0  0  0  0  0  0  0  0  0  0
   10.1085   16.9226    0.2709 C   0  0  0  0  0  0  0  0  0  0  0  0
    9.4346   17.1793    1.4585 C   0  0  0  0  0  0  0  0  0  0  0  0
    9.3172   16.1821    2.4173 C   0  0  0  0  0  0  0  0  0  0  0  0
    8.8710   18.4370    1.6848 N   0  0  0  0  0  0  0  0  0  0  0  0
    7.2854   10.7222    1.4302 C   0  0  0  0  0  0  0  0  0  0  0  0
    6.7046    9.4333    2.0353 C   0  0  0  0  0  0  0  0  0  0  0  0
    5.4135    9.0319    1.2822 C   0  0  0  0  0  0  0  0  0  0  0  0
    5.6918    9.7292   -0.3968 S   0  0  0  0  0  0  0  0  0  0  0  0
    4.7034   10.7163   -0.6571 O   0  0  0  0  0  0  0  0  0  0  0  0
    5.8740    8.6614   -1.3164 O   0  0  0  0  0  0  0  0  0  0  0  0
    7.3114   10.5619   -0.1168 C   0  0  0  0  0  0  0  0  0  0  0  0
    9.2663    9.6470    0.3884 H   0  0  0  0  0  0  0  0  0  0  0  0
    9.4876    9.0110    2.0492 H   0  0  0  0  0  0  0  0  0  0  0  0
   10.5991   10.2812    1.4205 H   0  0  0  0  0  0  0  0  0  0  0  0
    7.7967   11.5245    3.7655 H   0  0  0  0  0  0  0  0  0  0  0  0
    8.6495    9.9437    3.7926 H   0  0  0  0  0  0  0  0  0  0  0  0
    9.7604   12.1704    4.8310 H   0  0  0  0  0  0  0  0  0  0  0  0
   10.7501   10.9227    3.9998 H   0  0  0  0  0  0  0  0  0  0  0  0
   11.4765   12.8100    2.8519 H   0  0  0  0  0  0  0  0  0  0  0  0
   10.0653   12.3723    1.8302 H   0  0  0  0  0  0  0  0  0  0  0  0
   11.0095   13.7006    0.8265 H   0  0  0  0  0  0  0  0  0  0  0  0
   11.2088   15.4805   -0.8890 H   0  0  0  0  0  0  0  0  0  0  0  0
   10.1940   17.7089   -0.4936 H   0  0  0  0  0  0  0  0  0  0  0  0
    8.7764   16.3797    3.3545 H   0  0  0  0  0  0  0  0  0  0  0  0
    8.8182   19.1227    0.9181 H   0  0  0  0  0  0  0  0  0  0  0  0
    8.5082   18.6787    2.6180 H   0  0  0  0  0  0  0  0  0  0  0  0
    6.6684   11.5878    1.7134 H   0  0  0  0  0  0  0  0  0  0  0  0
    6.4707    9.5999    3.0972 H   0  0  0  0  0  0  0  0  0  0  0  0
    7.4440    8.6235    1.9493 H   0  0  0  0  0  0  0  0  0  0  0  0
    5.3259    7.9371    1.2222 H   0  0  0  0  0  0  0  0  0  0  0  0
    4.5338    9.5058    1.7421 H   0  0  0  0  0  0  0  0  0  0  0  0
    7.3188   11.5442   -0.6117 H   0  0  0  0  0  0  0  0  0  0  0  0
    8.1324    9.8996   -0.4286 H   0  0  0  0  0  0  0  0  0  0  0  0
  1  2  1  0  0  0  0
  1 21  1  0  0  0  0
  1 22  1  0  0  0  0
  1 23  1  0  0  0  0
  2  3  1  0  0  0  0
  2 14  1  0  0  0  0
  3  4  1  0  0  0  0
  3 24  1  0  0  0  0
  3 25  1  0  0  0  0
  4  5  1  0  0  0  0
  4 26  1  0  0  0  0
  4 27  1  0  0  0  0
  5  6  1  0  0  0  0
  5 28  1  0  0  0  0
  5 29  1  0  0  0  0
  6  7  1  0  0  0  0
  7 12  2  0  0  0  0
  7  8  1  0  0  0  0
  8  9  2  0  0  0  0
  8 30  1  0  0  0  0
  9 10  1  0  0  0  0
  9 31  1  0  0  0  0
 10 11  2  0  0  0  0
 10 32  1  0  0  0  0
 11 12  1  0  0  0  0
 11 13  1  0  0  0  0
 12 33  1  0  0  0  0
 13 34  1  0  0  0  0
 13 35  1  0  0  0  0
 14 20  1  0  0  0  0
 14 15  1  0  0  0  0
 14 36  1  0  0  0  0
 15 16  1  0  0  0  0
 15 37  1  0  0  0  0
 15 38  1  0  0  0  0
 16 17  1  0  0  0  0
 16 39  1  0  0  0  0
 16 40  1  0  0  0  0
 17 18  2  0  0  0  0
 17 19  2  0  0  0  0
 17 20  1  0  0  0  0
 20 41  1  0  0  0  0
 20 42  1  0  0  0  0
M  END
> <Name>
ZINC19731960

> <reference>
BDB5015

> <quality>
0.707

> <status>
decoy

> <atoms in reference ligand area>
15

> <score>
-32.0803

$$$$
ZINC00389139
      BALL 1.4.0 (Jan  4 2012, 23:22:29)

 42 43  0999  0  0  0  0  0  0999 V2000
    6.9301   12.0062    1.4482 C   0  0  0  0  0  0  0  0  0  0  0  0
    7.7639   12.8852    2.2059 O   0  0  0  0  0  0  0  0  0  0  0  0
    9.0119   12.4402    2.5135 C   0  0  0  0  0  0  0  0  0  0  0  0
    9.2803   11.1013    2.4746 C   0  0  0  0  0  0  0  0  0  0  0  0
   10.5644   10.6417    2.7905 C   0  0  0  0  0  0  0  0  0  0  0  0
   11.5767   11.5657    3.1485 C   0  0  0  0  0  0  0  0  0  0  0  0
   11.2797   12.9334    3.1820 C   0  0  0  0  0  0  0  0  0  0  0  0
   10.0082   13.3602    2.8663 C   0  0  0  0  0  0  0  0  0  0  0  0
    9.7173   14.6867    2.8979 O   0  0  0  0  0  0  0  0  0  0  0  0
    8.3381   15.0463    3.0001 C   0  0  0  0  0  0  0  0  0  0  0  0
   12.7988   11.1000    3.4529 N   0  0  0  0  0  0  0  0  0  0  0  0
   13.0504    9.8062    3.4076 C   0  0  0  0  0  0  0  0  0  0  0  0
   12.1292    8.9055    3.0768 N   0  0  0  0  0  0  0  0  0  0  0  0
   10.8923    9.2642    2.7649 C   0  0  0  0  0  0  0  0  0  0  0  0
    9.9471    8.3191    2.4241 N   0  0  0  0  0  0  0  0  0  0  0  0
   14.3242    9.3669    3.7230 N   0  0  0  0  0  0  0  0  0  0  0  0
   15.2675    9.0275    2.6547 C   0  0  0  0  0  0  0  0  0  0  0  0
   14.6872    7.8974    1.8020 C   0  0  0  0  0  0  0  0  0  0  0  0
   13.8276    8.4483    0.8022 O   0  0  0  0  0  0  0  0  0  0  0  0
   14.7295    9.2412    5.1252 C   0  0  0  0  0  0  0  0  0  0  0  0
   15.5631   10.4598    5.5264 C   0  0  0  0  0  0  0  0  0  0  0  0
   15.4716   10.6554    6.9390 O   0  0  0  0  0  0  0  0  0  0  0  0
    6.1653   11.6298    2.1434 H   0  0  0  0  0  0  0  0  0  0  0  0
    7.5640   11.1573    1.1522 H   0  0  0  0  0  0  0  0  0  0  0  0
    6.4770   12.4974    0.5745 H   0  0  0  0  0  0  0  0  0  0  0  0
    8.4909   10.3875    2.1962 H   0  0  0  0  0  0  0  0  0  0  0  0
   12.0559   13.6622    3.4583 H   0  0  0  0  0  0  0  0  0  0  0  0
    8.3083   16.1443    3.0593 H   0  0  0  0  0  0  0  0  0  0  0  0
    7.9847   14.6467    3.9621 H   0  0  0  0  0  0  0  0  0  0  0  0
    7.7368   14.6695    2.1595 H   0  0  0  0  0  0  0  0  0  0  0  0
    9.6987    7.5850    3.1025 H   0  0  0  0  0  0  0  0  0  0  0  0
    9.4926    8.3456    1.5001 H   0  0  0  0  0  0  0  0  0  0  0  0
   15.4397    9.9114    2.0230 H   0  0  0  0  0  0  0  0  0  0  0  0
   16.2207    8.7007    3.0958 H   0  0  0  0  0  0  0  0  0  0  0  0
   15.5064    7.3460    1.3172 H   0  0  0  0  0  0  0  0  0  0  0  0
   14.1121    7.2120    2.4420 H   0  0  0  0  0  0  0  0  0  0  0  0
   14.2969    9.1803    0.3289 H   0  0  0  0  0  0  0  0  0  0  0  0
   15.3301    8.3286    5.2540 H   0  0  0  0  0  0  0  0  0  0  0  0
   13.8345    9.1841    5.7621 H   0  0  0  0  0  0  0  0  0  0  0  0
   16.6139   10.2934    5.2471 H   0  0  0  0  0  0  0  0  0  0  0  0
   15.1829   11.3523    5.0079 H   0  0  0  0  0  0  0  0  0  0  0  0
   14.6207   11.1128    7.1553 H   0  0  0  0  0  0  0  0  0  0  0  0
  1  2  1  0  0  0  0
  1 23  1  0  0  0  0
  1 24  1  0  0  0  0
  1 25  1  0  0  0  0
  2  3  1  0  0  0  0
  3  8  2  0  0  0  0
  3  4  1  0  0  0  0
  4  5  2  0  0  0  0
  4 26  1  0  0  0  0
  5 14  1  0  0  0  0
  5  6  1  0  0  0  0
  6  7  2  0  0  0  0
  6 11  1  0  0  0  0
  7  8  1  0  0  0  0
  7 27  1  0  0  0  0
  8  9  1  0  0  0  0
  9 10  1  0  0  0  0
 10 28  1  0  0  0  0
 10 29  1  0  0  0  0
 10 30  1  0  0  0  0
 11 12  2  0  0  0  0
 12 13  1  0  0  0  0
 12 16  1  0  0  0  0
 13 14  2  0  0  0  0
 14 15  1  0  0  0  0
 15 31  1  0  0  0  0
 15 32  1  0  0  0  0
 16 17  1  0  0  0  0
 16 20  1  0  0  0  0
 17 18  1  0  0  0  0
 17 33  1  0  0  0  0
 17 34  1  0  0  0  0
 18 19  1  0  0  0  0
 18 35  1  0  0  0  0
 18 36  1  0  0  0  0
 19 37  1  0  0  0  0
 20 21  1  0  0  0  0
 20 38  1  0  0  0  0
 20 39  1  0  0  0  0
 21 22  1  0  0  0  0
 21 40  1  0  0  0  0
 21 41  1  0  0  0  0
 22 42  1  0  0  0  0
M  END
> <Name>
ZINC00389139

> <reference>
BDB5023

> <quality>
0.703

> <status>
decoy

> <atoms in reference ligand area>
16

> <score>
-32.0139

$$$$
ZINC10111680
      BALL 1.4.0 (Jan  4 2012, 23:22:29)

 42 42  0999  0  0  0  0  0  0999 V2000
   10.4987   16.0193   -0.8115 C   0  0  0  0  0  0  0  0  0  0  0  0
   10.1160   14.5393   -0.7479 C   0  0  0  0  0  0  0  0  0  0  0  0
   11.5865   13.5508   -0.3592 S   0  0  0  0  0  0  0  0  0  0  0  0
   12.5796   14.3677    0.2456 O   0  0  0  0  0  0  0  0  0  0  0  0
   11.9118   12.7059   -1.4544 O   0  0  0  0  0  0  0  0  0  0  0  0
   11.1001   12.5185    0.8409 N   0  0  0  0  0  0  0  0  0  0  0  0
    9.8307   11.9525    0.7990 C   0  0  0  0  0  0  0  0  0  0  0  0
    9.0786   12.0195   -0.3706 C   0  0  0  0  0  0  0  0  0  0  0  0
    7.8240   11.4560   -0.4167 C   0  0  0  0  0  0  0  0  0  0  0  0
    7.3007   10.8249    0.7156 C   0  0  0  0  0  0  0  0  0  0  0  0
    8.0564   10.7639    1.8903 C   0  0  0  0  0  0  0  0  0  0  0  0
    9.3123   11.3251    1.9286 C   0  0  0  0  0  0  0  0  0  0  0  0
    5.9543   10.2239    0.6711 C   0  0  0  0  0  0  0  0  0  0  0  0
    5.0411   10.7313    1.2933 O   0  0  0  0  0  0  0  0  0  0  0  0
    5.7363    9.1123   -0.0594 N   0  0  0  0  0  0  0  0  0  0  0  0
    4.3992    8.5155   -0.1036 C   0  0  0  0  0  0  0  0  0  0  0  0
    4.4245    7.2733   -0.9966 C   0  0  0  0  0  0  0  0  0  0  0  0
    2.9774    7.0025   -2.9188 C   0  0  0  0  0  0  0  0  0  0  0  0
    2.6245    5.6548   -0.9384 C   0  0  0  0  0  0  0  0  0  0  0  0
    3.0464    6.9787   -1.4425 N   0  3  0  0  0  0  0  0  0  0  0  0
   11.3407   16.2112   -0.1301 H   0  0  0  0  0  0  0  0  0  0  0  0
    9.6377   16.6350   -0.5120 H   0  0  0  0  0  0  0  0  0  0  0  0
   10.7936   16.2788   -1.8389 H   0  0  0  0  0  0  0  0  0  0  0  0
    9.7087   14.2226   -1.7194 H   0  0  0  0  0  0  0  0  0  0  0  0
    9.3572   14.3898    0.0342 H   0  0  0  0  0  0  0  0  0  0  0  0
   11.7379   12.2957    1.6184 H   0  0  0  0  0  0  0  0  0  0  0  0
    9.4876   12.5233   -1.2587 H   0  0  0  0  0  0  0  0  0  0  0  0
    7.2335   11.5021   -1.3435 H   0  0  0  0  0  0  0  0  0  0  0  0
    7.6475   10.2680    2.7829 H   0  0  0  0  0  0  0  0  0  0  0  0
    9.9072   11.2778    2.8526 H   0  0  0  0  0  0  0  0  0  0  0  0
    6.5099    8.6826   -0.5865 H   0  0  0  0  0  0  0  0  0  0  0  0
    4.0913    8.2295    0.9130 H   0  0  0  0  0  0  0  0  0  0  0  0
    3.6841    9.2450   -0.5117 H   0  0  0  0  0  0  0  0  0  0  0  0
    4.8177    6.4177   -0.4280 H   0  0  0  0  0  0  0  0  0  0  0  0
    5.0621    7.4624   -1.8728 H   0  0  0  0  0  0  0  0  0  0  0  0
    3.9719    7.2380   -3.3256 H   0  0  0  0  0  0  0  0  0  0  0  0
    2.2617    7.7749   -3.2370 H   0  0  0  0  0  0  0  0  0  0  0  0
    2.6499    6.0206   -3.2912 H   0  0  0  0  0  0  0  0  0  0  0  0
    3.4663    4.9509   -1.0162 H   0  0  0  0  0  0  0  0  0  0  0  0
    1.7842    5.2858   -1.5447 H   0  0  0  0  0  0  0  0  0  0  0  0
    2.3113    5.7400    0.1126 H   0  0  0  0  0  0  0  0  0  0  0  0
    2.4120    7.6976   -1.0662 H   0  0  0  0  0  0  0  0  0  0  0  0
  1  2  1  0  0  0  0
  1 21  1  0  0  0  0
  1 22  1  0  0  0  0
  1 23  1  0  0  0  0
  2  3  1  0  0  0  0
  2 24  1  0  0  0  0
  2 25  1  0  0  0  0
  3  4  2  0  0  0  0
  3  5  2  0  0  0  0
  3  6  1  0  0  0  0
  6  7  1  0  0  0  0
  6 26  1  0  0  0  0
  7 12  2  0  0  0  0
  7  8  1  0  0  0  0
  8  9  2  0  0  0  0
  8 27  1  0  0  0  0
  9 10  1  0  0  0  0
  9 28  1  0  0  0  0
 10 11  2  0  0  0  0
 10 13  1  0  0  0  0
 11 12  1  0  0  0  0
 11 29  1  0  0  0  0
 12 30  1  0  0  0  0
 13 14  2  0  0  0  0
 13 15  1  0  0  0  0
 15 16  1  0  0  0  0
 15 31  1  0  0  0  0
 16 17  1  0  0  0  0
 16 32  1  0  0  0  0
 16 33  1  0  0  0  0
 17 20  1  0  0  0  0
 17 34  1  0  0  0  0
 17 35  1  0  0  0  0
 18 20  1  0  0  0  0
 18 36  1  0  0  0  0
 18 37  1  0  0  0  0
 18 38  1  0  0  0  0
 19 20  1  0  0  0  0
 19 39  1  0  0  0  0
 19 40  1  0  0  0  0
 19 41  1  0  0  0  0
 20 42  1  0  0  0  0
M  END
> <Name>
ZINC10111680

> <reference>
BDB5232

> <quality>
0.752

> <status>
decoy

> <atoms in reference ligand area>
17

> <score>
-31.7207

$$$$
ZINC05543801
      BALL 1.4.0 (Jan  4 2012, 23:22:29)

 48 50  0999  0  0  0  0  0  0999 V2000
   10.2993   13.6032   -3.8041 C   0  0  0  0  0  0  0  0  0  0  0  0
   10.8885   12.8492   -2.6399 C   0  0  0  0  0  0  0  0  0  0  0  0
   10.0810   12.1609   -1.8018 C   0  0  0  0  0  0  0  0  0  0  0  0
   10.5544   11.7657   -0.5302 C   0  0  0  0  0  0  0  0  0  0  0  0
   11.7117   11.9837   -0.2161 O   0  0  0  0  0  0  0  0  0  0  0  0
    9.6481   11.0896    0.4166 C   0  0  0  0  0  0  0  0  0  0  0  0
   10.0195   10.1669    1.3728 C   0  0  0  0  0  0  0  0  0  0  0  0
    8.8662    9.7820    2.0542 C   0  0  0  0  0  0  0  0  0  0  0  0
    7.8074   10.4721    1.4987 C   0  0  0  0  0  0  0  0  0  0  0  0
    8.2955   11.2665    0.4954 N   0  0  0  0  0  0  0  0  0  0  0  0
    6.4000   10.3714    1.9119 C   0  0  0  0  0  0  0  0  0  0  0  0
    5.5515   11.0320    1.3452 O   0  0  0  0  0  0  0  0  0  0  0  0
   11.4178    9.6707    1.6364 C   0  0  0  0  0  0  0  0  0  0  0  0
   11.4274    8.1311    1.7808 C   0  0  0  0  0  0  0  0  0  0  0  0
   12.4981    7.9262    2.8779 C   0  0  0  0  0  0  0  0  0  0  0  0
   12.5061    9.1731    3.6519 N   0  0  0  0  0  0  0  0  0  0  0  0
   11.9139   10.1719    2.9748 C   0  0  0  0  0  0  0  0  0  0  0  0
   11.7943   11.3094    3.3782 O   0  0  0  0  0  0  0  0  0  0  0  0
   13.0899    9.3127    4.9882 C   0  0  0  0  0  0  0  0  0  0  0  0
   14.5392    9.7072    4.8646 C   0  0  0  0  0  0  0  0  0  0  0  0
   14.9811   10.8964    5.4135 C   0  0  0  0  0  0  0  0  0  0  0  0
   16.3089   11.2616    5.2941 C   0  0  0  0  0  0  0  0  0  0  0  0
   17.1953   10.4364    4.6277 C   0  0  0  0  0  0  0  0  0  0  0  0
   16.7536    9.2469    4.0792 C   0  0  0  0  0  0  0  0  0  0  0  0
   15.4254    8.8824    4.1975 C   0  0  0  0  0  0  0  0  0  0  0  0
   12.2379   12.8612   -2.4314 N   0  3  0  0  0  0  0  0  0  0  0  0
    6.0505    9.5465    2.9195 O   0  5  0  0  0  0  0  0  0  0  0  0
    9.3361   13.1120   -4.0064 H   0  0  0  0  0  0  0  0  0  0  0  0
   10.9627   13.3836   -4.6536 H   0  0  0  0  0  0  0  0  0  0  0  0
   10.1908   14.6829   -3.6236 H   0  0  0  0  0  0  0  0  0  0  0  0
    9.7448   11.2569   -2.3308 H   0  0  0  0  0  0  0  0  0  0  0  0
    9.1712   12.7604   -1.6502 H   0  0  0  0  0  0  0  0  0  0  0  0
    8.8099    9.0606    2.8827 H   0  0  0  0  0  0  0  0  0  0  0  0
    7.7360   11.8931   -0.1005 H   0  0  0  0  0  0  0  0  0  0  0  0
   12.0376   10.0205    0.7978 H   0  0  0  0  0  0  0  0  0  0  0  0
   11.7480    7.6589    0.8404 H   0  0  0  0  0  0  0  0  0  0  0  0
   10.4479    7.7727    2.1302 H   0  0  0  0  0  0  0  0  0  0  0  0
   12.2156    7.0828    3.5252 H   0  0  0  0  0  0  0  0  0  0  0  0
   13.4832    7.7630    2.4166 H   0  0  0  0  0  0  0  0  0  0  0  0
   13.0158    8.3548    5.5238 H   0  0  0  0  0  0  0  0  0  0  0  0
   12.5457   10.0883    5.5471 H   0  0  0  0  0  0  0  0  0  0  0  0
   14.2760   11.5522    5.9453 H   0  0  0  0  0  0  0  0  0  0  0  0
   16.6601   12.2088    5.7292 H   0  0  0  0  0  0  0  0  0  0  0  0
   18.2523   10.7262    4.5339 H   0  0  0  0  0  0  0  0  0  0  0  0
   17.4589    8.5904    3.5486 H   0  0  0  0  0  0  0  0  0  0  0  0
   15.0738    7.9360    3.7609 H   0  0  0  0  0  0  0  0  0  0  0  0
   12.8531   13.3856   -3.0697 H   0  0  0  0  0  0  0  0  0  0  0  0
   12.6407   12.3459   -1.6356 H   0  0  0  0  0  0  0  0  0  0  0  0
  1  2  1  0  0  0  0
  1 28  1  0  0  0  0
  1 29  1  0  0  0  0
  1 30  1  0  0  0  0
  2  3  1  0  0  0  0
  2 26  2  0  0  0  0
  3  4  1  0  0  0  0
  3 31  1  0  0  0  0
  3 32  1  0  0  0  0
  4  5  2  0  0  0  0
  4  6  1  0  0  0  0
  6 10  1  0  0  0  0
  6  7  2  0  0  0  0
  7  8  1  0  0  0  0
  7 13  1  0  0  0  0
  8  9  2  0  0  0  0
  8 33  1  0  0  0  0
  9 10  1  0  0  0  0
  9 11  1  0  0  0  0
 10 34  1  0  0  0  0
 11 12  2  0  0  0  0
 11 27  1  0  0  0  0
 13 17  1  0  0  0  0
 13 14  1  0  0  0  0
 13 35  1  0  0  0  0
 14 15  1  0  0  0  0
 14 36  1  0  0  0  0
 14 37  1  0  0  0  0
 15 16  1  0  0  0  0
 15 38  1  0  0  0  0
 15 39  1  0  0  0  0
 16 17  1  0  0  0  0
 16 19  1  0  0  0  0
 17 18  2  0  0  0  0
 19 20  1  0  0  0  0
 19 40  1  0  0  0  0
 19 41  1  0  0  0  0
 20 25  2  0  0  0  0
 20 21  1  0  0  0  0
 21 22  2  0  0  0  0
 21 42  1  0  0  0  0
 22 23  1  0  0  0  0
 22 43  1  0  0  0  0
 23 24  2  0  0  0  0
 23 44  1  0  0  0  0
 24 25  1  0  0  0  0
 24 45  1  0  0  0  0
 25 46  1  0  0  0  0
 26 47  1  0  0  0  0
 26 48  1  0  0  0  0
M  END
> <Name>
ZINC05543801

> <reference>
BDB4952

> <quality>
0.765

> <status>
decoy

> <atoms in reference ligand area>
17

> <score>
-31.6259

$$$$
ZINC09325686
      BALL 1.4.0 (Jan  4 2012, 23:22:29)

 43 44  0999  0  0  0  0  0  0999 V2000
    8.9836   15.2992    2.6585 C   0  0  0  0  0  0  0  0  0  0  0  0
    8.2563   14.1728    2.9914 C   0  0  0  0  0  0  0  0  0  0  0  0
    8.1294   13.1347    2.0779 C   0  0  0  0  0  0  0  0  0  0  0  0
    8.7246   13.2370    0.8274 C   0  0  0  0  0  0  0  0  0  0  0  0
    9.4510   14.3663    0.5001 C   0  0  0  0  0  0  0  0  0  0  0  0
    9.5802   15.3966    1.4154 C   0  0  0  0  0  0  0  0  0  0  0  0
   10.2014   14.4929   -1.0602 Cl  0  0  0  0  0  0  0  0  0  0  0  0
    7.3981   11.9902    2.4147 N   0  0  0  0  0  0  0  0  0  0  0  0
    7.7695   10.7874    1.9333 C   0  0  0  0  0  0  0  0  0  0  0  0
    8.7907   10.6816    1.2876 O   0  0  0  0  0  0  0  0  0  0  0  0
    6.9158    9.5738    2.1975 C   0  0  0  0  0  0  0  0  0  0  0  0
    6.8646    8.7030    0.9405 C   0  0  0  0  0  0  0  0  0  0  0  0
    5.6319    9.0438    0.1433 C   0  0  0  0  0  0  0  0  0  0  0  0
    4.9937    8.1657   -0.3873 O   0  0  0  0  0  0  0  0  0  0  0  0
    5.6891    7.0452    2.2566 C   0  0  0  0  0  0  0  0  0  0  0  0
    4.7422    6.0177    1.6333 C   0  0  0  0  0  0  0  0  0  0  0  0
    3.2936    6.4286    1.9046 C   0  0  0  0  0  0  0  0  0  0  0  0
    2.4090    5.7603    0.9469 N   0  0  0  0  0  0  0  0  0  0  0  0
    1.5206    4.7569    1.2253 C   0  0  0  0  0  0  0  0  0  0  0  0
    0.9149    4.4397    0.0650 C   0  0  0  0  0  0  0  0  0  0  0  0
    1.4265    5.2216   -0.8973 N   0  0  0  0  0  0  0  0  0  0  0  0
    2.3220    6.0151   -0.3764 C   0  0  0  0  0  0  0  0  0  0  0  0
    5.2429   10.3228    0.0228 O   0  5  0  0  0  0  0  0  0  0  0  0
    6.8176    7.2830    1.3369 N   0  3  0  0  0  0  0  0  0  0  0  0
    9.0880   16.1197    3.3837 H   0  0  0  0  0  0  0  0  0  0  0  0
    7.7783   14.0983    3.9792 H   0  0  0  0  0  0  0  0  0  0  0  0
    8.6182   12.4202    0.0983 H   0  0  0  0  0  0  0  0  0  0  0  0
   10.1588   16.2946    1.1530 H   0  0  0  0  0  0  0  0  0  0  0  0
    6.5761   12.0670    3.0305 H   0  0  0  0  0  0  0  0  0  0  0  0
    7.3482    8.9947    3.0268 H   0  0  0  0  0  0  0  0  0  0  0  0
    5.8971    9.8917    2.4642 H   0  0  0  0  0  0  0  0  0  0  0  0
    7.7583    8.8863    0.3260 H   0  0  0  0  0  0  0  0  0  0  0  0
    5.1485    7.9882    2.4257 H   0  0  0  0  0  0  0  0  0  0  0  0
    6.0708    6.6613    3.2141 H   0  0  0  0  0  0  0  0  0  0  0  0
    4.9129    5.9730    0.5475 H   0  0  0  0  0  0  0  0  0  0  0  0
    4.9308    5.0282    2.0752 H   0  0  0  0  0  0  0  0  0  0  0  0
    3.1940    7.5187    1.7957 H   0  0  0  0  0  0  0  0  0  0  0  0
    3.0145    6.1352    2.9273 H   0  0  0  0  0  0  0  0  0  0  0  0
    1.3366    4.2979    2.2080 H   0  0  0  0  0  0  0  0  0  0  0  0
    0.1371    3.6737   -0.0699 H   0  0  0  0  0  0  0  0  0  0  0  0
    2.9087    6.7670   -0.9245 H   0  0  0  0  0  0  0  0  0  0  0  0
    6.7021    6.6977    0.4972 H   0  0  0  0  0  0  0  0  0  0  0  0
    7.6987    7.0293    1.8061 H   0  0  0  0  0  0  0  0  0  0  0  0
  1  6  2  0  0  0  0
  1  2  1  0  0  0  0
  1 25  1  0  0  0  0
  2  3  2  0  0  0  0
  2 26  1  0  0  0  0
  3  4  1  0  0  0  0
  3  8  1  0  0  0  0
  4  5  2  0  0  0  0
  4 27  1  0  0  0  0
  5  6  1  0  0  0  0
  5  7  1  0  0  0  0
  6 28  1  0  0  0  0
  8  9  1  0  0  0  0
  8 29  1  0  0  0  0
  9 10  2  0  0  0  0
  9 11  1  0  0  0  0
 11 12  1  0  0  0  0
 11 30  1  0  0  0  0
 11 31  1  0  0  0  0
 12 13  1  0  0  0  0
 12 24  1  0  0  0  0
 12 32  1  0  0  0  0
 13 14  2  0  0  0  0
 13 23  1  0  0  0  0
 15 16  1  0  0  0  0
 15 24  1  0  0  0  0
 15 33  1  0  0  0  0
 15 34  1  0  0  0  0
 16 17  1  0  0  0  0
 16 35  1  0  0  0  0
 16 36  1  0  0  0  0
 17 18  1  0  0  0  0
 17 37  1  0  0  0  0
 17 38  1  0  0  0  0
 18 22  1  0  0  0  0
 18 19  1  0  0  0  0
 19 20  2  0  0  0  0
 19 39  1  0  0  0  0
 20 21  1  0  0  0  0
 20 40  1  0  0  0  0
 21 22  2  0  0  0  0
 22 41  1  0  0  0  0
 24 42  1  0  0  0  0
 24 43  1  0  0  0  0
M  END
> <Name>
ZINC09325686

> <reference>
BDB4997

> <quality>
0.723

> <status>
decoy

> <atoms in reference ligand area>
12

> <score>
-31.5648

$$$$
ZINC09600195
      BALL 1.4.0 (Jan  4 2012, 23:22:29)

 57 58  0999  0  0  0  0  0  0999 V2000
    3.7815    7.0459   -0.7641 C   0  0  0  0  0  0  0  0  0  0  0  0
    4.6927    6.9636    0.4622 C   0  0  0  0  0  0  0  0  0  0  0  0
    3.2273    6.6324    2.3610 C   0  0  0  0  0  0  0  0  0  0  0  0
    2.2905    5.9035    1.3956 C   0  0  0  0  0  0  0  0  0  0  0  0
    5.0177    8.2579    2.4825 C   0  0  0  0  0  0  0  0  0  0  0  0
    5.9422    9.1318    1.6324 C   0  0  0  0  0  0  0  0  0  0  0  0
    6.6249   10.1013    2.4925 N   0  0  0  0  0  0  0  0  0  0  0  0
    7.9706   10.1063    2.5666 C   0  0  0  0  0  0  0  0  0  0  0  0
    8.6168    9.3076    1.9208 O   0  0  0  0  0  0  0  0  0  0  0  0
    8.6671   11.0954    3.4441 C   0  0  0  0  0  0  0  0  0  0  0  0
    9.0702   10.7581    4.5378 O   0  0  0  0  0  0  0  0  0  0  0  0
    8.8473   12.3622    3.0208 N   0  0  0  0  0  0  0  0  0  0  0  0
    9.5300   13.3320    3.8810 C   0  0  0  0  0  0  0  0  0  0  0  0
   10.2573   14.3606    3.0128 C   0  0  0  0  0  0  0  0  0  0  0  0
   11.4026   13.7238    2.3426 N   0  0  0  0  0  0  0  0  0  0  0  0
   11.1758   13.8943    0.8903 C   0  0  0  0  0  0  0  0  0  0  0  0
   10.1868   15.0829    0.8339 C   0  0  0  0  0  0  0  0  0  0  0  0
    9.3649   14.8605    2.0030 O   0  0  0  0  0  0  0  0  0  0  0  0
   12.6891   12.9743    3.0677 S   0  0  0  0  0  0  0  0  0  0  0  0
   13.8204   13.2223    2.2444 O   0  0  0  0  0  0  0  0  0  0  0  0
   12.6510   13.3395    4.4404 O   0  0  0  0  0  0  0  0  0  0  0  0
   12.3873   11.2396    2.9995 C   0  0  0  0  0  0  0  0  0  0  0  0
   12.8262   10.5043    1.9144 C   0  0  0  0  0  0  0  0  0  0  0  0
   12.5944    9.1429    1.8620 C   0  0  0  0  0  0  0  0  0  0  0  0
   11.9129    8.5172    2.8922 C   0  0  0  0  0  0  0  0  0  0  0  0
   11.4691    9.2556    3.9762 C   0  0  0  0  0  0  0  0  0  0  0  0
   11.7068   10.6160    4.0287 C   0  0  0  0  0  0  0  0  0  0  0  0
   11.6816    7.1872    2.8400 F   0  0  0  0  0  0  0  0  0  0  0  0
    4.0169    7.6229    1.5994 N   0  3  0  0  0  0  0  0  0  0  0  0
    2.8255    6.5443   -0.5539 H   0  0  0  0  0  0  0  0  0  0  0  0
    4.2690    6.5653   -1.6252 H   0  0  0  0  0  0  0  0  0  0  0  0
    3.5899    8.1028   -1.0015 H   0  0  0  0  0  0  0  0  0  0  0  0
    5.6431    7.4759    0.2516 H   0  0  0  0  0  0  0  0  0  0  0  0
    4.8842    5.9088    0.7090 H   0  0  0  0  0  0  0  0  0  0  0  0
    2.6345    7.1478    3.1311 H   0  0  0  0  0  0  0  0  0  0  0  0
    3.9054    5.9079    2.8356 H   0  0  0  0  0  0  0  0  0  0  0  0
    2.2443    4.8355    1.6548 H   0  0  0  0  0  0  0  0  0  0  0  0
    2.6550    6.0173    0.3640 H   0  0  0  0  0  0  0  0  0  0  0  0
    1.2827    6.3377    1.4725 H   0  0  0  0  0  0  0  0  0  0  0  0
    4.5054    8.8810    3.2304 H   0  0  0  0  0  0  0  0  0  0  0  0
    5.6084    7.4800    2.9881 H   0  0  0  0  0  0  0  0  0  0  0  0
    6.6884    8.4974    1.1316 H   0  0  0  0  0  0  0  0  0  0  0  0
    5.3493    9.6673    0.8761 H   0  0  0  0  0  0  0  0  0  0  0  0
    6.0765   10.7792    3.0407 H   0  0  0  0  0  0  0  0  0  0  0  0
    8.5051   12.6486    2.0925 H   0  0  0  0  0  0  0  0  0  0  0  0
   10.2592   12.8095    4.5176 H   0  0  0  0  0  0  0  0  0  0  0  0
    8.7910   13.8445    4.5144 H   0  0  0  0  0  0  0  0  0  0  0  0
   10.6033   15.1841    3.6549 H   0  0  0  0  0  0  0  0  0  0  0  0
   12.1160   14.1586    0.3843 H   0  0  0  0  0  0  0  0  0  0  0  0
   10.7098   12.9927    0.4660 H   0  0  0  0  0  0  0  0  0  0  0  0
    9.5771   15.0284   -0.0801 H   0  0  0  0  0  0  0  0  0  0  0  0
   10.7310   16.0348    0.9222 H   0  0  0  0  0  0  0  0  0  0  0  0
   13.3603   11.0030    1.0921 H   0  0  0  0  0  0  0  0  0  0  0  0
   12.9511    8.5566    1.0023 H   0  0  0  0  0  0  0  0  0  0  0  0
   10.9276    8.7596    4.7952 H   0  0  0  0  0  0  0  0  0  0  0  0
   11.3544   11.2029    4.8897 H   0  0  0  0  0  0  0  0  0  0  0  0
    3.3825    8.3487    1.2364 H   0  0  0  0  0  0  0  0  0  0  0  0
  1  2  1  0  0  0  0
  1 30  1  0  0  0  0
  1 31  1  0  0  0  0
  1 32  1  0  0  0  0
  2 29  1  0  0  0  0
  2 33  1  0  0  0  0
  2 34  1  0  0  0  0
  3  4  1  0  0  0  0
  3 29  1  0  0  0  0
  3 35  1  0  0  0  0
  3 36  1  0  0  0  0
  4 37  1  0  0  0  0
  4 38  1  0  0  0  0
  4 39  1  0  0  0  0
  5  6  1  0  0  0  0
  5 29  1  0  0  0  0
  5 40  1  0  0  0  0
  5 41  1  0  0  0  0
  6  7  1  0  0  0  0
  6 42  1  0  0  0  0
  6 43  1  0  0  0  0
  7  8  1  0  0  0  0
  7 44  1  0  0  0  0
  8  9  2  0  0  0  0
  8 10  1  0  0  0  0
 10 11  2  0  0  0  0
 10 12  1  0  0  0  0
 12 13  1  0  0  0  0
 12 45  1  0  0  0  0
 13 14  1  0  0  0  0
 13 46  1  0  0  0  0
 13 47  1  0  0  0  0
 14 18  1  0  0  0  0
 14 15  1  0  0  0  0
 14 48  1  0  0  0  0
 15 16  1  0  0  0  0
 15 19  1  0  0  0  0
 16 17  1  0  0  0  0
 16 49  1  0  0  0  0
 16 50  1  0  0  0  0
 17 18  1  0  0  0  0
 17 51  1  0  0  0  0
 17 52  1  0  0  0  0
 19 20  2  0  0  0  0
 19 21  2  0  0  0  0
 19 22  1  0  0  0  0
 22 27  2  0  0  0  0
 22 23  1  0  0  0  0
 23 24  2  0  0  0  0
 23 53  1  0  0  0  0
 24 25  1  0  0  0  0
 24 54  1  0  0  0  0
 25 26  2  0  0  0  0
 25 28  1  0  0  0  0
 26 27  1  0  0  0  0
 26 55  1  0  0  0  0
 27 56  1  0  0  0  0
 29 57  1  0  0  0  0
M  END
> <Name>
ZINC09600195

> <reference>
BDB4946

> <quality>
0.781

> <status>
decoy

> <atoms in reference ligand area>
14

> <score>
-31.5547

$$$$
ZINC19672148
      BALL 1.4.0 (Jan  4 2012, 23:22:29)

 40 41  0999  0  0  0  0  0  0999 V2000
    3.6316    6.9678   -3.0973 C   0  0  0  0  0  0  0  0  0  0  0  0
    4.7828    6.6614   -3.8864 O   0  0  0  0  0  0  0  0  0  0  0  0
    5.9936    7.2428   -3.3983 C   0  0  0  0  0  0  0  0  0  0  0  0
    6.2686    6.7342   -1.9818 C   0  0  0  0  0  0  0  0  0  0  0  0
    6.8010    7.8824   -1.1221 C   0  0  0  0  0  0  0  0  0  0  0  0
    5.9215    9.0457   -1.2620 N   0  0  0  0  0  0  0  0  0  0  0  0
    5.6557   10.0431    0.0328 S   0  0  0  0  0  0  0  0  0  0  0  0
    4.4718   10.7747   -0.2543 O   0  0  0  0  0  0  0  0  0  0  0  0
    5.7918    9.2411    1.1980 O   0  0  0  0  0  0  0  0  0  0  0  0
    6.9736   11.2121    0.0694 C   0  0  0  0  0  0  0  0  0  0  0  0
    7.7983   11.2917    1.1763 C   0  0  0  0  0  0  0  0  0  0  0  0
    8.8313   12.2070    1.1984 C   0  0  0  0  0  0  0  0  0  0  0  0
    9.0391   13.0551    0.1209 C   0  0  0  0  0  0  0  0  0  0  0  0
    8.2156   12.9781   -0.9816 C   0  0  0  0  0  0  0  0  0  0  0  0
    7.1812   12.0538   -1.0044 C   0  0  0  0  0  0  0  0  0  0  0  0
    8.4048   13.8720   -2.1790 C   0  0  0  0  0  0  0  0  0  0  0  0
    9.2399   15.0259   -1.8313 N   0  3  0  0  0  0  0  0  0  0  0  0
   10.4927   14.5774   -1.2028 C   0  0  0  0  0  0  0  0  0  0  0  0
   10.1716   14.0468    0.1948 C   0  0  0  0  0  0  0  0  0  0  0  0
    3.0041    6.0650   -3.0617 H   0  0  0  0  0  0  0  0  0  0  0  0
    3.0732    7.7593   -3.6187 H   0  0  0  0  0  0  0  0  0  0  0  0
    3.9108    7.2899   -2.0832 H   0  0  0  0  0  0  0  0  0  0  0  0
    6.8279    6.9603   -4.0572 H   0  0  0  0  0  0  0  0  0  0  0  0
    5.8947    8.3383   -3.3810 H   0  0  0  0  0  0  0  0  0  0  0  0
    5.3362    6.3498   -1.5426 H   0  0  0  0  0  0  0  0  0  0  0  0
    7.0160    5.9281   -2.0192 H   0  0  0  0  0  0  0  0  0  0  0  0
    7.8159    8.1491   -1.4522 H   0  0  0  0  0  0  0  0  0  0  0  0
    6.8288    7.5691   -0.0680 H   0  0  0  0  0  0  0  0  0  0  0  0
    5.4686    9.2432   -2.1658 H   0  0  0  0  0  0  0  0  0  0  0  0
    7.6317   10.6274    2.0371 H   0  0  0  0  0  0  0  0  0  0  0  0
    9.4931   12.2641    2.0751 H   0  0  0  0  0  0  0  0  0  0  0  0
    6.5228   11.9914   -1.8834 H   0  0  0  0  0  0  0  0  0  0  0  0
    7.4239   14.2259   -2.5293 H   0  0  0  0  0  0  0  0  0  0  0  0
    8.8896   13.3026   -2.9857 H   0  0  0  0  0  0  0  0  0  0  0  0
    9.4586   15.5590   -2.6851 H   0  0  0  0  0  0  0  0  0  0  0  0
    8.7284   15.6337   -1.1756 H   0  0  0  0  0  0  0  0  0  0  0  0
   11.1911   15.4235   -1.1239 H   0  0  0  0  0  0  0  0  0  0  0  0
   10.9425   13.7756   -1.8068 H   0  0  0  0  0  0  0  0  0  0  0  0
   11.0628   13.5551    0.6118 H   0  0  0  0  0  0  0  0  0  0  0  0
    9.8818   14.8849    0.8456 H   0  0  0  0  0  0  0  0  0  0  0  0
  1  2  1  0  0  0  0
  1 20  1  0  0  0  0
  1 21  1  0  0  0  0
  1 22  1  0  0  0  0
  2  3  1  0  0  0  0
  3  4  1  0  0  0  0
  3 23  1  0  0  0  0
  3 24  1  0  0  0  0
  4  5  1  0  0  0  0
  4 25  1  0  0  0  0
  4 26  1  0  0  0  0
  5  6  1  0  0  0  0
  5 27  1  0  0  0  0
  5 28  1  0  0  0  0
  6  7  1  0  0  0  0
  6 29  1  0  0  0  0
  7  8  2  0  0  0  0
  7  9  2  0  0  0  0
  7 10  1  0  0  0  0
 10 15  2  0  0  0  0
 10 11  1  0  0  0  0
 11 12  2  0  0  0  0
 11 30  1  0  0  0  0
 12 13  1  0  0  0  0
 12 31  1  0  0  0  0
 13 19  1  0  0  0  0
 13 14  2  0  0  0  0
 14 15  1  0  0  0  0
 14 16  1  0  0  0  0
 15 32  1  0  0  0  0
 16 17  1  0  0  0  0
 16 33  1  0  0  0  0
 16 34  1  0  0  0  0
 17 18  1  0  0  0  0
 17 35  1  0  0  0  0
 17 36  1  0  0  0  0
 18 19  1  0  0  0  0
 18 37  1  0  0  0  0
 18 38  1  0  0  0  0
 19 39  1  0  0  0  0
 19 40  1  0  0  0  0
M  END
> <Name>
ZINC19672148

> <reference>
BDB5204

> <quality>
0.751

> <status>
decoy

> <atoms in reference ligand area>
16

> <score>
-31.452

$$$$
ZINC25317503
      BALL 1.4.0 (Jan  4 2012, 23:22:29)

 56 57  0999  0  0  0  0  0  0999 V2000
   12.5727   13.5802    1.3553 C   0  0  0  0  0  0  0  0  0  0  0  0
   12.1298   13.0436    2.7180 C   0  0  0  0  0  0  0  0  0  0  0  0
   13.3460   12.9227    3.6383 C   0  0  0  0  0  0  0  0  0  0  0  0
   11.1138   14.0043    3.3389 C   0  0  0  0  0  0  0  0  0  0  0  0
    9.7743   13.6909    2.8353 N   0  0  0  0  0  0  0  0  0  0  0  0
    9.0189   14.4401    1.9760 C   0  0  0  0  0  0  0  0  0  0  0  0
    7.8959   13.8052    1.7924 N   0  0  0  0  0  0  0  0  0  0  0  0
    7.8919   12.7115    2.4674 N   0  0  0  0  0  0  0  0  0  0  0  0
    9.0221   12.5885    3.1238 C   0  0  0  0  0  0  0  0  0  0  0  0
    9.4789   11.2565    4.1829 S   0  0  0  0  0  0  0  0  0  0  0  0
    8.1416   10.0924    3.8187 C   0  0  0  0  0  0  0  0  0  0  0  0
    8.5477    9.2038    2.6712 C   0  0  0  0  0  0  0  0  0  0  0  0
    9.6343    9.3439    2.1509 O   0  0  0  0  0  0  0  0  0  0  0  0
    7.7034    8.2537    2.2232 N   0  0  0  0  0  0  0  0  0  0  0  0
    6.2656    8.3316    2.5174 C   0  0  0  0  0  0  0  0  0  0  0  0
    5.4944    8.2773    1.1877 C   0  0  0  0  0  0  0  0  0  0  0  0
    5.9960    7.1415    0.4015 N   0  0  0  0  0  0  0  0  0  0  0  0
    7.4345    7.0606    0.1121 C   0  0  0  0  0  0  0  0  0  0  0  0
    8.2050    7.1178    1.4370 C   0  0  0  0  0  0  0  0  0  0  0  0
    4.9585    5.9740   -0.1489 S   0  0  0  0  0  0  0  0  0  0  0  0
    3.7003    6.6262   -0.2519 O   0  0  0  0  0  0  0  0  0  0  0  0
    5.5937    5.4390   -1.3020 O   0  0  0  0  0  0  0  0  0  0  0  0
    4.9121    4.7314    1.1719 C   0  0  0  0  0  0  0  0  0  0  0  0
    9.4101   15.7589    1.3606 C   0  0  0  0  0  0  0  0  0  0  0  0
    9.4344   16.8397    2.4431 C   0  0  0  0  0  0  0  0  0  0  0  0
    9.8256   18.1585    1.8276 C   0  0  0  0  0  0  0  0  0  0  0  0
    9.7298   19.1810    2.4728 O   0  0  0  0  0  0  0  0  0  0  0  0
   10.2818   18.2016    0.5601 N   0  0  0  0  0  0  0  0  0  0  0  0
   12.8694   14.6349    1.4542 H   0  0  0  0  0  0  0  0  0  0  0  0
   11.7407   13.4994    0.6403 H   0  0  0  0  0  0  0  0  0  0  0  0
   13.4276   12.9927    0.9894 H   0  0  0  0  0  0  0  0  0  0  0  0
   11.6673   12.0539    2.5896 H   0  0  0  0  0  0  0  0  0  0  0  0
   13.8092   13.9120    3.7676 H   0  0  0  0  0  0  0  0  0  0  0  0
   14.0770   12.2317    3.1930 H   0  0  0  0  0  0  0  0  0  0  0  0
   13.0283   12.5369    4.6182 H   0  0  0  0  0  0  0  0  0  0  0  0
   11.3734   15.0387    3.0692 H   0  0  0  0  0  0  0  0  0  0  0  0
   11.1281   13.8962    4.4334 H   0  0  0  0  0  0  0  0  0  0  0  0
    7.2331   10.6496    3.5462 H   0  0  0  0  0  0  0  0  0  0  0  0
    7.9407    9.4750    4.7067 H   0  0  0  0  0  0  0  0  0  0  0  0
    6.0436    9.2772    3.0337 H   0  0  0  0  0  0  0  0  0  0  0  0
    5.9709    7.4808    3.1494 H   0  0  0  0  0  0  0  0  0  0  0  0
    4.4215    8.1411    1.3889 H   0  0  0  0  0  0  0  0  0  0  0  0
    5.6544    9.2113    0.6291 H   0  0  0  0  0  0  0  0  0  0  0  0
    7.6550    6.1131   -0.4012 H   0  0  0  0  0  0  0  0  0  0  0  0
    7.7323    7.9076   -0.5235 H   0  0  0  0  0  0  0  0  0  0  0  0
    9.2773    7.2547    1.2335 H   0  0  0  0  0  0  0  0  0  0  0  0
    8.0471    6.1831    1.9950 H   0  0  0  0  0  0  0  0  0  0  0  0
    4.5165    5.1505    2.1088 H   0  0  0  0  0  0  0  0  0  0  0  0
    5.9018    4.2819    1.3403 H   0  0  0  0  0  0  0  0  0  0  0  0
    4.2316    3.9282    0.8531 H   0  0  0  0  0  0  0  0  0  0  0  0
   10.4091   15.6708    0.9087 H   0  0  0  0  0  0  0  0  0  0  0  0
    8.6799   16.0339    0.5852 H   0  0  0  0  0  0  0  0  0  0  0  0
   10.1650   16.5669    3.2189 H   0  0  0  0  0  0  0  0  0  0  0  0
    8.4355   16.9286    2.8952 H   0  0  0  0  0  0  0  0  0  0  0  0
   10.5094   17.3278    0.0646 H   0  0  0  0  0  0  0  0  0  0  0  0
   10.4029   19.1085    0.0869 H   0  0  0  0  0  0  0  0  0  0  0  0
  1  2  1  0  0  0  0
  1 29  1  0  0  0  0
  1 30  1  0  0  0  0
  1 31  1  0  0  0  0
  2  3  1  0  0  0  0
  2  4  1  0  0  0  0
  2 32  1  0  0  0  0
  3 33  1  0  0  0  0
  3 34  1  0  0  0  0
  3 35  1  0  0  0  0
  4  5  1  0  0  0  0
  4 36  1  0  0  0  0
  4 37  1  0  0  0  0
  5  9  1  0  0  0  0
  5  6  1  0  0  0  0
  6  7  2  0  0  0  0
  6 24  1  0  0  0  0
  7  8  1  0  0  0  0
  8  9  2  0  0  0  0
  9 10  1  0  0  0  0
 10 11  1  0  0  0  0
 11 12  1  0  0  0  0
 11 38  1  0  0  0  0
 11 39  1  0  0  0  0
 12 13  2  0  0  0  0
 12 14  1  0  0  0  0
 14 19  1  0  0  0  0
 14 15  1  0  0  0  0
 15 16  1  0  0  0  0
 15 40  1  0  0  0  0
 15 41  1  0  0  0  0
 16 17  1  0  0  0  0
 16 42  1  0  0  0  0
 16 43  1  0  0  0  0
 17 18  1  0  0  0  0
 17 20  1  0  0  0  0
 18 19  1  0  0  0  0
 18 44  1  0  0  0  0
 18 45  1  0  0  0  0
 19 46  1  0  0  0  0
 19 47  1  0  0  0  0
 20 21  2  0  0  0  0
 20 22  2  0  0  0  0
 20 23  1  0  0  0  0
 23 48  1  0  0  0  0
 23 49  1  0  0  0  0
 23 50  1  0  0  0  0
 24 25  1  0  0  0  0
 24 51  1  0  0  0  0
 24 52  1  0  0  0  0
 25 26  1  0  0  0  0
 25 53  1  0  0  0  0
 25 54  1  0  0  0  0
 26 27  2  0  0  0  0
 26 28  1  0  0  0  0
 28 55  1  0  0  0  0
 28 56  1  0  0  0  0
M  END
> <Name>
ZINC25317503

> <reference>
BDB4946

> <quality>
0.779

> <status>
decoy

> <atoms in reference ligand area>
12

> <score>
-31.1772

$$$$
ZINC02861235
      BALL 1.4.0 (Jan  4 2012, 23:22:29)

 53 54  0999  0  0  0  0  0  0999 V2000
   -1.0276    5.8168    5.0116 C   0  0  0  0  0  0  0  0  0  0  0  0
   -0.1346    6.3733    6.1224 C   0  0  0  0  0  0  0  0  0  0  0  0
    0.8125    5.2764    6.6130 C   0  0  0  0  0  0  0  0  0  0  0  0
    1.7785    4.9925    5.5991 O   0  0  0  0  0  0  0  0  0  0  0  0
    2.8318    5.8449    5.4945 C   0  0  0  0  0  0  0  0  0  0  0  0
    2.6369    7.2111    5.6368 C   0  0  0  0  0  0  0  0  0  0  0  0
    3.7091    8.0754    5.5296 C   0  0  0  0  0  0  0  0  0  0  0  0
    4.9757    7.5801    5.2803 C   0  0  0  0  0  0  0  0  0  0  0  0
    5.1717    6.2195    5.1324 C   0  0  0  0  0  0  0  0  0  0  0  0
    4.1037    5.3504    5.2448 C   0  0  0  0  0  0  0  0  0  0  0  0
    6.1435    8.5254    5.1634 C   0  0  0  0  0  0  0  0  0  0  0  0
    6.5402    8.6665    3.6924 C   0  0  0  0  0  0  0  0  0  0  0  0
    7.0124   10.0973    3.4265 C   0  0  0  0  0  0  0  0  0  0  0  0
    8.4215   11.1867    1.7863 C   0  0  0  0  0  0  0  0  0  0  0  0
    8.0611   10.7151    0.3762 C   0  0  0  0  0  0  0  0  0  0  0  0
    6.5710   10.5114    0.2803 C   0  0  0  0  0  0  0  0  0  0  0  0
    6.1018    9.9175   -0.6616 O   0  0  0  0  0  0  0  0  0  0  0  0
    9.8378   11.7017    1.7970 C   0  0  0  0  0  0  0  0  0  0  0  0
   10.8942   10.8221    1.6522 C   0  0  0  0  0  0  0  0  0  0  0  0
   12.1933   11.2947    1.6617 C   0  0  0  0  0  0  0  0  0  0  0  0
   12.4358   12.6469    1.8154 C   0  0  0  0  0  0  0  0  0  0  0  0
   11.3793   13.5265    1.9601 C   0  0  0  0  0  0  0  0  0  0  0  0
   10.0802   13.0540    1.9506 C   0  0  0  0  0  0  0  0  0  0  0  0
    7.2494    8.0106    5.9076 O   0  0  0  0  0  0  0  0  0  0  0  0
    8.3104   10.0558    2.7268 N   0  3  0  0  0  0  0  0  0  0  0  0
    5.7650   10.9897    1.2412 O   0  5  0  0  0  0  0  0  0  0  0  0
   -0.5415    5.9713    4.0369 H   0  0  0  0  0  0  0  0  0  0  0  0
   -1.9968    6.3370    5.0237 H   0  0  0  0  0  0  0  0  0  0  0  0
   -1.1881    4.7408    5.1736 H   0  0  0  0  0  0  0  0  0  0  0  0
    0.4534    7.2171    5.7322 H   0  0  0  0  0  0  0  0  0  0  0  0
   -0.7600    6.7180    6.9591 H   0  0  0  0  0  0  0  0  0  0  0  0
    1.3269    5.6164    7.5239 H   0  0  0  0  0  0  0  0  0  0  0  0
    0.2367    4.3658    6.8353 H   0  0  0  0  0  0  0  0  0  0  0  0
    1.6294    7.6056    5.8349 H   0  0  0  0  0  0  0  0  0  0  0  0
    3.5551    9.1587    5.6428 H   0  0  0  0  0  0  0  0  0  0  0  0
    6.1787    5.8287    4.9250 H   0  0  0  0  0  0  0  0  0  0  0  0
    4.2618    4.2672    5.1365 H   0  0  0  0  0  0  0  0  0  0  0  0
    5.8594    9.5103    5.5627 H   0  0  0  0  0  0  0  0  0  0  0  0
    7.3546    7.9636    3.4631 H   0  0  0  0  0  0  0  0  0  0  0  0
    5.6724    8.4430    3.0544 H   0  0  0  0  0  0  0  0  0  0  0  0
    7.1274   10.6309    4.3815 H   0  0  0  0  0  0  0  0  0  0  0  0
    6.2737   10.6175    2.7991 H   0  0  0  0  0  0  0  0  0  0  0  0
    7.7332   11.9893    2.0895 H   0  0  0  0  0  0  0  0  0  0  0  0
    8.3747   11.4739   -0.3557 H   0  0  0  0  0  0  0  0  0  0  0  0
    8.5746    9.7659    0.1633 H   0  0  0  0  0  0  0  0  0  0  0  0
   10.7012    9.7461    1.5296 H   0  0  0  0  0  0  0  0  0  0  0  0
   13.0340   10.5947    1.5469 H   0  0  0  0  0  0  0  0  0  0  0  0
   13.4695   13.0230    1.8225 H   0  0  0  0  0  0  0  0  0  0  0  0
   11.5723   14.6025    2.0829 H   0  0  0  0  0  0  0  0  0  0  0  0
    9.2395   13.7540    2.0653 H   0  0  0  0  0  0  0  0  0  0  0  0
    6.9936    7.9187    6.8595 H   0  0  0  0  0  0  0  0  0  0  0  0
    9.0725   10.1107    3.4174 H   0  0  0  0  0  0  0  0  0  0  0  0
    8.3905    9.1706    2.2062 H   0  0  0  0  0  0  0  0  0  0  0  0
  1  2  1  0  0  0  0
  1 27  1  0  0  0  0
  1 28  1  0  0  0  0
  1 29  1  0  0  0  0
  2  3  1  0  0  0  0
  2 30  1  0  0  0  0
  2 31  1  0  0  0  0
  3  4  1  0  0  0  0
  3 32  1  0  0  0  0
  3 33  1  0  0  0  0
  4  5  1  0  0  0  0
  5 10  2  0  0  0  0
  5  6  1  0  0  0  0
  6  7  2  0  0  0  0
  6 34  1  0  0  0  0
  7  8  1  0  0  0  0
  7 35  1  0  0  0  0
  8  9  2  0  0  0  0
  8 11  1  0  0  0  0
  9 10  1  0  0  0  0
  9 36  1  0  0  0  0
 10 37  1  0  0  0  0
 11 12  1  0  0  0  0
 11 24  1  0  0  0  0
 11 38  1  0  0  0  0
 12 13  1  0  0  0  0
 12 39  1  0  0  0  0
 12 40  1  0  0  0  0
 13 25  1  0  0  0  0
 13 41  1  0  0  0  0
 13 42  1  0  0  0  0
 14 15  1  0  0  0  0
 14 18  1  0  0  0  0
 14 25  1  0  0  0  0
 14 43  1  0  0  0  0
 15 16  1  0  0  0  0
 15 44  1  0  0  0  0
 15 45  1  0  0  0  0
 16 17  2  0  0  0  0
 16 26  1  0  0  0  0
 18 23  2  0  0  0  0
 18 19  1  0  0  0  0
 19 20  2  0  0  0  0
 19 46  1  0  0  0  0
 20 21  1  0  0  0  0
 20 47  1  0  0  0  0
 21 22  2  0  0  0  0
 21 48  1  0  0  0  0
 22 23  1  0  0  0  0
 22 49  1  0  0  0  0
 23 50  1  0  0  0  0
 24 51  1  0  0  0  0
 25 52  1  0  0  0  0
 25 53  1  0  0  0  0
M  END
> <Name>
ZINC02861235

> <reference>
BDB4997

> <quality>
0.669

> <status>
decoy

> <atoms in reference ligand area>
15

> <score>
-30.9998

$$$$
ZINC17379574
      BALL 1.4.0 (Jan  4 2012, 23:22:29)

 44 44  0999  0  0  0  0  0  0999 V2000
   14.9888    8.1037    8.7910 C   0  0  0  0  0  0  0  0  0  0  0  0
   15.2620    9.5405    8.7071 N   0  0  0  0  0  0  0  0  0  0  0  0
   15.7057   10.0758    7.5525 C   0  0  0  0  0  0  0  0  0  0  0  0
   17.0834   11.0919    7.5536 S   0  0  0  0  0  0  0  0  0  0  0  0
   15.0644    9.8111    6.3969 N   0  0  0  0  0  0  0  0  0  0  0  0
   15.5253   10.3675    5.1967 N   0  0  0  0  0  0  0  0  0  0  0  0
   15.1064    9.9102    4.0768 C   0  0  0  0  0  0  0  0  0  0  0  0
   14.0160    8.8703    4.0478 C   0  0  0  0  0  0  0  0  0  0  0  0
   12.7196    9.5272    3.8631 N   0  0  0  0  0  0  0  0  0  0  0  0
   11.5917    8.9613    4.3921 C   0  0  0  0  0  0  0  0  0  0  0  0
   10.3968    9.5669    4.2218 C   0  0  0  0  0  0  0  0  0  0  0  0
   10.3364   10.7780    3.4912 C   0  0  0  0  0  0  0  0  0  0  0  0
    9.2696   11.3399    3.3201 O   0  0  0  0  0  0  0  0  0  0  0  0
   11.4716   11.3063    2.9908 N   0  0  0  0  0  0  0  0  0  0  0  0
   12.6494   10.6815    3.1755 C   0  0  0  0  0  0  0  0  0  0  0  0
   13.6643   11.1673    2.7148 O   0  0  0  0  0  0  0  0  0  0  0  0
   11.4221   12.5621    2.2383 C   0  0  0  0  0  0  0  0  0  0  0  0
   11.2072   12.2639    0.7768 C   0  0  0  0  0  0  0  0  0  0  0  0
   10.2264   12.7989    0.1519 N   0  0  0  0  0  0  0  0  0  0  0  0
   10.0266   12.5216   -1.2068 N   0  0  0  0  0  0  0  0  0  0  0  0
    9.8467   13.5313   -2.0813 C   0  0  0  0  0  0  0  0  0  0  0  0
    8.3138   14.2806   -2.2202 S   0  0  0  0  0  0  0  0  0  0  0  0
   10.8738   13.9510   -2.8464 N   0  0  0  0  0  0  0  0  0  0  0  0
   12.2520   13.6479   -2.4528 C   0  0  0  0  0  0  0  0  0  0  0  0
    9.1659    8.9691    4.7863 N   0  0  0  0  0  0  0  0  0  0  0  0
    8.5126    8.1821    4.1250 O   0  0  0  0  0  0  0  0  0  0  0  0
    8.8092    9.2605    5.9138 O   0  0  0  0  0  0  0  0  0  0  0  0
   13.9397    8.0297    9.1133 H   0  0  0  0  0  0  0  0  0  0  0  0
   15.6117    7.7415    9.6221 H   0  0  0  0  0  0  0  0  0  0  0  0
   15.1796    7.5584    7.8549 H   0  0  0  0  0  0  0  0  0  0  0  0
   15.1151   10.1417    9.5305 H   0  0  0  0  0  0  0  0  0  0  0  0
   14.2353    9.1998    6.3962 H   0  0  0  0  0  0  0  0  0  0  0  0
   15.5425   10.2762    3.1355 H   0  0  0  0  0  0  0  0  0  0  0  0
   14.1953    8.1738    3.2156 H   0  0  0  0  0  0  0  0  0  0  0  0
   14.0126    8.3144    4.9970 H   0  0  0  0  0  0  0  0  0  0  0  0
   11.6579    8.0176    4.9533 H   0  0  0  0  0  0  0  0  0  0  0  0
   12.3704   13.1047    2.3654 H   0  0  0  0  0  0  0  0  0  0  0  0
   10.5927   13.1810    2.6115 H   0  0  0  0  0  0  0  0  0  0  0  0
   11.8931   11.5865    0.2471 H   0  0  0  0  0  0  0  0  0  0  0  0
   10.0171   11.5461   -1.5374 H   0  0  0  0  0  0  0  0  0  0  0  0
   10.6898   14.4849   -3.7078 H   0  0  0  0  0  0  0  0  0  0  0  0
   12.4597   14.3127   -1.6013 H   0  0  0  0  0  0  0  0  0  0  0  0
   12.8724   13.9914   -3.2937 H   0  0  0  0  0  0  0  0  0  0  0  0
   12.4235   12.5889   -2.2099 H   0  0  0  0  0  0  0  0  0  0  0  0
  1  2  1  0  0  0  0
  1 28  1  0  0  0  0
  1 29  1  0  0  0  0
  1 30  1  0  0  0  0
  2  3  1  0  0  0  0
  2 31  1  0  0  0  0
  3  4  2  0  0  0  0
  3  5  1  0  0  0  0
  5  6  1  0  0  0  0
  5 32  1  0  0  0  0
  6  7  2  0  0  0  0
  7  8  1  0  0  0  0
  7 33  1  0  0  0  0
  8  9  1  0  0  0  0
  8 34  1  0  0  0  0
  8 35  1  0  0  0  0
  9 15  1  0  0  0  0
  9 10  1  0  0  0  0
 10 11  2  0  0  0  0
 10 36  1  0  0  0  0
 11 12  1  0  0  0  0
 11 25  1  0  0  0  0
 12 13  2  0  0  0  0
 12 14  1  0  0  0  0
 14 15  1  0  0  0  0
 14 17  1  0  0  0  0
 15 16  2  0  0  0  0
 17 18  1  0  0  0  0
 17 37  1  0  0  0  0
 17 38  1  0  0  0  0
 18 19  2  0  0  0  0
 18 39  1  0  0  0  0
 19 20  1  0  0  0  0
 20 21  1  0  0  0  0
 20 40  1  0  0  0  0
 21 22  2  0  0  0  0
 21 23  1  0  0  0  0
 23 24  1  0  0  0  0
 23 41  1  0  0  0  0
 24 42  1  0  0  0  0
 24 43  1  0  0  0  0
 24 44  1  0  0  0  0
 25 26  2  0  0  0  0
 25 27  2  0  0  0  0
M  END
> <Name>
ZINC17379574

> <reference>
BDB4948

> <quality>
0.731

> <status>
decoy

> <atoms in reference ligand area>
14

> <score>
-30.967

$$$$
ZINC02275272
      BALL 1.4.0 (Jan  4 2012, 23:22:29)

 39 39  0999  0  0  0  0  0  0999 V2000
   11.3698   13.6263    0.0347 C   0  0  0  0  0  0  0  0  0  0  0  0
   10.8572   12.7931    1.2112 C   0  0  0  0  0  0  0  0  0  0  0  0
   12.0260   12.3032    2.0267 C   0  0  0  0  0  0  0  0  0  0  0  0
   12.5313   11.0983    1.8034 C   0  0  0  0  0  0  0  0  0  0  0  0
   13.7754   10.4529    2.8713 S   0  0  0  0  0  0  0  0  0  0  0  0
   14.2602    9.0303    1.9516 C   0  0  0  0  0  0  0  0  0  0  0  0
   15.4980    8.4200    2.1853 C   0  0  0  0  0  0  0  0  0  0  0  0
   15.8313    7.2971    1.4284 C   0  0  0  0  0  0  0  0  0  0  0  0
   14.9674    6.8521    0.5206 N   0  0  0  0  0  0  0  0  0  0  0  0
   13.8112    7.4553    0.3309 C   0  0  0  0  0  0  0  0  0  0  0  0
   13.4553    8.5184    1.0227 N   0  0  0  0  0  0  0  0  0  0  0  0
   17.0181    6.6683    1.6156 O   0  0  0  0  0  0  0  0  0  0  0  0
   18.1934    7.3606    1.1897 C   0  0  0  0  0  0  0  0  0  0  0  0
   16.3776    8.9234    3.1516 N   0  0  0  0  0  0  0  0  0  0  0  0
   15.9144    9.2716    4.3684 C   0  0  0  0  0  0  0  0  0  0  0  0
   14.7449    9.0985    4.6451 O   0  0  0  0  0  0  0  0  0  0  0  0
   16.8392    9.8698    5.3760 C   0  0  0  0  0  0  0  0  0  0  0  0
   17.9690    9.4419    5.4923 O   0  0  0  0  0  0  0  0  0  0  0  0
   16.4196   10.8852    6.1567 N   0  0  0  0  0  0  0  0  0  0  0  0
   15.6513   10.6286    7.2566 N   0  0  0  0  0  0  0  0  0  0  0  0
   12.5778   13.1202    3.0197 N   0  0  0  0  0  0  0  0  0  0  0  0
   11.7861   13.6093    4.0198 N   0  0  0  0  0  0  0  0  0  0  0  0
   10.9628   14.6461    0.1014 H   0  0  0  0  0  0  0  0  0  0  0  0
   11.0480   13.1648   -0.9105 H   0  0  0  0  0  0  0  0  0  0  0  0
   12.4686   13.6685    0.0655 H   0  0  0  0  0  0  0  0  0  0  0  0
   10.2891   11.9311    0.8315 H   0  0  0  0  0  0  0  0  0  0  0  0
   10.2043   13.4131    1.8429 H   0  0  0  0  0  0  0  0  0  0  0  0
   12.1740   10.5013    0.9514 H   0  0  0  0  0  0  0  0  0  0  0  0
   13.1217    7.0587   -0.4289 H   0  0  0  0  0  0  0  0  0  0  0  0
   17.8493    8.2040    0.5730 H   0  0  0  0  0  0  0  0  0  0  0  0
   18.7417    6.6662    0.5360 H   0  0  0  0  0  0  0  0  0  0  0  0
   18.8149    7.7010    2.0310 H   0  0  0  0  0  0  0  0  0  0  0  0
   17.3786    9.0276    2.9324 H   0  0  0  0  0  0  0  0  0  0  0  0
   16.6783   11.8546    5.9239 H   0  0  0  0  0  0  0  0  0  0  0  0
   15.9461    9.9117    7.9348 H   0  0  0  0  0  0  0  0  0  0  0  0
   14.7773   11.1521    7.4078 H   0  0  0  0  0  0  0  0  0  0  0  0
   13.5809   13.3529    2.9966 H   0  0  0  0  0  0  0  0  0  0  0  0
   12.0317   14.6072    4.0880 H   0  0  0  0  0  0  0  0  0  0  0  0
   12.1311   13.1544    4.8771 H   0  0  0  0  0  0  0  0  0  0  0  0
  1  2  1  0  0  0  0
  1 23  1  0  0  0  0
  1 24  1  0  0  0  0
  1 25  1  0  0  0  0
  2  3  1  0  0  0  0
  2 26  1  0  0  0  0
  2 27  1  0  0  0  0
  3  4  2  0  0  0  0
  3 21  1  0  0  0  0
  4  5  1  0  0  0  0
  4 28  1  0  0  0  0
  5  6  1  0  0  0  0
  6 11  2  0  0  0  0
  6  7  1  0  0  0  0
  7  8  2  0  0  0  0
  7 14  1  0  0  0  0
  8  9  1  0  0  0  0
  8 12  1  0  0  0  0
  9 10  2  0  0  0  0
 10 11  1  0  0  0  0
 10 29  1  0  0  0  0
 12 13  1  0  0  0  0
 13 30  1  0  0  0  0
 13 31  1  0  0  0  0
 13 32  1  0  0  0  0
 14 15  1  0  0  0  0
 14 33  1  0  0  0  0
 15 16  2  0  0  0  0
 15 17  1  0  0  0  0
 17 18  2  0  0  0  0
 17 19  1  0  0  0  0
 19 20  1  0  0  0  0
 19 34  1  0  0  0  0
 20 35  1  0  0  0  0
 20 36  1  0  0  0  0
 21 22  1  0  0  0  0
 21 37  1  0  0  0  0
 22 38  1  0  0  0  0
 22 39  1  0  0  0  0
M  END
> <Name>
ZINC02275272

> <reference>
BDB5024

> <quality>
0.655

> <status>
decoy

> <atoms in reference ligand area>
10

> <score>
-30.6215

$$$$
ZINC09951579
      BALL 1.4.0 (Jan  4 2012, 23:22:29)

 49 51  0999  0  0  0  0  0  0999 V2000
    8.1506    8.5258    5.9858 C   0  0  0  0  0  0  0  0  0  0  0  0
    8.7179    7.1989    5.8250 O   0  0  0  0  0  0  0  0  0  0  0  0
    9.2888    6.9194    4.6428 C   0  0  0  0  0  0  0  0  0  0  0  0
   10.4879    6.7922    4.5660 O   0  0  0  0  0  0  0  0  0  0  0  0
    8.4343    6.7641    3.4113 C   0  0  0  0  0  0  0  0  0  0  0  0
    7.4762    7.9233    3.3151 C   0  0  0  0  0  0  0  0  0  0  0  0
    6.3229    7.9313    4.0759 C   0  0  0  0  0  0  0  0  0  0  0  0
    5.2748    8.9483    3.8739 C   0  0  0  0  0  0  0  0  0  0  0  0
    5.3981    9.8130    3.0269 O   0  0  0  0  0  0  0  0  0  0  0  0
    4.1753    8.8939    4.6535 N   0  0  0  0  0  0  0  0  0  0  0  0
    4.0261    7.9464    5.5897 C   0  0  0  0  0  0  0  0  0  0  0  0
    2.5969    7.9561    6.5321 S   0  0  0  0  0  0  0  0  0  0  0  0
    4.9390    6.9951    5.8312 N   0  0  0  0  0  0  0  0  0  0  0  0
    6.0860    6.9229    5.1251 C   0  0  0  0  0  0  0  0  0  0  0  0
    6.9051    6.0520    5.3509 O   0  0  0  0  0  0  0  0  0  0  0  0
    7.7450    8.9545    2.4851 N   0  0  0  0  0  0  0  0  0  0  0  0
    7.1477    9.0110    1.2296 C   0  0  0  0  0  0  0  0  0  0  0  0
    6.2700    8.0121    0.8287 C   0  0  0  0  0  0  0  0  0  0  0  0
    5.6755    8.0725   -0.4155 C   0  0  0  0  0  0  0  0  0  0  0  0
    5.9553    9.1215   -1.2763 C   0  0  0  0  0  0  0  0  0  0  0  0
    6.8277   10.1190   -0.8976 C   0  0  0  0  0  0  0  0  0  0  0  0
    7.4335   10.0744    0.3601 C   0  0  0  0  0  0  0  0  0  0  0  0
    8.3687   11.1386    0.7715 C   0  0  0  0  0  0  0  0  0  0  0  0
    8.7173   11.2260    1.9330 O   0  0  0  0  0  0  0  0  0  0  0  0
    8.8368   12.0139   -0.1402 N   0  0  0  0  0  0  0  0  0  0  0  0
    9.7654   13.0707    0.2683 C   0  0  0  0  0  0  0  0  0  0  0  0
   10.6757   13.4122   -0.8831 C   0  0  0  0  0  0  0  0  0  0  0  0
   10.9280   14.6496   -1.3462 C   0  0  0  0  0  0  0  0  0  0  0  0
   11.8296   14.5070   -2.4259 C   0  0  0  0  0  0  0  0  0  0  0  0
   12.0744   13.1909   -2.5580 C   0  0  0  0  0  0  0  0  0  0  0  0
   11.3772   12.5331   -1.6172 O   0  0  0  0  0  0  0  0  0  0  0  0
    9.2520    6.7394    2.2764 F   0  0  0  0  0  0  0  0  0  0  0  0
    9.0010    9.2181    6.0728 H   0  0  0  0  0  0  0  0  0  0  0  0
    7.6185    8.5209    6.9486 H   0  0  0  0  0  0  0  0  0  0  0  0
    7.4843    8.8049    5.1562 H   0  0  0  0  0  0  0  0  0  0  0  0
    7.8668    5.8239    3.4748 H   0  0  0  0  0  0  0  0  0  0  0  0
    3.4332    9.5968    4.5263 H   0  0  0  0  0  0  0  0  0  0  0  0
    4.7604    6.3031    6.5730 H   0  0  0  0  0  0  0  0  0  0  0  0
    8.3920    9.6991    2.7816 H   0  0  0  0  0  0  0  0  0  0  0  0
    6.0485    7.1720    1.5033 H   0  0  0  0  0  0  0  0  0  0  0  0
    4.9751    7.2830   -0.7255 H   0  0  0  0  0  0  0  0  0  0  0  0
    5.4788    9.1584   -2.2670 H   0  0  0  0  0  0  0  0  0  0  0  0
    7.0466   10.9493   -1.5851 H   0  0  0  0  0  0  0  0  0  0  0  0
    8.5416   11.9397   -1.1243 H   0  0  0  0  0  0  0  0  0  0  0  0
    9.1966   13.9650    0.5630 H   0  0  0  0  0  0  0  0  0  0  0  0
   10.3677   12.7220    1.1200 H   0  0  0  0  0  0  0  0  0  0  0  0
   10.5127   15.5917   -0.9592 H   0  0  0  0  0  0  0  0  0  0  0  0
   12.2502   15.3168   -3.0401 H   0  0  0  0  0  0  0  0  0  0  0  0
   12.7336   12.7314   -3.3092 H   0  0  0  0  0  0  0  0  0  0  0  0
  1  2  1  0  0  0  0
  1 33  1  0  0  0  0
  1 34  1  0  0  0  0
  1 35  1  0  0  0  0
  2  3  1  0  0  0  0
  3  4  2  0  0  0  0
  3  5  1  0  0  0  0
  5  6  1  0  0  0  0
  5 32  1  0  0  0  0
  5 36  1  0  0  0  0
  6  7  2  0  0  0  0
  6 16  1  0  0  0  0
  7 14  1  0  0  0  0
  7  8  1  0  0  0  0
  8  9  2  0  0  0  0
  8 10  1  0  0  0  0
 10 11  1  0  0  0  0
 10 37  1  0  0  0  0
 11 12  2  0  0  0  0
 11 13  1  0  0  0  0
 13 14  1  0  0  0  0
 13 38  1  0  0  0  0
 14 15  2  0  0  0  0
 16 17  1  0  0  0  0
 16 39  1  0  0  0  0
 17 22  2  0  0  0  0
 17 18  1  0  0  0  0
 18 19  2  0  0  0  0
 18 40  1  0  0  0  0
 19 20  1  0  0  0  0
 19 41  1  0  0  0  0
 20 21  2  0  0  0  0
 20 42  1  0  0  0  0
 21 22  1  0  0  0  0
 21 43  1  0  0  0  0
 22 23  1  0  0  0  0
 23 24  2  0  0  0  0
 23 25  1  0  0  0  0
 25 26  1  0  0  0  0
 25 44  1  0  0  0  0
 26 27  1  0  0  0  0
 26 45  1  0  0  0  0
 26 46  1  0  0  0  0
 27 31  1  0  0  0  0
 27 28  2  0  0  0  0
 28 29  1  0  0  0  0
 28 47  1  0  0  0  0
 29 30  2  0  0  0  0
 29 48  1  0  0  0  0
 30 31  1  0  0  0  0
 30 49  1  0  0  0  0
M  END
> <Name>
ZINC09951579

> <reference>
BDB4968

> <quality>
0.737

> <status>
decoy

> <atoms in reference ligand area>
13

> <score>
-30.5441

$$$$
ZINC29587161
      BALL 1.4.0 (Jan  4 2012, 23:22:29)

 40 41  0999  0  0  0  0  0  0999 V2000
    8.6324   11.7746    3.9862 C   0  0  0  0  0  0  0  0  0  0  0  0
    8.3763   11.8328    2.5023 C   0  0  0  0  0  0  0  0  0  0  0  0
    7.8706   10.7151    1.8433 C   0  0  0  0  0  0  0  0  0  0  0  0
    7.6423   10.7858    0.4825 C   0  0  0  0  0  0  0  0  0  0  0  0
    7.9260   11.9505   -0.1703 N   0  0  0  0  0  0  0  0  0  0  0  0
    8.4163   13.0233    0.5197 C   0  0  0  0  0  0  0  0  0  0  0  0
    8.6324   12.9398    1.8374 N   0  0  0  0  0  0  0  0  0  0  0  0
    8.5907   14.0065   -0.3566 N   0  0  0  0  0  0  0  0  0  0  0  0
    8.2399   13.5944   -1.5686 C   0  0  0  0  0  0  0  0  0  0  0  0
    7.8223   12.3535   -1.5078 N   0  0  0  0  0  0  0  0  0  0  0  0
    8.3005   14.4298   -2.8213 C   0  0  0  0  0  0  0  0  0  0  0  0
    7.9512   13.6429   -3.9240 F   0  0  0  0  0  0  0  0  0  0  0  0
    7.4071   15.5009   -2.7112 F   0  0  0  0  0  0  0  0  0  0  0  0
    9.5991   14.9214   -2.9917 F   0  0  0  0  0  0  0  0  0  0  0  0
    7.1433    9.7005   -0.2028 N   0  0  0  0  0  0  0  0  0  0  0  0
    5.7574    9.2751    0.0078 C   0  0  0  0  0  0  0  0  0  0  0  0
    5.6152    8.6749    1.4079 C   0  0  0  0  0  0  0  0  0  0  0  0
    4.4342    7.7023    1.4284 C   0  0  0  0  0  0  0  0  0  0  0  0
    3.9936    7.4963    2.8145 N   0  3  0  0  0  0  0  0  0  0  0  0
    3.0242    6.3958    2.9007 C   0  0  0  0  0  0  0  0  0  0  0  0
    5.1400    7.2586    3.7016 C   0  0  0  0  0  0  0  0  0  0  0  0
    5.3868    9.7214    2.3538 O   0  0  0  0  0  0  0  0  0  0  0  0
    8.7248   12.8229    4.3062 H   0  0  0  0  0  0  0  0  0  0  0  0
    9.6238   11.3097    4.0916 H   0  0  0  0  0  0  0  0  0  0  0  0
    7.8549   11.2334    4.5453 H   0  0  0  0  0  0  0  0  0  0  0  0
    7.6563    9.7897    2.3980 H   0  0  0  0  0  0  0  0  0  0  0  0
    7.7446    9.1878   -0.8635 H   0  0  0  0  0  0  0  0  0  0  0  0
    5.0887   10.1432   -0.0880 H   0  0  0  0  0  0  0  0  0  0  0  0
    5.4866    8.5188   -0.7438 H   0  0  0  0  0  0  0  0  0  0  0  0
    6.5378    8.1371    1.6716 H   0  0  0  0  0  0  0  0  0  0  0  0
    4.7433    6.7393    0.9958 H   0  0  0  0  0  0  0  0  0  0  0  0
    3.6048    8.1199    0.8387 H   0  0  0  0  0  0  0  0  0  0  0  0
    3.5236    8.3574    3.1285 H   0  0  0  0  0  0  0  0  0  0  0  0
    3.5693    5.4535    3.0583 H   0  0  0  0  0  0  0  0  0  0  0  0
    2.4690    6.3363    1.9531 H   0  0  0  0  0  0  0  0  0  0  0  0
    2.3265    6.5687    3.7334 H   0  0  0  0  0  0  0  0  0  0  0  0
    4.9761    7.7971    4.6466 H   0  0  0  0  0  0  0  0  0  0  0  0
    6.0492    7.6467    3.2191 H   0  0  0  0  0  0  0  0  0  0  0  0
    5.2510    6.1820    3.8984 H   0  0  0  0  0  0  0  0  0  0  0  0
    4.4137    9.8797    2.4436 H   0  0  0  0  0  0  0  0  0  0  0  0
  1  2  1  0  0  0  0
  1 23  1  0  0  0  0
  1 24  1  0  0  0  0
  1 25  1  0  0  0  0
  2  7  2  0  0  0  0
  2  3  1  0  0  0  0
  3  4  2  0  0  0  0
  3 26  1  0  0  0  0
  4  5  1  0  0  0  0
  4 15  1  0  0  0  0
  5 10  1  0  0  0  0
  5  6  1  0  0  0  0
  6  7  1  0  0  0  0
  6  8  2  0  0  0  0
  8  9  1  0  0  0  0
  9 10  2  0  0  0  0
  9 11  1  0  0  0  0
 11 12  1  0  0  0  0
 11 13  1  0  0  0  0
 11 14  1  0  0  0  0
 15 16  1  0  0  0  0
 15 27  1  0  0  0  0
 16 17  1  0  0  0  0
 16 28  1  0  0  0  0
 16 29  1  0  0  0  0
 17 18  1  0  0  0  0
 17 22  1  0  0  0  0
 17 30  1  0  0  0  0
 18 19  1  0  0  0  0
 18 31  1  0  0  0  0
 18 32  1  0  0  0  0
 19 20  1  0  0  0  0
 19 21  1  0  0  0  0
 19 33  1  0  0  0  0
 20 34  1  0  0  0  0
 20 35  1  0  0  0  0
 20 36  1  0  0  0  0
 21 37  1  0  0  0  0
 21 38  1  0  0  0  0
 21 39  1  0  0  0  0
 22 40  1  0  0  0  0
M  END
> <Name>
ZINC29587161

> <reference>
BDB5198

> <quality>
0.746

> <status>
decoy

> <atoms in reference ligand area>
15

> <score>
-30.4926

$$$$
ZINC04806136
      BALL 1.4.0 (Jan  4 2012, 23:22:29)

 27 26  0999  0  0  0  0  0  0999 V2000
    7.4833   14.1276   -1.8260 C   0  0  0  0  0  0  0  0  0  0  0  0
    8.0624   12.7471   -2.1417 C   0  0  0  0  0  0  0  0  0  0  0  0
    9.0860   12.8698   -3.2722 C   0  0  0  0  0  0  0  0  0  0  0  0
    8.8725   12.0787   -0.6626 S   0  0  0  0  0  0  0  0  0  0  0  0
    9.6114   13.1089   -0.0207 O   0  0  0  0  0  0  0  0  0  0  0  0
    7.4937   11.5708    0.4012 C   0  0  0  0  0  0  0  0  0  0  0  0
    7.5904   10.0694    0.6794 C   0  0  0  0  0  0  0  0  0  0  0  0
    6.4275    9.6411    1.5768 C   0  0  0  0  0  0  0  0  0  0  0  0
    5.5309    8.6955    0.8199 C   0  0  0  0  0  0  0  0  0  0  0  0
    5.0566    7.7350    1.3789 O   0  0  0  0  0  0  0  0  0  0  0  0
    5.2544    8.9234   -0.4737 O   0  5  0  0  0  0  0  0  0  0  0  0
    5.6411   10.8148    1.9954 N   0  3  0  0  0  0  0  0  0  0  0  0
    8.1878   14.6856   -1.1918 H   0  0  0  0  0  0  0  0  0  0  0  0
    6.5261   14.0125   -1.2964 H   0  0  0  0  0  0  0  0  0  0  0  0
    7.3186   14.6798   -2.7630 H   0  0  0  0  0  0  0  0  0  0  0  0
    7.2517   12.0717   -2.4526 H   0  0  0  0  0  0  0  0  0  0  0  0
    8.5806   12.7437   -4.2411 H   0  0  0  0  0  0  0  0  0  0  0  0
    9.8559   12.0927   -3.1572 H   0  0  0  0  0  0  0  0  0  0  0  0
    9.5593   13.8620   -3.2331 H   0  0  0  0  0  0  0  0  0  0  0  0
    7.5410   12.1230    1.3514 H   0  0  0  0  0  0  0  0  0  0  0  0
    6.5407   11.7889   -0.1028 H   0  0  0  0  0  0  0  0  0  0  0  0
    7.5429    9.5165   -0.2703 H   0  0  0  0  0  0  0  0  0  0  0  0
    8.5425    9.8494    1.1845 H   0  0  0  0  0  0  0  0  0  0  0  0
    6.8362    9.1434    2.4686 H   0  0  0  0  0  0  0  0  0  0  0  0
    4.6396   10.5761    1.9686 H   0  0  0  0  0  0  0  0  0  0  0  0
    5.8221   11.5914    1.3435 H   0  0  0  0  0  0  0  0  0  0  0  0
    5.9068   11.0935    2.9507 H   0  0  0  0  0  0  0  0  0  0  0  0
  1  2  1  0  0  0  0
  1 13  1  0  0  0  0
  1 14  1  0  0  0  0
  1 15  1  0  0  0  0
  2  3  1  0  0  0  0
  2  4  1  0  0  0  0
  2 16  1  0  0  0  0
  3 17  1  0  0  0  0
  3 18  1  0  0  0  0
  3 19  1  0  0  0  0
  4  5  2  0  0  0  0
  4  6  1  0  0  0  0
  6  7  1  0  0  0  0
  6 20  1  0  0  0  0
  6 21  1  0  0  0  0
  7  8  1  0  0  0  0
  7 22  1  0  0  0  0
  7 23  1  0  0  0  0
  8  9  1  0  0  0  0
  8 12  1  0  0  0  0
  8 24  1  0  0  0  0
  9 10  2  0  0  0  0
  9 11  1  0  0  0  0
 12 25  1  0  0  0  0
 12 26  1  0  0  0  0
 12 27  1  0  0  0  0
M  END
> <Name>
ZINC04806136

> <reference>
BDB5233

> <quality>
0.746

> <status>
decoy

> <atoms in reference ligand area>
18

> <score>
-30.478

$$$$
ZINC15636405
      BALL 1.4.0 (Jan  4 2012, 23:22:29)

 56 59  0999  0  0  0  0  0  0999 V2000
    9.2377    8.9112    5.7981 C   0  0  0  0  0  0  0  0  0  0  0  0
   10.1078    9.8699    5.3098 C   0  0  0  0  0  0  0  0  0  0  0  0
   10.1539   10.1396    3.9579 C   0  0  0  0  0  0  0  0  0  0  0  0
    9.3193    9.4423    3.0811 C   0  0  0  0  0  0  0  0  0  0  0  0
    8.4390    8.4801    3.5819 C   0  0  0  0  0  0  0  0  0  0  0  0
    8.4081    8.2166    4.9356 C   0  0  0  0  0  0  0  0  0  0  0  0
    9.3630    9.7249    1.6344 C   0  0  0  0  0  0  0  0  0  0  0  0
    8.4671    9.2144    0.8463 N   0  0  0  0  0  0  0  0  0  0  0  0
    7.5387    8.2917    1.3457 N   0  0  0  0  0  0  0  0  0  0  0  0
    6.3419    8.7169    1.7969 C   0  0  0  0  0  0  0  0  0  0  0  0
    6.2348    9.8258    2.2839 O   0  0  0  0  0  0  0  0  0  0  0  0
    5.1599    7.8351    1.6998 C   0  0  0  0  0  0  0  0  0  0  0  0
    4.6012    7.2817    2.8534 C   0  0  0  0  0  0  0  0  0  0  0  0
    3.4951    6.4633    2.7560 C   0  0  0  0  0  0  0  0  0  0  0  0
    2.9460    6.1816    1.5174 C   0  0  0  0  0  0  0  0  0  0  0  0
    3.4943    6.7270    0.3704 C   0  0  0  0  0  0  0  0  0  0  0  0
    4.5975    7.5514    0.4541 C   0  0  0  0  0  0  0  0  0  0  0  0
    2.8965    6.4251   -0.9496 N   0  0  0  0  0  0  0  0  0  0  0  0
    1.8062    6.8817   -1.2431 O   0  0  0  0  0  0  0  0  0  0  0  0
    3.4950    5.7201   -1.7423 O   0  0  0  0  0  0  0  0  0  0  0  0
   10.4477   10.6065    1.0713 C   0  0  0  0  0  0  0  0  0  0  0  0
   10.1491   12.0666    1.4171 C   0  0  0  0  0  0  0  0  0  0  0  0
   11.1652   12.9585    0.7513 C   0  0  0  0  0  0  0  0  0  0  0  0
   11.8835   13.9283    1.3294 C   0  0  0  0  0  0  0  0  0  0  0  0
   12.0197   14.4236   -0.8662 C   0  0  0  0  0  0  0  0  0  0  0  0
   11.5768   12.9322   -0.6849 C   0  0  0  0  0  0  0  0  0  0  0  0
   10.5675   12.6714   -1.7479 C   0  0  0  0  0  0  0  0  0  0  0  0
   10.9114   13.1187   -2.9739 C   0  0  0  0  0  0  0  0  0  0  0  0
   12.2132   13.7893   -3.1701 C   0  0  0  0  0  0  0  0  0  0  0  0
   12.7796   14.4832   -2.1471 C   0  0  0  0  0  0  0  0  0  0  0  0
    8.7692   12.4263    0.9298 C   0  0  0  0  0  0  0  0  0  0  0  0
    8.5523   12.5200   -0.2551 O   0  0  0  0  0  0  0  0  0  0  0  0
   12.6898   14.5609    0.3955 N   0  3  0  0  0  0  0  0  0  0  0  0
    7.7810   12.6424    1.8122 O   0  5  0  0  0  0  0  0  0  0  0  0
    9.2055    8.7002    6.8772 H   0  0  0  0  0  0  0  0  0  0  0  0
   10.7642   10.4183    6.0014 H   0  0  0  0  0  0  0  0  0  0  0  0
   10.8462   10.9018    3.5711 H   0  0  0  0  0  0  0  0  0  0  0  0
    7.7721    7.9340    2.8985 H   0  0  0  0  0  0  0  0  0  0  0  0
    7.7223    7.4525    5.3303 H   0  0  0  0  0  0  0  0  0  0  0  0
    7.7706    7.2884    1.3680 H   0  0  0  0  0  0  0  0  0  0  0  0
    5.0421    7.4978    3.8378 H   0  0  0  0  0  0  0  0  0  0  0  0
    3.0485    6.0337    3.6649 H   0  0  0  0  0  0  0  0  0  0  0  0
    2.0695    5.5210    1.4446 H   0  0  0  0  0  0  0  0  0  0  0  0
    5.0329    7.9841   -0.4586 H   0  0  0  0  0  0  0  0  0  0  0  0
   10.4860   10.4898   -0.0219 H   0  0  0  0  0  0  0  0  0  0  0  0
   11.4167   10.3183    1.5049 H   0  0  0  0  0  0  0  0  0  0  0  0
   10.2001   12.2029    2.5075 H   0  0  0  0  0  0  0  0  0  0  0  0
   11.8402   14.1876    2.3975 H   0  0  0  0  0  0  0  0  0  0  0  0
   11.3129   15.2552   -1.0042 H   0  0  0  0  0  0  0  0  0  0  0  0
   12.2805   12.0982   -0.8228 H   0  0  0  0  0  0  0  0  0  0  0  0
    9.6168   12.1549   -1.5497 H   0  0  0  0  0  0  0  0  0  0  0  0
   10.2254   12.9847   -3.8233 H   0  0  0  0  0  0  0  0  0  0  0  0
   12.7236   13.7272   -4.1426 H   0  0  0  0  0  0  0  0  0  0  0  0
   13.7206   15.0423   -2.2557 H   0  0  0  0  0  0  0  0  0  0  0  0
   12.7880   15.5583    0.6332 H   0  0  0  0  0  0  0  0  0  0  0  0
   13.6105   14.1009    0.3548 H   0  0  0  0  0  0  0  0  0  0  0  0
  1  6  2  0  0  0  0
  1  2  1  0  0  0  0
  1 35  1  0  0  0  0
  2  3  2  0  0  0  0
  2 36  1  0  0  0  0
  3  4  1  0  0  0  0
  3 37  1  0  0  0  0
  4  5  2  0  0  0  0
  4  7  1  0  0  0  0
  5  6  1  0  0  0  0
  5 38  1  0  0  0  0
  6 39  1  0  0  0  0
  7  8  2  0  0  0  0
  7 21  1  0  0  0  0
  8  9  1  0  0  0  0
  9 10  1  0  0  0  0
  9 40  1  0  0  0  0
 10 11  2  0  0  0  0
 10 12  1  0  0  0  0
 12 17  2  0  0  0  0
 12 13  1  0  0  0  0
 13 14  2  0  0  0  0
 13 41  1  0  0  0  0
 14 15  1  0  0  0  0
 14 42  1  0  0  0  0
 15 16  2  0  0  0  0
 15 43  1  0  0  0  0
 16 17  1  0  0  0  0
 16 18  1  0  0  0  0
 17 44  1  0  0  0  0
 18 19  2  0  0  0  0
 18 20  2  0  0  0  0
 21 22  1  0  0  0  0
 21 45  1  0  0  0  0
 21 46  1  0  0  0  0
 22 23  1  0  0  0  0
 22 31  1  0  0  0  0
 22 47  1  0  0  0  0
 23 26  1  0  0  0  0
 23 24  2  0  0  0  0
 24 33  1  0  0  0  0
 24 48  1  0  0  0  0
 25 30  1  0  0  0  0
 25 26  1  0  0  0  0
 25 33  1  0  0  0  0
 25 49  1  0  0  0  0
 26 27  1  0  0  0  0
 26 50  1  0  0  0  0
 27 28  2  0  0  0  0
 27 51  1  0  0  0  0
 28 29  1  0  0  0  0
 28 52  1  0  0  0  0
 29 30  2  0  0  0  0
 29 53  1  0  0  0  0
 30 54  1  0  0  0  0
 31 32  2  0  0  0  0
 31 34  1  0  0  0  0
 33 55  1  0  0  0  0
 33 56  1  0  0  0  0
M  END
> <Name>
ZINC15636405

> <reference>
BDB4968

> <quality>
0.817

> <status>
decoy

> <atoms in reference ligand area>
19

> <score>
-30.4138

$$$$
ZINC06413685
      BALL 1.4.0 (Jan  4 2012, 23:22:29)

 35 36  0999  0  0  0  0  0  0999 V2000
    7.4514   13.3497    2.3034 C   0  0  0  0  0  0  0  0  0  0  0  0
    8.0731   12.0232    2.3199 N   0  0  0  0  0  0  0  0  0  0  0  0
    9.4091   11.8889    2.6625 C   0  0  0  0  0  0  0  0  0  0  0  0
    9.9746   10.6180    2.6696 C   0  0  0  0  0  0  0  0  0  0  0  0
    9.1780    9.5105    2.3305 C   0  0  0  0  0  0  0  0  0  0  0  0
    9.6524    8.3879    2.3297 O   0  0  0  0  0  0  0  0  0  0  0  0
    7.8828    9.7033    2.0055 N   0  0  0  0  0  0  0  0  0  0  0  0
    7.3475   10.9361    1.9964 C   0  0  0  0  0  0  0  0  0  0  0  0
    6.1778   11.0726    1.6930 O   0  0  0  0  0  0  0  0  0  0  0  0
    7.0489    8.5520    1.6515 C   0  0  0  0  0  0  0  0  0  0  0  0
   11.3019   10.7824    3.0433 N   0  5  0  0  0  0  0  0  0  0  0  0
   11.4895   12.1148    3.2445 C   0  0  0  0  0  0  0  0  0  0  0  0
   10.3600   12.7549    3.0150 N   0  0  0  0  0  0  0  0  0  0  0  0
   13.0054   12.8674    3.7349 S   0  0  0  0  0  0  0  0  0  0  0  0
   13.8566   11.4320    4.4357 C   0  0  0  0  0  0  0  0  0  0  0  0
   15.1025   11.8869    5.1513 C   0  0  0  0  0  0  0  0  0  0  0  0
   15.7909   12.7632    4.6729 O   0  0  0  0  0  0  0  0  0  0  0  0
   15.4516   11.3198    6.3231 N   0  0  0  0  0  0  0  0  0  0  0  0
   16.6626   11.7619    7.0188 C   0  0  0  0  0  0  0  0  0  0  0  0
   17.5088   10.5437    7.3941 C   0  0  0  0  0  0  0  0  0  0  0  0
   18.4915   10.9253    8.3588 O   0  0  0  0  0  0  0  0  0  0  0  0
    6.5961   13.2571    1.6180 H   0  0  0  0  0  0  0  0  0  0  0  0
    8.1887   14.0062    1.8183 H   0  0  0  0  0  0  0  0  0  0  0  0
    7.1546   13.7148    3.2978 H   0  0  0  0  0  0  0  0  0  0  0  0
    6.0922    8.9785    1.3157 H   0  0  0  0  0  0  0  0  0  0  0  0
    6.8596    8.0278    2.5999 H   0  0  0  0  0  0  0  0  0  0  0  0
    7.5014    7.8946    0.8944 H   0  0  0  0  0  0  0  0  0  0  0  0
   14.1313   10.7371    3.6285 H   0  0  0  0  0  0  0  0  0  0  0  0
   13.1908   10.9224    5.1478 H   0  0  0  0  0  0  0  0  0  0  0  0
   14.8669   10.5755    6.7294 H   0  0  0  0  0  0  0  0  0  0  0  0
   16.3835   12.3088    7.9315 H   0  0  0  0  0  0  0  0  0  0  0  0
   17.2443   12.4224    6.3590 H   0  0  0  0  0  0  0  0  0  0  0  0
   16.8605    9.7641    7.8205 H   0  0  0  0  0  0  0  0  0  0  0  0
   18.0099   10.1532    6.4961 H   0  0  0  0  0  0  0  0  0  0  0  0
   18.7398   11.8737    8.2210 H   0  0  0  0  0  0  0  0  0  0  0  0
  1  2  1  0  0  0  0
  1 22  1  0  0  0  0
  1 23  1  0  0  0  0
  1 24  1  0  0  0  0
  2  8  1  0  0  0  0
  2  3  1  0  0  0  0
  3 13  1  0  0  0  0
  3  4  2  0  0  0  0
  4  5  1  0  0  0  0
  4 11  1  0  0  0  0
  5  6  2  0  0  0  0
  5  7  1  0  0  0  0
  7  8  1  0  0  0  0
  7 10  1  0  0  0  0
  8  9  2  0  0  0  0
 10 25  1  0  0  0  0
 10 26  1  0  0  0  0
 10 27  1  0  0  0  0
 11 12  1  0  0  0  0
 12 13  2  0  0  0  0
 12 14  1  0  0  0  0
 14 15  1  0  0  0  0
 15 16  1  0  0  0  0
 15 28  1  0  0  0  0
 15 29  1  0  0  0  0
 16 17  2  0  0  0  0
 16 18  1  0  0  0  0
 18 19  1  0  0  0  0
 18 30  1  0  0  0  0
 19 20  1  0  0  0  0
 19 31  1  0  0  0  0
 19 32  1  0  0  0  0
 20 21  1  0  0  0  0
 20 33  1  0  0  0  0
 20 34  1  0  0  0  0
 21 35  1  0  0  0  0
M  END
> <Name>
ZINC06413685

> <reference>
BDB4932

> <quality>
0.694

> <status>
decoy

> <atoms in reference ligand area>
12

> <score>
-30.2167

$$$$
ZINC29550972
      BALL 1.4.0 (Jan  4 2012, 23:22:29)

 28 28  0999  0  0  0  0  0  0999 V2000
    7.5538   11.9822   -0.5576 C   0  0  0  0  0  0  0  0  0  0  0  0
    6.4541   11.5994   -1.2962 C   0  0  0  0  0  0  0  0  0  0  0  0
    5.4974   10.8677   -0.7560 N   0  3  0  0  0  0  0  0  0  0  0  0
    5.5452   10.4766    0.5038 C   0  0  0  0  0  0  0  0  0  0  0  0
    6.6083   10.8218    1.3113 C   0  0  0  0  0  0  0  0  0  0  0  0
    7.6406   11.5944    0.7793 C   0  0  0  0  0  0  0  0  0  0  0  0
    8.7314   11.9638    1.5606 N   0  0  0  0  0  0  0  0  0  0  0  0
    9.0276   13.3815    1.7814 C   0  0  0  0  0  0  0  0  0  0  0  0
   10.5038   13.6471    1.4793 C   0  0  0  0  0  0  0  0  0  0  0  0
   11.5178   13.1318    2.9039 P   0  0  0  0  0  0  0  0  0  0  0  0
   11.9104   11.7139    2.7430 O   0  0  0  0  0  0  0  0  0  0  0  0
   12.8389   14.0488    2.9821 O   0  5  0  0  0  0  0  0  0  0  0  0
   10.6653   13.3021    4.2590 O   0  0  0  0  0  0  0  0  0  0  0  0
   11.0023   12.6991    0.0042 P   0  0  0  0  0  0  0  0  0  0  0  0
    9.9155   12.7406   -0.9996 O   0  0  0  0  0  0  0  0  0  0  0  0
   12.3370   13.3451   -0.6231 O   0  5  0  0  0  0  0  0  0  0  0  0
   11.2904   11.1707    0.4204 O   0  0  0  0  0  0  0  0  0  0  0  0
    8.3513   12.5850   -1.0163 H   0  0  0  0  0  0  0  0  0  0  0  0
    6.3731   11.9077   -2.3490 H   0  0  0  0  0  0  0  0  0  0  0  0
    4.6902   10.5940   -1.3343 H   0  0  0  0  0  0  0  0  0  0  0  0
    4.7266    9.8675    0.9147 H   0  0  0  0  0  0  0  0  0  0  0  0
    6.6418   10.4925    2.3604 H   0  0  0  0  0  0  0  0  0  0  0  0
    9.3304   11.2406    1.9836 H   0  0  0  0  0  0  0  0  0  0  0  0
    8.4018   13.9949    1.1165 H   0  0  0  0  0  0  0  0  0  0  0  0
    8.8157   13.6428    2.8287 H   0  0  0  0  0  0  0  0  0  0  0  0
   10.6525   14.7209    1.2926 H   0  0  0  0  0  0  0  0  0  0  0  0
   10.6762   14.2514    4.5399 H   0  0  0  0  0  0  0  0  0  0  0  0
   12.1700   10.8905    0.0628 H   0  0  0  0  0  0  0  0  0  0  0  0
  1  6  2  0  0  0  0
  1  2  1  0  0  0  0
  1 18  1  0  0  0  0
  2  3  2  0  0  0  0
  2 19  1  0  0  0  0
  3  4  1  0  0  0  0
  3 20  1  0  0  0  0
  4  5  2  0  0  0  0
  4 21  1  0  0  0  0
  5  6  1  0  0  0  0
  5 22  1  0  0  0  0
  6  7  1  0  0  0  0
  7  8  1  0  0  0  0
  7 23  1  0  0  0  0
  8  9  1  0  0  0  0
  8 24  1  0  0  0  0
  8 25  1  0  0  0  0
  9 10  1  0  0  0  0
  9 14  1  0  0  0  0
  9 26  1  0  0  0  0
 10 11  2  0  0  0  0
 10 12  1  0  0  0  0
 10 13  1  0  0  0  0
 13 27  1  0  0  0  0
 14 15  2  0  0  0  0
 14 16  1  0  0  0  0
 14 17  1  0  0  0  0
 17 28  1  0  0  0  0
M  END
> <Name>
ZINC29550972

> <reference>
BDB4937

> <quality>
0.799

> <status>
decoy

> <atoms in reference ligand area>
24

> <score>
-30.1362

$$$$
ZINC26376724
      BALL 1.4.0 (Jan  4 2012, 23:22:29)

 49 50  0999  0  0  0  0  0  0999 V2000
   11.9091   14.9331   -1.6621 C   0  0  0  0  0  0  0  0  0  0  0  0
   10.4928   15.0328   -2.0235 N   0  0  0  0  0  0  0  0  0  0  0  0
    9.5358   13.6816   -2.0023 S   0  0  0  0  0  0  0  0  0  0  0  0
   10.2395   12.6742   -2.7160 O   0  0  0  0  0  0  0  0  0  0  0  0
    8.2293   14.1034   -2.3690 O   0  0  0  0  0  0  0  0  0  0  0  0
    9.4384   13.1384   -0.3289 C   0  0  0  0  0  0  0  0  0  0  0  0
   10.4093   12.3998    0.3548 C   0  0  0  0  0  0  0  0  0  0  0  0
    9.9324   12.1872    1.6307 C   0  0  0  0  0  0  0  0  0  0  0  0
    8.7002   12.7942    1.7195 N   0  0  0  0  0  0  0  0  0  0  0  0
    8.4124   13.3670    0.5253 C   0  0  0  0  0  0  0  0  0  0  0  0
    7.8428   12.8177    2.9071 C   0  0  0  0  0  0  0  0  0  0  0  0
   10.6164   11.4532    2.7008 C   0  0  0  0  0  0  0  0  0  0  0  0
    9.9969   10.6636    3.3892 O   0  0  0  0  0  0  0  0  0  0  0  0
   11.9309   11.6530    2.9214 N   0  0  0  0  0  0  0  0  0  0  0  0
   12.5890   11.0067    4.0596 C   0  0  0  0  0  0  0  0  0  0  0  0
   13.8863   11.7489    4.3871 C   0  0  0  0  0  0  0  0  0  0  0  0
   14.5445   11.1026    5.5254 N   0  0  0  0  0  0  0  0  0  0  0  0
   15.8849   10.9622    5.5378 C   0  0  0  0  0  0  0  0  0  0  0  0
   16.5471   11.3671    4.6025 O   0  0  0  0  0  0  0  0  0  0  0  0
   16.5497   10.3154    6.6892 C   0  0  0  0  0  0  0  0  0  0  0  0
   16.0888    9.0864    7.1645 C   0  0  0  0  0  0  0  0  0  0  0  0
   16.7145    8.4834    8.2362 C   0  0  0  0  0  0  0  0  0  0  0  0
   17.7914    9.0977    8.8488 C   0  0  0  0  0  0  0  0  0  0  0  0
   18.2534   10.3224    8.3865 C   0  0  0  0  0  0  0  0  0  0  0  0
   17.6360   10.9339    7.3081 C   0  0  0  0  0  0  0  0  0  0  0  0
   19.3120   10.9217    8.9927 O   0  0  0  0  0  0  0  0  0  0  0  0
   19.2623   11.0414   10.4158 C   0  0  0  0  0  0  0  0  0  0  0  0
   12.0364   15.6591   -0.8456 H   0  0  0  0  0  0  0  0  0  0  0  0
   12.4442   15.3437   -2.5310 H   0  0  0  0  0  0  0  0  0  0  0  0
   12.2494   13.9229   -1.3907 H   0  0  0  0  0  0  0  0  0  0  0  0
   10.0924   15.9434   -2.2908 H   0  0  0  0  0  0  0  0  0  0  0  0
   11.3720   12.0537   -0.0494 H   0  0  0  0  0  0  0  0  0  0  0  0
    7.4953   13.9264    0.2886 H   0  0  0  0  0  0  0  0  0  0  0  0
    7.8223   13.8862    3.1675 H   0  0  0  0  0  0  0  0  0  0  0  0
    8.4736   12.3354    3.6683 H   0  0  0  0  0  0  0  0  0  0  0  0
    6.8457   12.3653    2.8027 H   0  0  0  0  0  0  0  0  0  0  0  0
   12.4727   12.2600    2.2899 H   0  0  0  0  0  0  0  0  0  0  0  0
   11.9212   11.0337    4.9333 H   0  0  0  0  0  0  0  0  0  0  0  0
   12.8194    9.9614    3.8063 H   0  0  0  0  0  0  0  0  0  0  0  0
   14.5548   11.7219    3.5139 H   0  0  0  0  0  0  0  0  0  0  0  0
   13.6577   12.7943    4.6418 H   0  0  0  0  0  0  0  0  0  0  0  0
   13.9830   10.7557    6.3160 H   0  0  0  0  0  0  0  0  0  0  0  0
   15.2272    8.5989    6.6848 H   0  0  0  0  0  0  0  0  0  0  0  0
   16.3556    7.5110    8.6045 H   0  0  0  0  0  0  0  0  0  0  0  0
   18.2836    8.6142    9.7055 H   0  0  0  0  0  0  0  0  0  0  0  0
   18.0012   11.9043    6.9408 H   0  0  0  0  0  0  0  0  0  0  0  0
   18.2019   11.1704   10.6784 H   0  0  0  0  0  0  0  0  0  0  0  0
   19.7879   11.9746   10.6662 H   0  0  0  0  0  0  0  0  0  0  0  0
   19.7048   10.1763   10.9313 H   0  0  0  0  0  0  0  0  0  0  0  0
  1  2  1  0  0  0  0
  1 28  1  0  0  0  0
  1 29  1  0  0  0  0
  1 30  1  0  0  0  0
  2  3  1  0  0  0  0
  2 31  1  0  0  0  0
  3  4  2  0  0  0  0
  3  5  2  0  0  0  0
  3  6  1  0  0  0  0
  6 10  2  0  0  0  0
  6  7  1  0  0  0  0
  7  8  2  0  0  0  0
  7 32  1  0  0  0  0
  8  9  1  0  0  0  0
  8 12  1  0  0  0  0
  9 10  1  0  0  0  0
  9 11  1  0  0  0  0
 10 33  1  0  0  0  0
 11 34  1  0  0  0  0
 11 35  1  0  0  0  0
 11 36  1  0  0  0  0
 12 13  2  0  0  0  0
 12 14  1  0  0  0  0
 14 15  1  0  0  0  0
 14 37  1  0  0  0  0
 15 16  1  0  0  0  0
 15 38  1  0  0  0  0
 15 39  1  0  0  0  0
 16 17  1  0  0  0  0
 16 40  1  0  0  0  0
 16 41  1  0  0  0  0
 17 18  1  0  0  0  0
 17 42  1  0  0  0  0
 18 19  2  0  0  0  0
 18 20  1  0  0  0  0
 20 25  2  0  0  0  0
 20 21  1  0  0  0  0
 21 22  2  0  0  0  0
 21 43  1  0  0  0  0
 22 23  1  0  0  0  0
 22 44  1  0  0  0  0
 23 24  2  0  0  0  0
 23 45  1  0  0  0  0
 24 25  1  0  0  0  0
 24 26  1  0  0  0  0
 25 46  1  0  0  0  0
 26 27  1  0  0  0  0
 27 47  1  0  0  0  0
 27 48  1  0  0  0  0
 27 49  1  0  0  0  0
M  END
> <Name>
ZINC26376724

> <reference>
BDB4945

> <quality>
0.709

> <status>
decoy

> <atoms in reference ligand area>
17

> <score>
-30.0181

$$$$
ZINC30969187
      BALL 1.4.0 (Jan  4 2012, 23:22:29)

 60 61  0999  0  0  0  0  0  0999 V2000
   10.9860   13.2927   -3.2192 C   0  0  0  0  0  0  0  0  0  0  0  0
   10.9489   12.7092   -1.8054 C   0  0  0  0  0  0  0  0  0  0  0  0
   11.9166   13.4838   -0.9084 C   0  0  0  0  0  0  0  0  0  0  0  0
   11.5394   13.2643    0.5580 C   0  0  0  0  0  0  0  0  0  0  0  0
   12.5607   12.4383    1.2067 N   0  0  0  0  0  0  0  0  0  0  0  0
   12.6752   12.4394    2.5496 C   0  0  0  0  0  0  0  0  0  0  0  0
   11.9328   13.1242    3.2210 O   0  0  0  0  0  0  0  0  0  0  0  0
   13.7258   11.5896    3.2169 C   0  0  0  0  0  0  0  0  0  0  0  0
   13.0520   10.4334    3.9610 C   0  0  0  0  0  0  0  0  0  0  0  0
   14.1185    9.6097    4.6865 C   0  0  0  0  0  0  0  0  0  0  0  0
   14.8425   10.4685    5.6324 N   0  0  0  0  0  0  0  0  0  0  0  0
   15.5368   11.5588    4.9354 C   0  0  0  0  0  0  0  0  0  0  0  0
   14.5126   12.4406    4.2174 C   0  0  0  0  0  0  0  0  0  0  0  0
   15.7800    9.6824    6.4456 C   0  0  0  0  0  0  0  0  0  0  0  0
   16.4382   10.5799    7.4617 C   0  0  0  0  0  0  0  0  0  0  0  0
   16.7155   11.7242    7.1708 O   0  0  0  0  0  0  0  0  0  0  0  0
   16.7184   10.1109    8.6938 N   0  0  0  0  0  0  0  0  0  0  0  0
   18.0198    9.6970    9.0065 N   0  0  0  0  0  0  0  0  0  0  0  0
   18.6223   10.1530   10.1224 C   0  0  0  0  0  0  0  0  0  0  0  0
   18.1182   11.0544   10.7585 O   0  0  0  0  0  0  0  0  0  0  0  0
   19.9223    9.5433   10.5800 C   0  0  0  0  0  0  0  0  0  0  0  0
   21.0564   10.5506   10.3800 C   0  0  0  0  0  0  0  0  0  0  0  0
   21.0842   11.0028    8.9106 C   0  0  0  0  0  0  0  0  0  0  0  0
   22.0213   12.2396    8.8022 C   0  0  0  0  0  0  0  0  0  0  0  0
   21.5495   13.1549   10.3300 S   0  0  0  0  0  0  0  0  0  0  0  0
   20.5212   14.0833   10.0139 O   0  0  0  0  0  0  0  0  0  0  0  0
   22.7288   13.6108   10.9786 O   0  0  0  0  0  0  0  0  0  0  0  0
   20.8279   11.7714   11.3036 C   0  0  0  0  0  0  0  0  0  0  0  0
   10.2348   14.0914   -3.3072 H   0  0  0  0  0  0  0  0  0  0  0  0
   10.7653   12.5005   -3.9498 H   0  0  0  0  0  0  0  0  0  0  0  0
   11.9851   13.7068   -3.4197 H   0  0  0  0  0  0  0  0  0  0  0  0
    9.9292   12.7919   -1.4011 H   0  0  0  0  0  0  0  0  0  0  0  0
   11.2464   11.6507   -1.8365 H   0  0  0  0  0  0  0  0  0  0  0  0
   12.9423   13.1256   -1.0802 H   0  0  0  0  0  0  0  0  0  0  0  0
   11.8584   14.5565   -1.1447 H   0  0  0  0  0  0  0  0  0  0  0  0
   11.4751   14.2360    1.0695 H   0  0  0  0  0  0  0  0  0  0  0  0
   10.5661   12.7549    0.6151 H   0  0  0  0  0  0  0  0  0  0  0  0
   13.1911   11.8567    0.6365 H   0  0  0  0  0  0  0  0  0  0  0  0
   14.4091   11.1899    2.4531 H   0  0  0  0  0  0  0  0  0  0  0  0
   12.5204    9.7927    3.2420 H   0  0  0  0  0  0  0  0  0  0  0  0
   12.3375   10.8354    4.6945 H   0  0  0  0  0  0  0  0  0  0  0  0
   13.6363    8.7868    5.2344 H   0  0  0  0  0  0  0  0  0  0  0  0
   14.8259    9.1961    3.9526 H   0  0  0  0  0  0  0  0  0  0  0  0
   16.0937   12.1646    5.6653 H   0  0  0  0  0  0  0  0  0  0  0  0
   16.2369   11.1374    4.1990 H   0  0  0  0  0  0  0  0  0  0  0  0
   15.0348   13.2476    3.6824 H   0  0  0  0  0  0  0  0  0  0  0  0
   13.8218   12.8747    4.9550 H   0  0  0  0  0  0  0  0  0  0  0  0
   15.2330    8.8813    6.9643 H   0  0  0  0  0  0  0  0  0  0  0  0
   16.5491    9.2398    5.7956 H   0  0  0  0  0  0  0  0  0  0  0  0
   15.9758   10.0568    9.4055 H   0  0  0  0  0  0  0  0  0  0  0  0
   18.5162    9.0440    8.3835 H   0  0  0  0  0  0  0  0  0  0  0  0
   19.8494    9.2809   11.6458 H   0  0  0  0  0  0  0  0  0  0  0  0
   20.1302    8.6368    9.9926 H   0  0  0  0  0  0  0  0  0  0  0  0
   22.0188   10.0814   10.6322 H   0  0  0  0  0  0  0  0  0  0  0  0
   21.4723   10.1891    8.2802 H   0  0  0  0  0  0  0  0  0  0  0  0
   20.0695   11.2793    8.5882 H   0  0  0  0  0  0  0  0  0  0  0  0
   23.0772   11.9363    8.8575 H   0  0  0  0  0  0  0  0  0  0  0  0
   21.7762   12.8407    7.9141 H   0  0  0  0  0  0  0  0  0  0  0  0
   21.3798   11.6513   12.2475 H   0  0  0  0  0  0  0  0  0  0  0  0
   19.7523   11.9436   11.4570 H   0  0  0  0  0  0  0  0  0  0  0  0
  1  2  1  0  0  0  0
  1 29  1  0  0  0  0
  1 30  1  0  0  0  0
  1 31  1  0  0  0  0
  2  3  1  0  0  0  0
  2 32  1  0  0  0  0
  2 33  1  0  0  0  0
  3  4  1  0  0  0  0
  3 34  1  0  0  0  0
  3 35  1  0  0  0  0
  4  5  1  0  0  0  0
  4 36  1  0  0  0  0
  4 37  1  0  0  0  0
  5  6  1  0  0  0  0
  5 38  1  0  0  0  0
  6  7  2  0  0  0  0
  6  8  1  0  0  0  0
  8 13  1  0  0  0  0
  8  9  1  0  0  0  0
  8 39  1  0  0  0  0
  9 10  1  0  0  0  0
  9 40  1  0  0  0  0
  9 41  1  0  0  0  0
 10 11  1  0  0  0  0
 10 42  1  0  0  0  0
 10 43  1  0  0  0  0
 11 12  1  0  0  0  0
 11 14  1  0  0  0  0
 12 13  1  0  0  0  0
 12 44  1  0  0  0  0
 12 45  1  0  0  0  0
 13 46  1  0  0  0  0
 13 47  1  0  0  0  0
 14 15  1  0  0  0  0
 14 48  1  0  0  0  0
 14 49  1  0  0  0  0
 15 16  2  0  0  0  0
 15 17  1  0  0  0  0
 17 18  1  0  0  0  0
 17 50  1  0  0  0  0
 18 19  1  0  0  0  0
 18 51  1  0  0  0  0
 19 20  2  0  0  0  0
 19 21  1  0  0  0  0
 21 22  1  0  0  0  0
 21 52  1  0  0  0  0
 21 53  1  0  0  0  0
 22 28  1  0  0  0  0
 22 23  1  0  0  0  0
 22 54  1  0  0  0  0
 23 24  1  0  0  0  0
 23 55  1  0  0  0  0
 23 56  1  0  0  0  0
 24 25  1  0  0  0  0
 24 57  1  0  0  0  0
 24 58  1  0  0  0  0
 25 26  2  0  0  0  0
 25 27  2  0  0  0  0
 25 28  1  0  0  0  0
 28 59  1  0  0  0  0
 28 60  1  0  0  0  0
M  END
> <Name>
ZINC30969187

> <reference>
BDB4965

> <quality>
0.662

> <status>
decoy

> <atoms in reference ligand area>
13

> <score>
-30.0111

$$$$
ZINC27082580
      BALL 1.4.0 (Jan  4 2012, 23:22:29)

 43 44  0999  0  0  0  0  0  0999 V2000
    4.6045    4.8861    1.9747 C   0  0  0  0  0  0  0  0  0  0  0  0
    4.9951    5.5582    0.6836 C   0  0  0  0  0  0  0  0  0  0  0  0
    5.3637    6.8963    0.6916 C   0  0  0  0  0  0  0  0  0  0  0  0
    5.7303    7.5051   -0.5195 C   0  0  0  0  0  0  0  0  0  0  0  0
    5.7001    6.7276   -1.6835 C   0  0  0  0  0  0  0  0  0  0  0  0
    5.3151    5.4060   -1.5964 C   0  0  0  0  0  0  0  0  0  0  0  0
    4.9773    4.8701   -0.4393 N   0  0  0  0  0  0  0  0  0  0  0  0
    6.0833    7.3260   -3.0125 C   0  0  0  0  0  0  0  0  0  0  0  0
    4.9196    7.4491   -3.8327 O   0  0  0  0  0  0  0  0  0  0  0  0
    6.1352    8.9237   -0.5643 C   0  0  0  0  0  0  0  0  0  0  0  0
    6.1560    9.6247    0.5222 N   0  0  0  0  0  0  0  0  0  0  0  0
    6.3423   11.0762    0.4539 C   0  0  0  0  0  0  0  0  0  0  0  0
    7.7665   11.4286    0.8876 C   0  0  0  0  0  0  0  0  0  0  0  0
    7.9528   12.8802    0.8194 N   0  0  0  0  0  0  0  0  0  0  0  0
    9.1844   13.4089    0.9606 C   0  0  0  0  0  0  0  0  0  0  0  0
   10.1280   12.6897    1.2315 O   0  0  0  0  0  0  0  0  0  0  0  0
    9.3875   14.8512    0.7878 C   0  0  0  0  0  0  0  0  0  0  0  0
    9.9065   15.4732   -0.3279 C   0  0  0  0  0  0  0  0  0  0  0  0
    9.9211   16.8462   -0.0633 C   0  0  0  0  0  0  0  0  0  0  0  0
    9.4219   17.0349    1.1817 C   0  0  0  0  0  0  0  0  0  0  0  0
    9.0891   15.8309    1.7076 N   0  0  0  0  0  0  0  0  0  0  0  0
    8.5107   15.6088    3.0350 C   0  0  0  0  0  0  0  0  0  0  0  0
    5.3751    7.6024    1.8506 O   0  0  0  0  0  0  0  0  0  0  0  0
    3.5495    4.6018    1.8480 H   0  0  0  0  0  0  0  0  0  0  0  0
    4.6437    5.6766    2.7386 H   0  0  0  0  0  0  0  0  0  0  0  0
    5.2409    4.0261    2.2306 H   0  0  0  0  0  0  0  0  0  0  0  0
    5.2895    4.7888   -2.5066 H   0  0  0  0  0  0  0  0  0  0  0  0
    6.8157    6.6746   -3.5117 H   0  0  0  0  0  0  0  0  0  0  0  0
    6.5257    8.3205   -2.8530 H   0  0  0  0  0  0  0  0  0  0  0  0
    4.7801    8.4004   -4.0687 H   0  0  0  0  0  0  0  0  0  0  0  0
    6.4192    9.3846   -1.5219 H   0  0  0  0  0  0  0  0  0  0  0  0
    6.0416    9.1625    1.4355 H   0  0  0  0  0  0  0  0  0  0  0  0
    6.1785   11.4189   -0.5785 H   0  0  0  0  0  0  0  0  0  0  0  0
    5.6230   11.5712    1.1230 H   0  0  0  0  0  0  0  0  0  0  0  0
    7.9307   11.0866    1.9201 H   0  0  0  0  0  0  0  0  0  0  0  0
    8.4872   10.9353    0.2189 H   0  0  0  0  0  0  0  0  0  0  0  0
    7.1424   13.4966    0.6634 H   0  0  0  0  0  0  0  0  0  0  0  0
   10.2451   14.9820   -1.2520 H   0  0  0  0  0  0  0  0  0  0  0  0
   10.2752   17.6334   -0.7453 H   0  0  0  0  0  0  0  0  0  0  0  0
    9.3056   18.0066    1.6838 H   0  0  0  0  0  0  0  0  0  0  0  0
    9.1276   16.2546    3.6771 H   0  0  0  0  0  0  0  0  0  0  0  0
    8.8190   14.5775    3.2620 H   0  0  0  0  0  0  0  0  0  0  0  0
    7.4292   15.7830    3.1355 H   0  0  0  0  0  0  0  0  0  0  0  0
  1  2  1  0  0  0  0
  1 24  1  0  0  0  0
  1 25  1  0  0  0  0
  1 26  1  0  0  0  0
  2  7  2  0  0  0  0
  2  3  1  0  0  0  0
  3  4  1  0  0  0  0
  3 23  2  0  0  0  0
  4  5  1  0  0  0  0
  4 10  2  0  0  0  0
  5  6  2  0  0  0  0
  5  8  1  0  0  0  0
  6  7  1  0  0  0  0
  6 27  1  0  0  0  0
  8  9  1  0  0  0  0
  8 28  1  0  0  0  0
  8 29  1  0  0  0  0
  9 30  1  0  0  0  0
 10 11  1  0  0  0  0
 10 31  1  0  0  0  0
 11 12  1  0  0  0  0
 11 32  1  0  0  0  0
 12 13  1  0  0  0  0
 12 33  1  0  0  0  0
 12 34  1  0  0  0  0
 13 14  1  0  0  0  0
 13 35  1  0  0  0  0
 13 36  1  0  0  0  0
 14 15  1  0  0  0  0
 14 37  1  0  0  0  0
 15 16  2  0  0  0  0
 15 17  1  0  0  0  0
 17 21  1  0  0  0  0
 17 18  2  0  0  0  0
 18 19  1  0  0  0  0
 18 38  1  0  0  0  0
 19 20  2  0  0  0  0
 19 39  1  0  0  0  0
 20 21  1  0  0  0  0
 20 40  1  0  0  0  0
 21 22  1  0  0  0  0
 22 41  1  0  0  0  0
 22 42  1  0  0  0  0
 22 43  1  0  0  0  0
M  END
> <Name>
ZINC27082580

> <reference>
BDB5199

> <quality>
0.734

> <status>
decoy

> <atoms in reference ligand area>
11

> <score>
-29.831

$$$$
ZINC06425106
      BALL 1.4.0 (Jan  4 2012, 23:22:29)

 32 31  0999  0  0  0  0  0  0999 V2000
   10.2266   12.7658   -3.3297 C   0  0  0  0  0  0  0  0  0  0  0  0
   10.9687   14.1418   -2.4177 S   0  0  0  0  0  0  0  0  0  0  0  0
   11.3158   13.3420   -0.8865 C   0  0  0  0  0  0  0  0  0  0  0  0
   10.4497   12.4897   -0.3772 N   0  0  0  0  0  0  0  0  0  0  0  0
   10.7257   11.8538    0.8403 N   0  0  0  0  0  0  0  0  0  0  0  0
   11.1761   10.6408    0.8492 C   0  0  0  0  0  0  0  0  0  0  0  0
   11.4731    9.9568    2.1587 C   0  0  0  0  0  0  0  0  0  0  0  0
   12.9860    9.7919    2.3165 C   0  0  0  0  0  0  0  0  0  0  0  0
   13.2873    9.0974    3.6461 C   0  0  0  0  0  0  0  0  0  0  0  0
   14.5158    9.7420    4.2913 C   0  0  0  0  0  0  0  0  0  0  0  0
   14.1041   11.0409    4.9870 C   0  0  0  0  0  0  0  0  0  0  0  0
   14.8844   11.2149    6.1714 O   0  0  0  0  0  0  0  0  0  0  0  0
   15.0758    8.8440    5.2515 O   0  0  0  0  0  0  0  0  0  0  0  0
   12.1644    9.2328    4.5194 O   0  0  0  0  0  0  0  0  0  0  0  0
   13.4937    9.0009    1.2402 O   0  0  0  0  0  0  0  0  0  0  0  0
   10.9653   10.7477    3.2352 O   0  0  0  0  0  0  0  0  0  0  0  0
   12.8212   13.6821   -0.0363 S   0  5  0  0  0  0  0  0  0  0  0  0
   10.7109   12.5570   -4.2951 H   0  0  0  0  0  0  0  0  0  0  0  0
    9.1338   12.8365   -3.4335 H   0  0  0  0  0  0  0  0  0  0  0  0
   10.4045   11.8718   -2.7139 H   0  0  0  0  0  0  0  0  0  0  0  0
   11.3423   10.1089   -0.0992 H   0  0  0  0  0  0  0  0  0  0  0  0
   10.9929    8.9672    2.1724 H   0  0  0  0  0  0  0  0  0  0  0  0
   13.4661   10.7815    2.3027 H   0  0  0  0  0  0  0  0  0  0  0  0
   13.4852    8.0304    3.4658 H   0  0  0  0  0  0  0  0  0  0  0  0
   15.2640    9.9627    3.5157 H   0  0  0  0  0  0  0  0  0  0  0  0
   14.2740   11.8901    4.3087 H   0  0  0  0  0  0  0  0  0  0  0  0
   13.0383   10.9929    5.2546 H   0  0  0  0  0  0  0  0  0  0  0  0
   14.3576   11.7146    6.8443 H   0  0  0  0  0  0  0  0  0  0  0  0
   15.8707    9.2603    5.6698 H   0  0  0  0  0  0  0  0  0  0  0  0
   12.4397    9.7126    5.3405 H   0  0  0  0  0  0  0  0  0  0  0  0
   14.0348    9.5704    0.6375 H   0  0  0  0  0  0  0  0  0  0  0  0
   11.4198   10.4920    4.0767 H   0  0  0  0  0  0  0  0  0  0  0  0
  1  2  1  0  0  0  0
  1 18  1  0  0  0  0
  1 19  1  0  0  0  0
  1 20  1  0  0  0  0
  2  3  1  0  0  0  0
  3  4  2  0  0  0  0
  3 17  1  0  0  0  0
  4  5  1  0  0  0  0
  5  6  2  0  0  0  0
  6  7  1  0  0  0  0
  6 21  1  0  0  0  0
  7  8  1  0  0  0  0
  7 16  1  0  0  0  0
  7 22  1  0  0  0  0
  8  9  1  0  0  0  0
  8 15  1  0  0  0  0
  8 23  1  0  0  0  0
  9 10  1  0  0  0  0
  9 14  1  0  0  0  0
  9 24  1  0  0  0  0
 10 11  1  0  0  0  0
 10 13  1  0  0  0  0
 10 25  1  0  0  0  0
 11 12  1  0  0  0  0
 11 26  1  0  0  0  0
 11 27  1  0  0  0  0
 12 28  1  0  0  0  0
 13 29  1  0  0  0  0
 14 30  1  0  0  0  0
 15 31  1  0  0  0  0
 16 32  1  0  0  0  0
M  END
> <Name>
ZINC06425106

> <reference>
BDB4986

> <quality>
0.721

> <status>
decoy

> <atoms in reference ligand area>
11

> <score>
-29.6445

$$$$
ZINC04650547
      BALL 1.4.0 (Jan  4 2012, 23:22:29)

 42 43  0999  0  0  0  0  0  0999 V2000
   12.0309   12.9725    3.4522 C   0  0  0  0  0  0  0  0  0  0  0  0
   10.5613   13.1033    3.1446 C   0  0  0  0  0  0  0  0  0  0  0  0
    9.8547   13.7819    3.8508 O   0  0  0  0  0  0  0  0  0  0  0  0
    9.9736   12.3873    1.9560 C   0  0  0  0  0  0  0  0  0  0  0  0
    8.7780   13.1724    1.3929 C   0  0  0  0  0  0  0  0  0  0  0  0
    8.5518   10.4534    2.1530 N   0  0  0  0  0  0  0  0  0  0  0  0
    9.7649    9.9940    1.8222 C   0  0  0  0  0  0  0  0  0  0  0  0
   10.0358    8.8213    1.6659 O   0  0  0  0  0  0  0  0  0  0  0  0
   10.7403   11.1110    1.6775 C   0  0  0  0  0  0  0  0  0  0  0  0
   11.9101   11.0175    1.3918 O   0  0  0  0  0  0  0  0  0  0  0  0
    7.3792    9.6032    2.3734 C   0  0  0  0  0  0  0  0  0  0  0  0
    7.1593    9.4170    3.8759 C   0  0  0  0  0  0  0  0  0  0  0  0
    5.6838    8.1505    5.3187 C   0  0  0  0  0  0  0  0  0  0  0  0
    4.2295    7.7288    5.5377 C   0  0  0  0  0  0  0  0  0  0  0  0
    3.6047    8.6309    6.4529 O   0  0  0  0  0  0  0  0  0  0  0  0
    9.0238   13.5186   -0.0531 C   0  0  0  0  0  0  0  0  0  0  0  0
    9.7824   14.6297   -0.3702 C   0  0  0  0  0  0  0  0  0  0  0  0
   10.0068   14.9365   -1.7033 C   0  0  0  0  0  0  0  0  0  0  0  0
    9.4484   14.1165   -2.6722 C   0  0  0  0  0  0  0  0  0  0  0  0
    8.6968   13.0255   -2.2795 C   0  0  0  0  0  0  0  0  0  0  0  0
    8.5083   12.7611   -1.0013 N   0  0  0  0  0  0  0  0  0  0  0  0
    5.7658    8.9949    4.1119 N   0  3  0  0  0  0  0  0  0  0  0  0
   12.1987   13.6402    4.3102 H   0  0  0  0  0  0  0  0  0  0  0  0
   12.5399   13.4274    2.5896 H   0  0  0  0  0  0  0  0  0  0  0  0
   12.3633   11.9419    3.6455 H   0  0  0  0  0  0  0  0  0  0  0  0
   10.4792   14.2150    4.4852 H   0  0  0  0  0  0  0  0  0  0  0  0
    8.1650   14.0560    1.6240 H   0  0  0  0  0  0  0  0  0  0  0  0
    6.4923   10.0793    1.9299 H   0  0  0  0  0  0  0  0  0  0  0  0
    7.5425    8.6222    1.9033 H   0  0  0  0  0  0  0  0  0  0  0  0
    7.8458    8.6456    4.2551 H   0  0  0  0  0  0  0  0  0  0  0  0
    7.3479   10.3675    4.3965 H   0  0  0  0  0  0  0  0  0  0  0  0
    6.0364    8.7210    6.1906 H   0  0  0  0  0  0  0  0  0  0  0  0
    6.3105    7.2565    5.1840 H   0  0  0  0  0  0  0  0  0  0  0  0
    3.6927    7.7509    4.5778 H   0  0  0  0  0  0  0  0  0  0  0  0
    4.2004    6.7097    5.9508 H   0  0  0  0  0  0  0  0  0  0  0  0
    3.4840    9.5122    6.0185 H   0  0  0  0  0  0  0  0  0  0  0  0
   10.2028   15.2625    0.4253 H   0  0  0  0  0  0  0  0  0  0  0  0
   10.6134   15.8095   -1.9858 H   0  0  0  0  0  0  0  0  0  0  0  0
    9.6017   14.3319   -3.7400 H   0  0  0  0  0  0  0  0  0  0  0  0
    8.2506   12.3700   -3.0419 H   0  0  0  0  0  0  0  0  0  0  0  0
    5.1734    9.8280    4.2380 H   0  0  0  0  0  0  0  0  0  0  0  0
    5.4275    8.4607    3.2988 H   0  0  0  0  0  0  0  0  0  0  0  0
  1  2  1  0  0  0  0
  1 23  1  0  0  0  0
  1 24  1  0  0  0  0
  1 25  1  0  0  0  0
  2  4  2  0  0  0  0
  2  3  1  0  0  0  0
  3 26  1  0  0  0  0
  4  5  1  0  0  0  0
  4  9  1  0  0  0  0
  5  6  1  0  0  0  0
  5 16  1  0  0  0  0
  5 27  1  0  0  0  0
  6  7  1  0  0  0  0
  6 11  1  0  0  0  0
  7  8  2  0  0  0  0
  7  9  1  0  0  0  0
  9 10  2  0  0  0  0
 11 12  1  0  0  0  0
 11 28  1  0  0  0  0
 11 29  1  0  0  0  0
 12 22  1  0  0  0  0
 12 30  1  0  0  0  0
 12 31  1  0  0  0  0
 13 14  1  0  0  0  0
 13 22  1  0  0  0  0
 13 32  1  0  0  0  0
 13 33  1  0  0  0  0
 14 15  1  0  0  0  0
 14 34  1  0  0  0  0
 14 35  1  0  0  0  0
 15 36  1  0  0  0  0
 16 21  2  0  0  0  0
 16 17  1  0  0  0  0
 17 18  2  0  0  0  0
 17 37  1  0  0  0  0
 18 19  1  0  0  0  0
 18 38  1  0  0  0  0
 19 20  2  0  0  0  0
 19 39  1  0  0  0  0
 20 21  1  0  0  0  0
 20 40  1  0  0  0  0
 22 41  1  0  0  0  0
 22 42  1  0  0  0  0
M  END
> <Name>
ZINC04650547

> <reference>
BDB5219

> <quality>
0.799

> <status>
decoy

> <atoms in reference ligand area>
19

> <score>
-29.6398

$$$$
ZINC02375827
      BALL 1.4.0 (Jan  4 2012, 23:22:29)

 38 38  0999  0  0  0  0  0  0999 V2000
    9.0147   14.0328    3.3665 C   0  0  0  0  0  0  0  0  0  0  0  0
   10.1797   13.0869    3.5055 C   0  0  0  0  0  0  0  0  0  0  0  0
    9.9732   11.7346    3.5123 C   0  0  0  0  0  0  0  0  0  0  0  0
   11.1421   10.8525    3.6556 C   0  0  0  0  0  0  0  0  0  0  0  0
   11.0093    9.6429    3.6722 O   0  0  0  0  0  0  0  0  0  0  0  0
   12.3652   11.4128    3.7638 N   0  0  0  0  0  0  0  0  0  0  0  0
   12.5034   12.7500    3.7503 C   0  0  0  0  0  0  0  0  0  0  0  0
   13.6160   13.2293    3.8541 O   0  0  0  0  0  0  0  0  0  0  0  0
   11.4490   13.5718    3.6253 N   0  0  0  0  0  0  0  0  0  0  0  0
    8.6163   11.1765    3.3857 C   0  0  0  0  0  0  0  0  0  0  0  0
    8.1318   10.9076    2.2114 N   0  0  0  0  0  0  0  0  0  0  0  0
    6.8408   10.3767    2.0909 N   0  0  0  0  0  0  0  0  0  0  0  0
    6.5411    9.5608    1.0609 C   0  0  0  0  0  0  0  0  0  0  0  0
    7.3893    9.2859    0.2380 O   0  0  0  0  0  0  0  0  0  0  0  0
    5.1525    8.9897    0.9315 C   0  0  0  0  0  0  0  0  0  0  0  0
    5.0782    7.6555    1.6764 C   0  0  0  0  0  0  0  0  0  0  0  0
    5.7521    7.7960    3.0428 C   0  0  0  0  0  0  0  0  0  0  0  0
    4.6460    7.1572    4.3310 S   0  0  0  0  0  0  0  0  0  0  0  0
    4.3654    8.5840    5.4155 C   0  0  0  0  0  0  0  0  0  0  0  0
    4.8444    8.7995   -0.4969 N   0  3  0  0  0  0  0  0  0  0  0  0
    9.2894   14.9124    3.9672 H   0  0  0  0  0  0  0  0  0  0  0  0
    8.1807   13.5346    3.8826 H   0  0  0  0  0  0  0  0  0  0  0  0
    8.7723   14.2917    2.3253 H   0  0  0  0  0  0  0  0  0  0  0  0
   13.1971   10.8128    3.8572 H   0  0  0  0  0  0  0  0  0  0  0  0
   11.6019   14.5903    3.6196 H   0  0  0  0  0  0  0  0  0  0  0  0
    8.0132   10.9875    4.2860 H   0  0  0  0  0  0  0  0  0  0  0  0
    6.1208   10.6100    2.7895 H   0  0  0  0  0  0  0  0  0  0  0  0
    4.4168    9.6794    1.3709 H   0  0  0  0  0  0  0  0  0  0  0  0
    4.0247    7.3711    1.8153 H   0  0  0  0  0  0  0  0  0  0  0  0
    5.5938    6.8789    1.0923 H   0  0  0  0  0  0  0  0  0  0  0  0
    6.6910    7.2232    3.0495 H   0  0  0  0  0  0  0  0  0  0  0  0
    5.9681    8.8566    3.2391 H   0  0  0  0  0  0  0  0  0  0  0  0
    4.7095    9.5248    4.9610 H   0  0  0  0  0  0  0  0  0  0  0  0
    4.8139    8.4438    6.4101 H   0  0  0  0  0  0  0  0  0  0  0  0
    3.2786    8.6731    5.5602 H   0  0  0  0  0  0  0  0  0  0  0  0
    5.1332    7.8560   -0.7928 H   0  0  0  0  0  0  0  0  0  0  0  0
    5.3436    9.5046   -1.0577 H   0  0  0  0  0  0  0  0  0  0  0  0
    3.8304    8.9054   -0.6430 H   0  0  0  0  0  0  0  0  0  0  0  0
  1  2  1  0  0  0  0
  1 21  1  0  0  0  0
  1 22  1  0  0  0  0
  1 23  1  0  0  0  0
  2  9  1  0  0  0  0
  2  3  2  0  0  0  0
  3  4  1  0  0  0  0
  3 10  1  0  0  0  0
  4  5  2  0  0  0  0
  4  6  1  0  0  0  0
  6  7  1  0  0  0  0
  6 24  1  0  0  0  0
  7  8  2  0  0  0  0
  7  9  1  0  0  0  0
  9 25  1  0  0  0  0
 10 11  2  0  0  0  0
 10 26  1  0  0  0  0
 11 12  1  0  0  0  0
 12 13  1  0  0  0  0
 12 27  1  0  0  0  0
 13 14  2  0  0  0  0
 13 15  1  0  0  0  0
 15 16  1  0  0  0  0
 15 20  1  0  0  0  0
 15 28  1  0  0  0  0
 16 17  1  0  0  0  0
 16 29  1  0  0  0  0
 16 30  1  0  0  0  0
 17 18  1  0  0  0  0
 17 31  1  0  0  0  0
 17 32  1  0  0  0  0
 18 19  1  0  0  0  0
 19 33  1  0  0  0  0
 19 34  1  0  0  0  0
 19 35  1  0  0  0  0
 20 36  1  0  0  0  0
 20 37  1  0  0  0  0
 20 38  1  0  0  0  0
M  END
> <Name>
ZINC02375827

> <reference>
BDB5015

> <quality>
0.745

> <status>
decoy

> <atoms in reference ligand area>
13

> <score>
-29.1577

$$$$
ZINC05791983
      BALL 1.4.0 (Jan  4 2012, 23:22:29)

 51 52  0999  0  0  0  0  0  0999 V2000
    4.9327    6.7205    2.2736 C   0  0  0  0  0  0  0  0  0  0  0  0
    3.1228    7.0877    3.8397 C   0  0  0  0  0  0  0  0  0  0  0  0
    5.3706    7.7922    4.4002 C   0  0  0  0  0  0  0  0  0  0  0  0
    6.3167    8.9419    4.0479 C   0  0  0  0  0  0  0  0  0  0  0  0
    6.2879    9.1812    2.5370 C   0  0  0  0  0  0  0  0  0  0  0  0
    8.2267   10.7012    2.3321 C   0  0  0  0  0  0  0  0  0  0  0  0
    9.0368    9.6725    2.1656 C   0  0  0  0  0  0  0  0  0  0  0  0
    8.7944   12.0773    2.5664 C   0  5  0  0  0  0  0  0  0  0  0  0
    8.8282   12.8067    1.2367 C   0  0  0  0  0  0  0  0  0  0  0  0
    7.8182   12.9798    0.5888 O   0  0  0  0  0  0  0  0  0  0  0  0
   10.0247   13.2555    0.8014 N   0  0  0  0  0  0  0  0  0  0  0  0
   11.1475   13.0769    1.5067 C   0  0  0  0  0  0  0  0  0  0  0  0
   12.1800   13.5178    1.0425 O   0  0  0  0  0  0  0  0  0  0  0  0
   11.2172   12.4431    2.6828 N   0  0  0  0  0  0  0  0  0  0  0  0
   10.1239   11.9240    3.2810 C   0  0  0  0  0  0  0  0  0  0  0  0
   10.2016   11.3561    4.3492 O   0  0  0  0  0  0  0  0  0  0  0  0
   12.4633   12.3190    3.3165 C   0  0  0  0  0  0  0  0  0  0  0  0
   13.2718   13.4350    3.4830 C   0  0  0  0  0  0  0  0  0  0  0  0
   14.4975   13.3124    4.1071 C   0  0  0  0  0  0  0  0  0  0  0  0
   14.9211   12.0741    4.5672 C   0  0  0  0  0  0  0  0  0  0  0  0
   14.1158   10.9575    4.3960 C   0  0  0  0  0  0  0  0  0  0  0  0
   12.8873   11.0802    3.7775 C   0  0  0  0  0  0  0  0  0  0  0  0
   16.1281   11.9539    5.1811 O   0  0  0  0  0  0  0  0  0  0  0  0
   16.1265   11.4723    6.5266 C   0  0  0  0  0  0  0  0  0  0  0  0
    4.3905    7.6289    3.3058 N   0  3  0  0  0  0  0  0  0  0  0  0
    6.8062   10.5730    2.3008 N   0  3  0  0  0  0  0  0  0  0  0  0
    5.1218    5.7336    2.7209 H   0  0  0  0  0  0  0  0  0  0  0  0
    5.8767    7.1319    1.8869 H   0  0  0  0  0  0  0  0  0  0  0  0
    4.2099    6.6198    1.4506 H   0  0  0  0  0  0  0  0  0  0  0  0
    2.7053    6.3655    3.1227 H   0  0  0  0  0  0  0  0  0  0  0  0
    2.4083    7.9114    3.9845 H   0  0  0  0  0  0  0  0  0  0  0  0
    3.3084    6.5872    4.8015 H   0  0  0  0  0  0  0  0  0  0  0  0
    4.8414    8.0233    5.3364 H   0  0  0  0  0  0  0  0  0  0  0  0
    5.9479    6.8633    4.5187 H   0  0  0  0  0  0  0  0  0  0  0  0
    5.9943    9.8551    4.5694 H   0  0  0  0  0  0  0  0  0  0  0  0
    7.3400    8.6842    4.3581 H   0  0  0  0  0  0  0  0  0  0  0  0
    6.9377    8.4514    2.0319 H   0  0  0  0  0  0  0  0  0  0  0  0
    5.2555    9.1009    2.1659 H   0  0  0  0  0  0  0  0  0  0  0  0
   10.1264    9.8198    2.1979 H   0  0  0  0  0  0  0  0  0  0  0  0
    8.6223    8.6680    1.9947 H   0  0  0  0  0  0  0  0  0  0  0  0
   10.0747   13.7501   -0.1007 H   0  0  0  0  0  0  0  0  0  0  0  0
   12.9362   14.4169    3.1179 H   0  0  0  0  0  0  0  0  0  0  0  0
   15.1381   14.1968    4.2393 H   0  0  0  0  0  0  0  0  0  0  0  0
   14.4560    9.9742    4.7528 H   0  0  0  0  0  0  0  0  0  0  0  0
   12.2448   10.1964    3.6503 H   0  0  0  0  0  0  0  0  0  0  0  0
   15.0929   11.1649    6.7438 H   0  0  0  0  0  0  0  0  0  0  0  0
   16.3627   12.3367    7.1647 H   0  0  0  0  0  0  0  0  0  0  0  0
   16.8362   10.6467    6.6838 H   0  0  0  0  0  0  0  0  0  0  0  0
    4.2083    8.5488    2.8797 H   0  0  0  0  0  0  0  0  0  0  0  0
    6.4057   11.2009    3.0123 H   0  0  0  0  0  0  0  0  0  0  0  0
    6.4685   10.9002    1.3844 H   0  0  0  0  0  0  0  0  0  0  0  0
  1 25  1  0  0  0  0
  1 27  1  0  0  0  0
  1 28  1  0  0  0  0
  1 29  1  0  0  0  0
  2 25  1  0  0  0  0
  2 30  1  0  0  0  0
  2 31  1  0  0  0  0
  2 32  1  0  0  0  0
  3  4  1  0  0  0  0
  3 25  1  0  0  0  0
  3 33  1  0  0  0  0
  3 34  1  0  0  0  0
  4  5  1  0  0  0  0
  4 35  1  0  0  0  0
  4 36  1  0  0  0  0
  5 26  1  0  0  0  0
  5 37  1  0  0  0  0
  5 38  1  0  0  0  0
  6  7  2  0  0  0  0
  6  8  1  0  0  0  0
  6 26  1  0  0  0  0
  7 39  1  0  0  0  0
  7 40  1  0  0  0  0
  8 15  1  0  0  0  0
  8  9  1  0  0  0  0
  9 10  2  0  0  0  0
  9 11  1  0  0  0  0
 11 12  1  0  0  0  0
 11 41  1  0  0  0  0
 12 13  2  0  0  0  0
 12 14  1  0  0  0  0
 14 15  1  0  0  0  0
 14 17  1  0  0  0  0
 15 16  2  0  0  0  0
 17 22  2  0  0  0  0
 17 18  1  0  0  0  0
 18 19  2  0  0  0  0
 18 42  1  0  0  0  0
 19 20  1  0  0  0  0
 19 43  1  0  0  0  0
 20 21  2  0  0  0  0
 20 23  1  0  0  0  0
 21 22  1  0  0  0  0
 21 44  1  0  0  0  0
 22 45  1  0  0  0  0
 23 24  1  0  0  0  0
 24 46  1  0  0  0  0
 24 47  1  0  0  0  0
 24 48  1  0  0  0  0
 25 49  1  0  0  0  0
 26 50  1  0  0  0  0
 26 51  1  0  0  0  0
M  END
> <Name>
ZINC05791983

> <reference>
BDB5003

> <quality>
0.761

> <status>
decoy

> <atoms in reference ligand area>
14

> <score>
-29.1215

$$$$
ZINC01731877
      BALL 1.4.0 (Jan  4 2012, 23:22:29)

 32 32  0999  0  0  0  0  0  0999 V2000
   11.4122   13.5862    1.8360 C   0  0  0  0  0  0  0  0  0  0  0  0
   11.0018   14.5647    0.9515 C   0  0  0  0  0  0  0  0  0  0  0  0
    9.8590   15.3046    1.2187 C   0  0  0  0  0  0  0  0  0  0  0  0
    9.1310   15.0591    2.3739 C   0  0  0  0  0  0  0  0  0  0  0  0
    9.5458   14.0798    3.2553 C   0  0  0  0  0  0  0  0  0  0  0  0
   10.6851   13.3438    2.9867 C   0  0  0  0  0  0  0  0  0  0  0  0
   11.1349   12.2754    3.9497 C   0  0  0  0  0  0  0  0  0  0  0  0
   11.8620   11.1698    3.1817 C   0  0  0  0  0  0  0  0  0  0  0  0
   12.2993   10.1313    4.1179 N   0  0  0  0  0  0  0  0  0  0  0  0
   13.5991   10.1015    4.5496 C   0  0  0  0  0  0  0  0  0  0  0  0
   14.1079    8.9151    5.3272 C   0  0  0  0  0  0  0  0  0  0  0  0
   15.9102    9.0309    5.4966 S   0  0  0  0  0  0  0  0  0  0  0  0
   16.1873   10.6000    6.7866 S   0  0  0  0  0  0  0  0  0  0  0  0
   15.8479   11.7794    6.0705 O   0  0  0  0  0  0  0  0  0  0  0  0
   15.5528   10.2399    8.0061 O   0  0  0  0  0  0  0  0  0  0  0  0
   17.6783   10.6832    7.0801 O   0  5  0  0  0  0  0  0  0  0  0  0
    9.4533   16.2680    0.3502 O   0  0  0  0  0  0  0  0  0  0  0  0
   14.3514   11.1384    4.2533 N   0  3  0  0  0  0  0  0  0  0  0  0
   12.3183   12.9994    1.6246 H   0  0  0  0  0  0  0  0  0  0  0  0
   11.5805   14.7570    0.0361 H   0  0  0  0  0  0  0  0  0  0  0  0
    8.2241   15.6438    2.5877 H   0  0  0  0  0  0  0  0  0  0  0  0
    8.9692   13.8853    4.1717 H   0  0  0  0  0  0  0  0  0  0  0  0
   11.8170   12.7146    4.6925 H   0  0  0  0  0  0  0  0  0  0  0  0
   10.2594   11.8500    4.4621 H   0  0  0  0  0  0  0  0  0  0  0  0
   11.1803   10.7298    2.4391 H   0  0  0  0  0  0  0  0  0  0  0  0
   12.7385   11.5932    2.6693 H   0  0  0  0  0  0  0  0  0  0  0  0
   11.6294    9.4235    4.4516 H   0  0  0  0  0  0  0  0  0  0  0  0
   13.8494    7.9879    4.7947 H   0  0  0  0  0  0  0  0  0  0  0  0
   13.6463    8.9055    6.3256 H   0  0  0  0  0  0  0  0  0  0  0  0
    8.4741   16.1452    0.2730 H   0  0  0  0  0  0  0  0  0  0  0  0
   13.9917   11.9433    3.7209 H   0  0  0  0  0  0  0  0  0  0  0  0
   15.3324   11.1390    4.5671 H   0  0  0  0  0  0  0  0  0  0  0  0
  1  6  2  0  0  0  0
  1  2  1  0  0  0  0
  1 19  1  0  0  0  0
  2  3  2  0  0  0  0
  2 20  1  0  0  0  0
  3  4  1  0  0  0  0
  3 17  1  0  0  0  0
  4  5  2  0  0  0  0
  4 21  1  0  0  0  0
  5  6  1  0  0  0  0
  5 22  1  0  0  0  0
  6  7  1  0  0  0  0
  7  8  1  0  0  0  0
  7 23  1  0  0  0  0
  7 24  1  0  0  0  0
  8  9  1  0  0  0  0
  8 25  1  0  0  0  0
  8 26  1  0  0  0  0
  9 10  1  0  0  0  0
  9 27  1  0  0  0  0
 10 11  1  0  0  0  0
 10 18  2  0  0  0  0
 11 12  1  0  0  0  0
 11 28  1  0  0  0  0
 11 29  1  0  0  0  0
 12 13  1  0  0  0  0
 13 14  2  0  0  0  0
 13 15  2  0  0  0  0
 13 16  1  0  0  0  0
 17 30  1  0  0  0  0
 18 31  1  0  0  0  0
 18 32  1  0  0  0  0
M  END
> <Name>
ZINC01731877

> <reference>
BDB5009

> <quality>
0.768

> <status>
decoy

> <atoms in reference ligand area>
10

> <score>
-29.0237

$$$$
ZINC31819625
      BALL 1.4.0 (Jan  4 2012, 23:22:29)

 33 34  0999  0  0  0  0  0  0999 V2000
    4.6646    7.4722    5.5238 C   0  0  0  0  0  0  0  0  0  0  0  0
    5.7888    7.7694    4.5651 C   0  0  0  0  0  0  0  0  0  0  0  0
    6.7970    6.8798    4.3787 C   0  0  0  0  0  0  0  0  0  0  0  0
    7.7886    7.7545    3.1764 S   0  0  0  0  0  0  0  0  0  0  0  0
    6.7903    9.1698    3.0495 C   0  0  0  0  0  0  0  0  0  0  0  0
    5.8200    8.9006    3.8922 N   0  0  0  0  0  0  0  0  0  0  0  0
    6.9898   10.3957    2.1961 C   0  5  0  0  0  0  0  0  0  0  0  0
    5.8464   10.5484    1.2817 C   0  0  0  0  0  0  0  0  0  0  0  0
    4.9639   10.6662    0.5760 N   0  0  0  0  0  0  0  0  0  0  0  0
    8.2577   10.2489    1.3947 C   0  0  0  0  0  0  0  0  0  0  0  0
    9.0213    9.3442    1.6330 O   0  0  0  0  0  0  0  0  0  0  0  0
    8.5725   11.2311    0.2959 C   0  0  0  0  0  0  0  0  0  0  0  0
   10.3674   11.3970    0.1310 S   0  0  0  0  0  0  0  0  0  0  0  0
   10.4557   12.9424   -0.7105 C   0  0  0  0  0  0  0  0  0  0  0  0
   11.5863   13.6326   -0.6757 N   0  3  0  0  0  0  0  0  0  0  0  0
   11.6912   14.8010   -1.3045 C   0  0  0  0  0  0  0  0  0  0  0  0
   10.5903   15.3002   -1.9945 C   0  0  0  0  0  0  0  0  0  0  0  0
    9.4182   14.5497   -2.0042 C   0  0  0  0  0  0  0  0  0  0  0  0
    9.3881   13.3869   -1.3575 N   0  0  0  0  0  0  0  0  0  0  0  0
    8.2969   15.0073   -2.6788 N   0  0  0  0  0  0  0  0  0  0  0  0
   12.8795   15.5138   -1.2681 N   0  0  0  0  0  0  0  0  0  0  0  0
    4.6350    8.3381    6.2015 H   0  0  0  0  0  0  0  0  0  0  0  0
    5.0150    6.6110    6.1116 H   0  0  0  0  0  0  0  0  0  0  0  0
    3.6977    7.2849    5.0338 H   0  0  0  0  0  0  0  0  0  0  0  0
    6.9588    5.8942    4.8397 H   0  0  0  0  0  0  0  0  0  0  0  0
    8.1498   10.8684   -0.6526 H   0  0  0  0  0  0  0  0  0  0  0  0
    8.1357   12.2103    0.5416 H   0  0  0  0  0  0  0  0  0  0  0  0
   12.3937   13.2604   -0.1557 H   0  0  0  0  0  0  0  0  0  0  0  0
   10.6455   16.2650   -2.5199 H   0  0  0  0  0  0  0  0  0  0  0  0
    8.2122   16.0081   -2.9072 H   0  0  0  0  0  0  0  0  0  0  0  0
    7.5516   14.3505   -2.9508 H   0  0  0  0  0  0  0  0  0  0  0  0
   12.8682   16.5116   -1.0127 H   0  0  0  0  0  0  0  0  0  0  0  0
   13.7700   15.0488   -1.4952 H   0  0  0  0  0  0  0  0  0  0  0  0
  1  2  1  0  0  0  0
  1 22  1  0  0  0  0
  1 23  1  0  0  0  0
  1 24  1  0  0  0  0
  2  6  1  0  0  0  0
  2  3  2  0  0  0  0
  3  4  1  0  0  0  0
  3 25  1  0  0  0  0
  4  5  1  0  0  0  0
  5  6  2  0  0  0  0
  5  7  1  0  0  0  0
  7  8  1  0  0  0  0
  7 10  1  0  0  0  0
  8  9  3  0  0  0  0
 10 11  2  0  0  0  0
 10 12  1  0  0  0  0
 12 13  1  0  0  0  0
 12 26  1  0  0  0  0
 12 27  1  0  0  0  0
 13 14  1  0  0  0  0
 14 19  2  0  0  0  0
 14 15  1  0  0  0  0
 15 16  2  0  0  0  0
 15 28  1  0  0  0  0
 16 17  1  0  0  0  0
 16 21  1  0  0  0  0
 17 18  2  0  0  0  0
 17 29  1  0  0  0  0
 18 19  1  0  0  0  0
 18 20  1  0  0  0  0
 20 30  1  0  0  0  0
 20 31  1  0  0  0  0
 21 32  1  0  0  0  0
 21 33  1  0  0  0  0
M  END
> <Name>
ZINC31819625

> <reference>
BDB5199

> <quality>
0.769

> <status>
decoy

> <atoms in reference ligand area>
13

> <score>
-28.9797

$$$$
ZINC31971727
      BALL 1.4.0 (Jan  4 2012, 23:22:29)

 47 48  0999  0  0  0  0  0  0999 V2000
    9.6621   12.3713    5.2739 C   0  0  0  0  0  0  0  0  0  0  0  0
    9.8083   13.4639    4.3646 O   0  0  0  0  0  0  0  0  0  0  0  0
    9.7575   13.1733    3.0365 C   0  0  0  0  0  0  0  0  0  0  0  0
    9.5711   11.8648    2.6209 C   0  0  0  0  0  0  0  0  0  0  0  0
    9.5194   11.5679    1.2670 C   0  0  0  0  0  0  0  0  0  0  0  0
    9.6602   12.5860    0.3254 C   0  0  0  0  0  0  0  0  0  0  0  0
    9.8410   13.8960    0.7438 C   0  0  0  0  0  0  0  0  0  0  0  0
    9.8923   14.1902    2.0968 C   0  0  0  0  0  0  0  0  0  0  0  0
   10.0744   15.4747    2.5066 O   0  0  0  0  0  0  0  0  0  0  0  0
    8.9116   16.1941    2.9221 C   0  0  0  0  0  0  0  0  0  0  0  0
    9.6139   12.2868   -1.0438 N   0  0  0  0  0  0  0  0  0  0  0  0
    9.4439   13.2752   -1.9441 C   0  0  0  0  0  0  0  0  0  0  0  0
    9.2309   14.4085   -1.5678 O   0  0  0  0  0  0  0  0  0  0  0  0
    9.5184   12.9724   -3.4185 C   0  0  0  0  0  0  0  0  0  0  0  0
   10.7101   13.5351   -4.1959 C   0  0  0  0  0  0  0  0  0  0  0  0
    9.3170   14.1371   -4.3900 C   0  0  0  0  0  0  0  0  0  0  0  0
    9.3313   10.2436    0.8458 N   0  0  0  0  0  0  0  0  0  0  0  0
    8.3927    9.4761    1.4344 C   0  0  0  0  0  0  0  0  0  0  0  0
    7.7801    9.8957    2.3934 O   0  0  0  0  0  0  0  0  0  0  0  0
    8.1046    8.0964    0.9009 C   0  0  0  0  0  0  0  0  0  0  0  0
    7.0053    8.1793   -0.1601 C   0  0  0  0  0  0  0  0  0  0  0  0
    5.9392    9.1813    0.2873 C   0  0  0  0  0  0  0  0  0  0  0  0
    4.8838    9.2610   -0.7314 N   0  3  0  0  0  0  0  0  0  0  0  0
    9.9558   12.7512    6.2635 H   0  0  0  0  0  0  0  0  0  0  0  0
   10.4009   11.6152    4.9699 H   0  0  0  0  0  0  0  0  0  0  0  0
    8.6420   11.9599    5.2842 H   0  0  0  0  0  0  0  0  0  0  0  0
    9.4642   11.0614    3.3646 H   0  0  0  0  0  0  0  0  0  0  0  0
    9.9436   14.7012    0.0015 H   0  0  0  0  0  0  0  0  0  0  0  0
    8.3430   16.4177    2.0073 H   0  0  0  0  0  0  0  0  0  0  0  0
    9.2700   17.1473    3.3380 H   0  0  0  0  0  0  0  0  0  0  0  0
    8.3042   15.6370    3.6506 H   0  0  0  0  0  0  0  0  0  0  0  0
    9.7099   11.3118   -1.3614 H   0  0  0  0  0  0  0  0  0  0  0  0
    9.0704   11.9754   -3.2951 H   0  0  0  0  0  0  0  0  0  0  0  0
   10.9876   12.8829   -5.0371 H   0  0  0  0  0  0  0  0  0  0  0  0
   11.3401   14.1747   -3.5603 H   0  0  0  0  0  0  0  0  0  0  0  0
    9.2143   15.0940   -3.8573 H   0  0  0  0  0  0  0  0  0  0  0  0
    8.8610   13.8011   -5.3330 H   0  0  0  0  0  0  0  0  0  0  0  0
    9.9104    9.8575    0.0866 H   0  0  0  0  0  0  0  0  0  0  0  0
    9.0174    7.6791    0.4507 H   0  0  0  0  0  0  0  0  0  0  0  0
    7.7711    7.4463    1.7232 H   0  0  0  0  0  0  0  0  0  0  0  0
    7.4409    8.5099   -1.1145 H   0  0  0  0  0  0  0  0  0  0  0  0
    6.5448    7.1889   -0.2907 H   0  0  0  0  0  0  0  0  0  0  0  0
    6.3978   10.1726    0.4175 H   0  0  0  0  0  0  0  0  0  0  0  0
    5.5028    8.8510    1.2415 H   0  0  0  0  0  0  0  0  0  0  0  0
    5.1206    9.9933   -1.4158 H   0  0  0  0  0  0  0  0  0  0  0  0
    3.9866    9.4903   -0.2805 H   0  0  0  0  0  0  0  0  0  0  0  0
    4.8025    8.3547   -1.2141 H   0  0  0  0  0  0  0  0  0  0  0  0
  1  2  1  0  0  0  0
  1 24  1  0  0  0  0
  1 25  1  0  0  0  0
  1 26  1  0  0  0  0
  2  3  1  0  0  0  0
  3  8  2  0  0  0  0
  3  4  1  0  0  0  0
  4  5  2  0  0  0  0
  4 27  1  0  0  0  0
  5  6  1  0  0  0  0
  5 17  1  0  0  0  0
  6  7  2  0  0  0  0
  6 11  1  0  0  0  0
  7  8  1  0  0  0  0
  7 28  1  0  0  0  0
  8  9  1  0  0  0  0
  9 10  1  0  0  0  0
 10 29  1  0  0  0  0
 10 30  1  0  0  0  0
 10 31  1  0  0  0  0
 11 12  1  0  0  0  0
 11 32  1  0  0  0  0
 12 13  2  0  0  0  0
 12 14  1  0  0  0  0
 14 16  1  0  0  0  0
 14 15  1  0  0  0  0
 14 33  1  0  0  0  0
 15 16  1  0  0  0  0
 15 34  1  0  0  0  0
 15 35  1  0  0  0  0
 16 36  1  0  0  0  0
 16 37  1  0  0  0  0
 17 18  1  0  0  0  0
 17 38  1  0  0  0  0
 18 19  2  0  0  0  0
 18 20  1  0  0  0  0
 20 21  1  0  0  0  0
 20 39  1  0  0  0  0
 20 40  1  0  0  0  0
 21 22  1  0  0  0  0
 21 41  1  0  0  0  0
 21 42  1  0  0  0  0
 22 23  1  0  0  0  0
 22 43  1  0  0  0  0
 22 44  1  0  0  0  0
 23 45  1  0  0  0  0
 23 46  1  0  0  0  0
 23 47  1  0  0  0  0
M  END
> <Name>
ZINC31971727

> <reference>
BDB5023

> <quality>
0.658

> <status>
decoy

> <atoms in reference ligand area>
18

> <score>
-28.8893

$$$$
ZINC14418737
      BALL 1.4.0 (Jan  4 2012, 23:22:29)

 44 44  0999  0  0  0  0  0  0999 V2000
   12.6513   14.7127   -1.3368 C   0  0  0  0  0  0  0  0  0  0  0  0
   11.7495   13.5698   -0.9480 C   0  0  0  0  0  0  0  0  0  0  0  0
   11.7583   12.5473   -1.5916 O   0  0  0  0  0  0  0  0  0  0  0  0
   10.9362   13.6877    0.1134 O   0  0  0  0  0  0  0  0  0  0  0  0
    9.9406   12.6474    0.2998 C   0  0  0  0  0  0  0  0  0  0  0  0
    8.7511   12.9055   -0.6289 C   0  0  0  0  0  0  0  0  0  0  0  0
    7.7483   11.9127   -0.4034 O   0  0  0  0  0  0  0  0  0  0  0  0
    7.2233   11.9049    0.9257 C   0  0  0  0  0  0  0  0  0  0  0  0
    8.3514   11.6067    1.9168 C   0  0  0  0  0  0  0  0  0  0  0  0
    9.4553   12.6559    1.7526 C   0  0  0  0  0  0  0  0  0  0  0  0
    8.9302   13.9691    2.0817 O   0  0  0  0  0  0  0  0  0  0  0  0
    9.7970   14.8642    2.5809 C   0  0  0  0  0  0  0  0  0  0  0  0
   10.7442   14.4904    3.2312 O   0  0  0  0  0  0  0  0  0  0  0  0
    9.5886   16.3356    2.3302 C   0  0  0  0  0  0  0  0  0  0  0  0
    8.8937   10.2862    1.6516 O   0  0  0  0  0  0  0  0  0  0  0  0
    8.2062    9.2376    2.1309 C   0  0  0  0  0  0  0  0  0  0  0  0
    7.2913    9.4155    2.8996 O   0  0  0  0  0  0  0  0  0  0  0  0
    8.5756    7.8385    1.7099 C   0  0  0  0  0  0  0  0  0  0  0  0
    6.2151   10.8980    1.0340 O   0  0  0  0  0  0  0  0  0  0  0  0
    5.5877   10.5679   -0.2066 C   0  0  0  0  0  0  0  0  0  0  0  0
    9.2166   12.8390   -2.0848 C   0  0  0  0  0  0  0  0  0  0  0  0
    8.1335   12.2755   -2.9099 N   0  3  0  0  0  0  0  0  0  0  0  0
   12.0867   15.2919   -2.0823 H   0  0  0  0  0  0  0  0  0  0  0  0
   13.5064   14.2500   -1.8514 H   0  0  0  0  0  0  0  0  0  0  0  0
   12.9640   15.3285   -0.4806 H   0  0  0  0  0  0  0  0  0  0  0  0
   10.3883   11.6703    0.0656 H   0  0  0  0  0  0  0  0  0  0  0  0
    8.3341   13.9024   -0.4231 H   0  0  0  0  0  0  0  0  0  0  0  0
    6.7848   12.8878    1.1531 H   0  0  0  0  0  0  0  0  0  0  0  0
    7.9597   11.6393    2.9441 H   0  0  0  0  0  0  0  0  0  0  0  0
   10.2933   12.4216    2.4255 H   0  0  0  0  0  0  0  0  0  0  0  0
    9.2415   16.7446    3.2905 H   0  0  0  0  0  0  0  0  0  0  0  0
    8.7445   16.3908    1.6270 H   0  0  0  0  0  0  0  0  0  0  0  0
   10.4840   16.8513    1.9529 H   0  0  0  0  0  0  0  0  0  0  0  0
    9.0703    7.3955    2.5869 H   0  0  0  0  0  0  0  0  0  0  0  0
    9.3423    7.9654    0.9313 H   0  0  0  0  0  0  0  0  0  0  0  0
    7.7200    7.2402    1.3635 H   0  0  0  0  0  0  0  0  0  0  0  0
    5.1471    9.5656   -0.0990 H   0  0  0  0  0  0  0  0  0  0  0  0
    6.3743   10.5216   -0.9740 H   0  0  0  0  0  0  0  0  0  0  0  0
    4.8186   11.3056   -0.4794 H   0  0  0  0  0  0  0  0  0  0  0  0
    9.4601   13.8513   -2.4397 H   0  0  0  0  0  0  0  0  0  0  0  0
   10.1065   12.1966   -2.1585 H   0  0  0  0  0  0  0  0  0  0  0  0
    8.3158   11.2778   -3.0889 H   0  0  0  0  0  0  0  0  0  0  0  0
    8.0789   12.7819   -3.8051 H   0  0  0  0  0  0  0  0  0  0  0  0
    7.2385   12.3729   -2.4094 H   0  0  0  0  0  0  0  0  0  0  0  0
  1  2  1  0  0  0  0
  1 23  1  0  0  0  0
  1 24  1  0  0  0  0
  1 25  1  0  0  0  0
  2  3  2  0  0  0  0
  2  4  1  0  0  0  0
  4  5  1  0  0  0  0
  5 10  1  0  0  0  0
  5  6  1  0  0  0  0
  5 26  1  0  0  0  0
  6  7  1  0  0  0  0
  6 21  1  0  0  0  0
  6 27  1  0  0  0  0
  7  8  1  0  0  0  0
  8  9  1  0  0  0  0
  8 19  1  0  0  0  0
  8 28  1  0  0  0  0
  9 10  1  0  0  0  0
  9 15  1  0  0  0  0
  9 29  1  0  0  0  0
 10 11  1  0  0  0  0
 10 30  1  0  0  0  0
 11 12  1  0  0  0  0
 12 13  2  0  0  0  0
 12 14  1  0  0  0  0
 14 31  1  0  0  0  0
 14 32  1  0  0  0  0
 14 33  1  0  0  0  0
 15 16  1  0  0  0  0
 16 17  2  0  0  0  0
 16 18  1  0  0  0  0
 18 34  1  0  0  0  0
 18 35  1  0  0  0  0
 18 36  1  0  0  0  0
 19 20  1  0  0  0  0
 20 37  1  0  0  0  0
 20 38  1  0  0  0  0
 20 39  1  0  0  0  0
 21 22  1  0  0  0  0
 21 40  1  0  0  0  0
 21 41  1  0  0  0  0
 22 42  1  0  0  0  0
 22 43  1  0  0  0  0
 22 44  1  0  0  0  0
M  END
> <Name>
ZINC14418737

> <reference>
BDB5013

> <quality>
0.772

> <status>
decoy

> <atoms in reference ligand area>
27

> <score>
-28.871

$$$$
ZINC06086015
      BALL 1.4.0 (Jan  4 2012, 23:22:29)

 55 56  0999  0  0  0  0  0  0999 V2000
   11.3337   13.5390    3.6866 C   0  0  0  0  0  0  0  0  0  0  0  0
   11.9477   12.3697    2.9140 C   0  0  0  0  0  0  0  0  0  0  0  0
   11.0341   11.9486    1.8669 O   0  0  0  0  0  0  0  0  0  0  0  0
   10.4311   10.7539    2.0251 C   0  0  0  0  0  0  0  0  0  0  0  0
   11.0997    9.7432    2.1161 O   0  0  0  0  0  0  0  0  0  0  0  0
    8.9618   10.6732    2.0878 C   0  0  0  0  0  0  0  0  0  0  0  0
    8.1643    9.5848    1.6739 C   0  0  0  0  0  0  0  0  0  0  0  0
    6.8534    9.9386    1.9101 C   0  0  0  0  0  0  0  0  0  0  0  0
    6.8446   11.2041    2.4608 N   0  0  0  0  0  0  0  0  0  0  0  0
    8.1054   11.6481    2.5692 C   0  0  0  0  0  0  0  0  0  0  0  0
    8.5207   12.9863    3.1240 C   0  0  0  0  0  0  0  0  0  0  0  0
    5.7154    9.1411    1.6405 C   0  0  0  0  0  0  0  0  0  0  0  0
    5.1624    9.2171    0.5623 O   0  0  0  0  0  0  0  0  0  0  0  0
    5.1903    8.1975    2.6918 C   0  0  0  0  0  0  0  0  0  0  0  0
    3.3323    6.7442    3.2380 C   0  0  0  0  0  0  0  0  0  0  0  0
    2.1129    6.0241    2.6588 C   0  0  0  0  0  0  0  0  0  0  0  0
    1.5518    5.0534    3.6999 C   0  0  0  0  0  0  0  0  0  0  0  0
   -0.6350    5.3314    2.6960 C   0  0  0  0  0  0  0  0  0  0  0  0
   -1.8096    4.5760    2.0684 C   0  0  0  0  0  0  0  0  0  0  0  0
   -2.3308    3.6418    3.0176 O   0  0  0  0  0  0  0  0  0  0  0  0
   -1.3692    2.6860    3.4726 C   0  0  0  0  0  0  0  0  0  0  0  0
   -0.1902    3.4223    4.1144 C   0  0  0  0  0  0  0  0  0  0  0  0
    8.6522    8.2867    1.0842 C   0  0  0  0  0  0  0  0  0  0  0  0
    4.0086    7.4920    2.1611 N   0  3  0  0  0  0  0  0  0  0  0  0
    0.3867    4.3512    3.1197 N   0  0  0  0  0  0  0  0  0  0  0  0
   11.9352   13.7425    4.5848 H   0  0  0  0  0  0  0  0  0  0  0  0
   10.3060   13.2837    3.9843 H   0  0  0  0  0  0  0  0  0  0  0  0
   11.3176   14.4338    3.0470 H   0  0  0  0  0  0  0  0  0  0  0  0
   12.8996   12.6873    2.4635 H   0  0  0  0  0  0  0  0  0  0  0  0
   12.1291   11.5299    3.6008 H   0  0  0  0  0  0  0  0  0  0  0  0
    6.0025   11.7252    2.7439 H   0  0  0  0  0  0  0  0  0  0  0  0
    9.4668   12.7526    3.6342 H   0  0  0  0  0  0  0  0  0  0  0  0
    7.7829   13.1559    3.9220 H   0  0  0  0  0  0  0  0  0  0  0  0
    8.5951   13.8124    2.4014 H   0  0  0  0  0  0  0  0  0  0  0  0
    5.9693    7.4654    2.9507 H   0  0  0  0  0  0  0  0  0  0  0  0
    4.9055    8.7669    3.5889 H   0  0  0  0  0  0  0  0  0  0  0  0
    3.0079    7.4434    4.0227 H   0  0  0  0  0  0  0  0  0  0  0  0
    4.0276    6.0065    3.6649 H   0  0  0  0  0  0  0  0  0  0  0  0
    1.3421    6.7628    2.3941 H   0  0  0  0  0  0  0  0  0  0  0  0
    2.4091    5.4647    1.7592 H   0  0  0  0  0  0  0  0  0  0  0  0
    2.3245    4.3199    3.9736 H   0  0  0  0  0  0  0  0  0  0  0  0
    1.2366    5.6121    4.5936 H   0  0  0  0  0  0  0  0  0  0  0  0
   -0.9857    5.8987    3.5707 H   0  0  0  0  0  0  0  0  0  0  0  0
   -0.2009    6.0189    1.9552 H   0  0  0  0  0  0  0  0  0  0  0  0
   -2.5971    5.2904    1.7864 H   0  0  0  0  0  0  0  0  0  0  0  0
   -1.4646    4.0361    1.1743 H   0  0  0  0  0  0  0  0  0  0  0  0
   -1.8346    2.0215    4.2153 H   0  0  0  0  0  0  0  0  0  0  0  0
   -1.0094    2.0911    2.6201 H   0  0  0  0  0  0  0  0  0  0  0  0
   -0.5420    3.9904    4.9881 H   0  0  0  0  0  0  0  0  0  0  0  0
    0.5744    2.6951    4.4256 H   0  0  0  0  0  0  0  0  0  0  0  0
    9.7315    8.4710    0.9794 H   0  0  0  0  0  0  0  0  0  0  0  0
    8.2460    8.3290    0.0628 H   0  0  0  0  0  0  0  0  0  0  0  0
    8.4023    7.3660    1.6318 H   0  0  0  0  0  0  0  0  0  0  0  0
    3.3535    8.1777    1.7591 H   0  0  0  0  0  0  0  0  0  0  0  0
    4.3040    6.8357    1.4243 H   0  0  0  0  0  0  0  0  0  0  0  0
  1  2  1  0  0  0  0
  1 26  1  0  0  0  0
  1 27  1  0  0  0  0
  1 28  1  0  0  0  0
  2  3  1  0  0  0  0
  2 29  1  0  0  0  0
  2 30  1  0  0  0  0
  3  4  1  0  0  0  0
  4  5  2  0  0  0  0
  4  6  1  0  0  0  0
  6 10  2  0  0  0  0
  6  7  1  0  0  0  0
  7  8  2  0  0  0  0
  7 23  1  0  0  0  0
  8  9  1  0  0  0  0
  8 12  1  0  0  0  0
  9 10  1  0  0  0  0
  9 31  1  0  0  0  0
 10 11  1  0  0  0  0
 11 32  1  0  0  0  0
 11 33  1  0  0  0  0
 11 34  1  0  0  0  0
 12 13  2  0  0  0  0
 12 14  1  0  0  0  0
 14 24  1  0  0  0  0
 14 35  1  0  0  0  0
 14 36  1  0  0  0  0
 15 16  1  0  0  0  0
 15 24  1  0  0  0  0
 15 37  1  0  0  0  0
 15 38  1  0  0  0  0
 16 17  1  0  0  0  0
 16 39  1  0  0  0  0
 16 40  1  0  0  0  0
 17 25  1  0  0  0  0
 17 41  1  0  0  0  0
 17 42  1  0  0  0  0
 18 19  1  0  0  0  0
 18 25  1  0  0  0  0
 18 43  1  0  0  0  0
 18 44  1  0  0  0  0
 19 20  1  0  0  0  0
 19 45  1  0  0  0  0
 19 46  1  0  0  0  0
 20 21  1  0  0  0  0
 21 22  1  0  0  0  0
 21 47  1  0  0  0  0
 21 48  1  0  0  0  0
 22 25  1  0  0  0  0
 22 49  1  0  0  0  0
 22 50  1  0  0  0  0
 23 51  1  0  0  0  0
 23 52  1  0  0  0  0
 23 53  1  0  0  0  0
 24 54  1  0  0  0  0
 24 55  1  0  0  0  0
M  END
> <Name>
ZINC06086015

> <reference>
BDB4997

> <quality>
0.683

> <status>
decoy

> <atoms in reference ligand area>
16

> <score>
-28.7252

$$$$
ZINC22791525
      BALL 1.4.0 (Jan  4 2012, 23:22:29)

 46 47  0999  0  0  0  0  0  0999 V2000
    8.3967    8.2056    4.6243 C   0  0  0  0  0  0  0  0  0  0  0  0
    9.2255    8.4684    3.4902 O   0  0  0  0  0  0  0  0  0  0  0  0
    9.6161    9.7556    3.2966 C   0  0  0  0  0  0  0  0  0  0  0  0
   10.7912   10.2188    3.8718 C   0  0  0  0  0  0  0  0  0  0  0  0
   11.1921   11.5255    3.6701 C   0  0  0  0  0  0  0  0  0  0  0  0
   10.4181   12.3778    2.9058 C   0  0  0  0  0  0  0  0  0  0  0  0
    9.2396   11.9212    2.3334 C   0  0  0  0  0  0  0  0  0  0  0  0
    8.8384   10.6084    2.5291 C   0  0  0  0  0  0  0  0  0  0  0  0
    8.4794   12.7596    1.5811 O   0  0  0  0  0  0  0  0  0  0  0  0
    7.9786   13.9336    2.2236 C   0  0  0  0  0  0  0  0  0  0  0  0
   10.9287   14.0459    2.6575 S   0  0  0  0  0  0  0  0  0  0  0  0
    9.8856   14.8691    3.1612 O   0  0  0  0  0  0  0  0  0  0  0  0
   12.2658   14.1359    3.1300 O   0  0  0  0  0  0  0  0  0  0  0  0
   10.9861   14.3022    1.0225 N   0  0  0  0  0  0  0  0  0  0  0  0
   11.5103   13.2706    0.1146 C   0  0  0  0  0  0  0  0  0  0  0  0
   10.4793   13.0421   -1.0021 C   0  0  0  0  0  0  0  0  0  0  0  0
   10.1629   14.3271   -1.6396 N   0  0  0  0  0  0  0  0  0  0  0  0
    9.5333   15.2531   -0.6888 C   0  0  0  0  0  0  0  0  0  0  0  0
   10.5198   15.5698    0.4402 C   0  0  0  0  0  0  0  0  0  0  0  0
    9.3163   14.1328   -2.8243 C   0  0  0  0  0  0  0  0  0  0  0  0
   10.0038   13.1646   -3.7892 C   0  0  0  0  0  0  0  0  0  0  0  0
    9.0036   12.2579   -4.3685 N   0  3  0  0  0  0  0  0  0  0  0  0
    7.3886    8.0074    4.2314 H   0  0  0  0  0  0  0  0  0  0  0  0
    8.3562    9.1413    5.2012 H   0  0  0  0  0  0  0  0  0  0  0  0
    8.7650    7.3684    5.2355 H   0  0  0  0  0  0  0  0  0  0  0  0
   11.4039    9.5450    4.4888 H   0  0  0  0  0  0  0  0  0  0  0  0
   12.1288   11.8879    4.1186 H   0  0  0  0  0  0  0  0  0  0  0  0
    7.9045   10.2444    2.0761 H   0  0  0  0  0  0  0  0  0  0  0  0
    6.8839   13.8988    2.1216 H   0  0  0  0  0  0  0  0  0  0  0  0
    8.3452   14.7881    1.6359 H   0  0  0  0  0  0  0  0  0  0  0  0
    8.2852   14.0055    3.2776 H   0  0  0  0  0  0  0  0  0  0  0  0
   11.6670   12.3334    0.6690 H   0  0  0  0  0  0  0  0  0  0  0  0
   12.4597   13.6115   -0.3241 H   0  0  0  0  0  0  0  0  0  0  0  0
   10.8964   12.3536   -1.7517 H   0  0  0  0  0  0  0  0  0  0  0  0
    9.5628   12.6097   -0.5742 H   0  0  0  0  0  0  0  0  0  0  0  0
    9.2601   16.1834   -1.2083 H   0  0  0  0  0  0  0  0  0  0  0  0
    8.6300   14.7889   -0.2662 H   0  0  0  0  0  0  0  0  0  0  0  0
   10.0152   16.1679    1.2133 H   0  0  0  0  0  0  0  0  0  0  0  0
   11.3763   16.1282    0.0347 H   0  0  0  0  0  0  0  0  0  0  0  0
    8.3457   13.7161   -2.5172 H   0  0  0  0  0  0  0  0  0  0  0  0
    9.1585   15.0989   -3.3260 H   0  0  0  0  0  0  0  0  0  0  0  0
   10.4919   13.7336   -4.5941 H   0  0  0  0  0  0  0  0  0  0  0  0
   10.7586   12.5775   -3.2455 H   0  0  0  0  0  0  0  0  0  0  0  0
    9.2103   12.1097   -5.3666 H   0  0  0  0  0  0  0  0  0  0  0  0
    8.0657   12.6720   -4.2704 H   0  0  0  0  0  0  0  0  0  0  0  0
    9.0320   11.3541   -3.8752 H   0  0  0  0  0  0  0  0  0  0  0  0
  1  2  1  0  0  0  0
  1 23  1  0  0  0  0
  1 24  1  0  0  0  0
  1 25  1  0  0  0  0
  2  3  1  0  0  0  0
  3  8  2  0  0  0  0
  3  4  1  0  0  0  0
  4  5  2  0  0  0  0
  4 26  1  0  0  0  0
  5  6  1  0  0  0  0
  5 27  1  0  0  0  0
  6  7  2  0  0  0  0
  6 11  1  0  0  0  0
  7  8  1  0  0  0  0
  7  9  1  0  0  0  0
  8 28  1  0  0  0  0
  9 10  1  0  0  0  0
 10 29  1  0  0  0  0
 10 30  1  0  0  0  0
 10 31  1  0  0  0  0
 11 12  2  0  0  0  0
 11 13  2  0  0  0  0
 11 14  1  0  0  0  0
 14 19  1  0  0  0  0
 14 15  1  0  0  0  0
 15 16  1  0  0  0  0
 15 32  1  0  0  0  0
 15 33  1  0  0  0  0
 16 17  1  0  0  0  0
 16 34  1  0  0  0  0
 16 35  1  0  0  0  0
 17 18  1  0  0  0  0
 17 20  1  0  0  0  0
 18 19  1  0  0  0  0
 18 36  1  0  0  0  0
 18 37  1  0  0  0  0
 19 38  1  0  0  0  0
 19 39  1  0  0  0  0
 20 21  1  0  0  0  0
 20 40  1  0  0  0  0
 20 41  1  0  0  0  0
 21 22  1  0  0  0  0
 21 42  1  0  0  0  0
 21 43  1  0  0  0  0
 22 44  1  0  0  0  0
 22 45  1  0  0  0  0
 22 46  1  0  0  0  0
M  END
> <Name>
ZINC22791525

> <reference>
BDB5219

> <quality>
0.755

> <status>
decoy

> <atoms in reference ligand area>
27

> <score>
-28.665

$$$$
ZINC18153419
      BALL 1.4.0 (Jan  4 2012, 23:22:29)

 40 42  0999  0  0  0  0  0  0999 V2000
    9.1588   13.5804    3.2843 C   0  0  0  0  0  0  0  0  0  0  0  0
   10.4663   14.1426    3.1566 O   0  0  0  0  0  0  0  0  0  0  0  0
   11.4340   13.5697    4.0383 C   0  0  0  0  0  0  0  0  0  0  0  0
   11.5574   12.0711    3.7556 C   0  0  0  0  0  0  0  0  0  0  0  0
   10.7344   11.7237    2.5944 N   0  0  0  0  0  0  0  0  0  0  0  0
    9.6530   10.8980    2.6010 C   0  0  0  0  0  0  0  0  0  0  0  0
    9.1233   10.2240    3.7224 C   0  0  0  0  0  0  0  0  0  0  0  0
    9.6568   10.1747    5.0198 C   0  0  0  0  0  0  0  0  0  0  0  0
    8.8786    9.4482    5.7885 N   0  0  0  0  0  0  0  0  0  0  0  0
    7.8138    8.9695    5.1234 C   0  0  0  0  0  0  0  0  0  0  0  0
    7.8939    9.4220    3.7849 C   0  0  0  0  0  0  0  0  0  0  0  0
    6.9077    9.0685    2.8676 C   0  0  0  0  0  0  0  0  0  0  0  0
    5.8632    8.2825    3.2674 C   0  0  0  0  0  0  0  0  0  0  0  0
    5.7777    7.8342    4.5802 C   0  0  0  0  0  0  0  0  0  0  0  0
    6.7294    8.1651    5.5000 C   0  0  0  0  0  0  0  0  0  0  0  0
    9.1843   10.8373    1.3397 N   0  0  0  0  0  0  0  0  0  0  0  0
    9.9999   11.6572    0.5481 N   0  0  0  0  0  0  0  0  0  0  0  0
   10.9209   12.1751    1.3113 C   0  0  0  0  0  0  0  0  0  0  0  0
   12.1946   13.2723    0.7836 S   0  0  0  0  0  0  0  0  0  0  0  0
   11.2603   14.3058   -0.3718 C   0  0  0  0  0  0  0  0  0  0  0  0
   11.7091   14.0158   -1.7810 C   0  0  0  0  0  0  0  0  0  0  0  0
   11.8349   14.9229   -2.5761 O   0  0  0  0  0  0  0  0  0  0  0  0
   11.9709   12.7483   -2.1574 N   0  0  0  0  0  0  0  0  0  0  0  0
    9.2465   12.6738    3.9011 H   0  0  0  0  0  0  0  0  0  0  0  0
    8.8247   13.2860    2.2784 H   0  0  0  0  0  0  0  0  0  0  0  0
    8.4544   14.2940    3.7366 H   0  0  0  0  0  0  0  0  0  0  0  0
   11.1166   13.7205    5.0807 H   0  0  0  0  0  0  0  0  0  0  0  0
   12.4085   14.0541    3.8779 H   0  0  0  0  0  0  0  0  0  0  0  0
   12.6084   11.8225    3.5469 H   0  0  0  0  0  0  0  0  0  0  0  0
   11.2130   11.5020    4.6316 H   0  0  0  0  0  0  0  0  0  0  0  0
   10.5848   10.6690    5.3431 H   0  0  0  0  0  0  0  0  0  0  0  0
    6.9688    9.4198    1.8270 H   0  0  0  0  0  0  0  0  0  0  0  0
    5.0835    8.0024    2.5438 H   0  0  0  0  0  0  0  0  0  0  0  0
    4.9294    7.2027    4.8823 H   0  0  0  0  0  0  0  0  0  0  0  0
    6.6460    7.8015    6.5348 H   0  0  0  0  0  0  0  0  0  0  0  0
    8.3748   10.2887    1.0162 H   0  0  0  0  0  0  0  0  0  0  0  0
   11.4378   15.3668   -0.1423 H   0  0  0  0  0  0  0  0  0  0  0  0
   10.1870   14.0844   -0.2764 H   0  0  0  0  0  0  0  0  0  0  0  0
   12.5894   12.1578   -1.5832 H   0  0  0  0  0  0  0  0  0  0  0  0
   11.5525   12.3703   -3.0194 H   0  0  0  0  0  0  0  0  0  0  0  0
  1  2  1  0  0  0  0
  1 24  1  0  0  0  0
  1 25  1  0  0  0  0
  1 26  1  0  0  0  0
  2  3  1  0  0  0  0
  3  4  1  0  0  0  0
  3 27  1  0  0  0  0
  3 28  1  0  0  0  0
  4  5  1  0  0  0  0
  4 29  1  0  0  0  0
  4 30  1  0  0  0  0
  5 18  1  0  0  0  0
  5  6  1  0  0  0  0
  6  7  2  0  0  0  0
  6 16  1  0  0  0  0
  7 11  1  0  0  0  0
  7  8  1  0  0  0  0
  8  9  2  0  0  0  0
  8 31  1  0  0  0  0
  9 10  1  0  0  0  0
 10 15  2  0  0  0  0
 10 11  1  0  0  0  0
 11 12  2  0  0  0  0
 12 13  1  0  0  0  0
 12 32  1  0  0  0  0
 13 14  2  0  0  0  0
 13 33  1  0  0  0  0
 14 15  1  0  0  0  0
 14 34  1  0  0  0  0
 15 35  1  0  0  0  0
 16 17  1  0  0  0  0
 16 36  1  0  0  0  0
 17 18  2  0  0  0  0
 18 19  1  0  0  0  0
 19 20  1  0  0  0  0
 20 21  1  0  0  0  0
 20 37  1  0  0  0  0
 20 38  1  0  0  0  0
 21 22  2  0  0  0  0
 21 23  1  0  0  0  0
 23 39  1  0  0  0  0
 23 40  1  0  0  0  0
M  END
> <Name>
ZINC18153419

> <reference>
BDB5198

> <quality>
0.742

> <status>
decoy

> <atoms in reference ligand area>
18

> <score>
-28.6375

$$$$
ZINC17480998
      BALL 1.4.0 (Jan  4 2012, 23:22:29)

 51 53  0999  0  0  0  0  0  0999 V2000
   10.2944   12.6610   -3.8175 C   0  0  0  0  0  0  0  0  0  0  0  0
    9.7505   13.3496   -2.6896 O   0  0  0  0  0  0  0  0  0  0  0  0
   10.4698   13.3098   -1.5365 C   0  0  0  0  0  0  0  0  0  0  0  0
   11.7581   13.8194   -1.5035 C   0  0  0  0  0  0  0  0  0  0  0  0
   12.4877   13.7785   -0.3302 C   0  0  0  0  0  0  0  0  0  0  0  0
   11.9360   13.2296    0.8127 C   0  0  0  0  0  0  0  0  0  0  0  0
   10.6517   12.7198    0.7880 C   0  0  0  0  0  0  0  0  0  0  0  0
    9.9133   12.7577   -0.3854 C   0  0  0  0  0  0  0  0  0  0  0  0
    8.6089   12.2402   -0.4130 N   0  0  0  0  0  0  0  0  0  0  0  0
    8.3452   11.0938    0.2492 C   0  0  0  0  0  0  0  0  0  0  0  0
    9.2117   10.5085    0.8628 O   0  0  0  0  0  0  0  0  0  0  0  0
    6.9233   10.5671    0.2006 C   0  0  0  0  0  0  0  0  0  0  0  0
    5.9324   11.3861   -0.6049 C   0  0  0  0  0  0  0  0  0  0  0  0
    4.7732   11.0462   -0.7082 O   0  0  0  0  0  0  0  0  0  0  0  0
    6.3893   12.5066   -1.2029 N   0  0  0  0  0  0  0  0  0  0  0  0
    7.6653   12.8950   -1.0992 C   0  0  0  0  0  0  0  0  0  0  0  0
    7.9909   13.9171   -1.6694 O   0  0  0  0  0  0  0  0  0  0  0  0
    6.9624    9.1762   -0.3781 C   0  0  0  0  0  0  0  0  0  0  0  0
    6.2678    6.8374   -0.2830 C   0  0  0  0  0  0  0  0  0  0  0  0
    6.4443    5.8793    0.8966 C   0  0  0  0  0  0  0  0  0  0  0  0
    4.8998    7.0167    2.3751 C   0  0  0  0  0  0  0  0  0  0  0  0
    3.5990    6.8531    3.1644 C   0  0  0  0  0  0  0  0  0  0  0  0
    2.7603    5.3428    1.4691 C   0  0  0  0  0  0  0  0  0  0  0  0
    4.0613    5.5064    0.6797 C   0  0  0  0  0  0  0  0  0  0  0  0
    6.2718    8.2461    0.2418 N   0  0  0  0  0  0  0  0  0  0  0  0
    5.1641    5.7689    1.6280 N   0  0  0  0  0  0  0  0  0  0  0  0
    2.4890    6.5749    2.2334 N   0  3  0  0  0  0  0  0  0  0  0  0
   11.3764   12.5781   -3.6370 H   0  0  0  0  0  0  0  0  0  0  0  0
   10.1466   13.3221   -4.6841 H   0  0  0  0  0  0  0  0  0  0  0  0
    9.8336   11.6750   -3.9768 H   0  0  0  0  0  0  0  0  0  0  0  0
   12.2000   14.2564   -2.4111 H   0  0  0  0  0  0  0  0  0  0  0  0
   13.5101   14.1837   -0.3057 H   0  0  0  0  0  0  0  0  0  0  0  0
   12.5207   13.1986    1.7439 H   0  0  0  0  0  0  0  0  0  0  0  0
   10.2152   12.2841    1.6989 H   0  0  0  0  0  0  0  0  0  0  0  0
    6.5593   10.6094    1.2377 H   0  0  0  0  0  0  0  0  0  0  0  0
    5.7360   13.0798   -1.7557 H   0  0  0  0  0  0  0  0  0  0  0  0
    7.5453    8.9489   -1.2829 H   0  0  0  0  0  0  0  0  0  0  0  0
    5.3103    6.6340   -0.7849 H   0  0  0  0  0  0  0  0  0  0  0  0
    7.0979    6.7060   -0.9926 H   0  0  0  0  0  0  0  0  0  0  0  0
    7.2208    6.2665    1.5728 H   0  0  0  0  0  0  0  0  0  0  0  0
    6.7406    4.8878    0.5237 H   0  0  0  0  0  0  0  0  0  0  0  0
    4.7993    7.8541    1.6689 H   0  0  0  0  0  0  0  0  0  0  0  0
    5.7306    7.2129    3.0689 H   0  0  0  0  0  0  0  0  0  0  0  0
    3.3872    7.7785    3.7200 H   0  0  0  0  0  0  0  0  0  0  0  0
    3.7019    6.0168    3.8716 H   0  0  0  0  0  0  0  0  0  0  0  0
    1.9302    5.1539    0.7726 H   0  0  0  0  0  0  0  0  0  0  0  0
    2.8558    4.4951    2.1636 H   0  0  0  0  0  0  0  0  0  0  0  0
    3.9664    6.3522   -0.0172 H   0  0  0  0  0  0  0  0  0  0  0  0
    4.2703    4.5836    0.1187 H   0  0  0  0  0  0  0  0  0  0  0  0
    1.6159    6.4594    2.7676 H   0  0  0  0  0  0  0  0  0  0  0  0
    2.3834    7.3645    1.5806 H   0  0  0  0  0  0  0  0  0  0  0  0
  1  2  1  0  0  0  0
  1 28  1  0  0  0  0
  1 29  1  0  0  0  0
  1 30  1  0  0  0  0
  2  3  1  0  0  0  0
  3  8  2  0  0  0  0
  3  4  1  0  0  0  0
  4  5  2  0  0  0  0
  4 31  1  0  0  0  0
  5  6  1  0  0  0  0
  5 32  1  0  0  0  0
  6  7  2  0  0  0  0
  6 33  1  0  0  0  0
  7  8  1  0  0  0  0
  7 34  1  0  0  0  0
  8  9  1  0  0  0  0
  9 16  1  0  0  0  0
  9 10  1  0  0  0  0
 10 11  2  0  0  0  0
 10 12  1  0  0  0  0
 12 13  1  0  0  0  0
 12 18  1  0  0  0  0
 12 35  1  0  0  0  0
 13 14  2  0  0  0  0
 13 15  1  0  0  0  0
 15 16  1  0  0  0  0
 15 36  1  0  0  0  0
 16 17  2  0  0  0  0
 18 25  2  0  0  0  0
 18 37  1  0  0  0  0
 19 20  1  0  0  0  0
 19 25  1  0  0  0  0
 19 38  1  0  0  0  0
 19 39  1  0  0  0  0
 20 26  1  0  0  0  0
 20 40  1  0  0  0  0
 20 41  1  0  0  0  0
 21 22  1  0  0  0  0
 21 26  1  0  0  0  0
 21 42  1  0  0  0  0
 21 43  1  0  0  0  0
 22 27  1  0  0  0  0
 22 44  1  0  0  0  0
 22 45  1  0  0  0  0
 23 24  1  0  0  0  0
 23 27  1  0  0  0  0
 23 46  1  0  0  0  0
 23 47  1  0  0  0  0
 24 26  1  0  0  0  0
 24 48  1  0  0  0  0
 24 49  1  0  0  0  0
 27 50  1  0  0  0  0
 27 51  1  0  0  0  0
M  END
> <Name>
ZINC17480998

> <reference>
BDB4952

> <quality>
0.787

> <status>
decoy

> <atoms in reference ligand area>
23

> <score>
-28.5673

$$$$
ZINC10254186
      BALL 1.4.0 (Jan  4 2012, 23:22:29)

 42 43  0999  0  0  0  0  0  0999 V2000
    4.2063    6.1060   -3.4418 C   0  0  0  0  0  0  0  0  0  0  0  0
    3.2516    6.4301   -1.2403 C   0  0  0  0  0  0  0  0  0  0  0  0
    5.3293    7.5237   -1.8320 C   0  0  0  0  0  0  0  0  0  0  0  0
    5.1179    8.2890   -0.5240 C   0  0  0  0  0  0  0  0  0  0  0  0
    6.4091    8.7681   -0.0244 N   0  0  0  0  0  0  0  0  0  0  0  0
    6.8681    9.9795   -0.3963 C   0  0  0  0  0  0  0  0  0  0  0  0
    6.2118   10.6734   -1.1450 O   0  0  0  0  0  0  0  0  0  0  0  0
    8.1844   10.4677    0.1129 C   0  0  0  0  0  0  0  0  0  0  0  0
    8.7554    9.8630    0.9968 O   0  0  0  0  0  0  0  0  0  0  0  0
    8.7384   11.5799   -0.4091 N   0  0  0  0  0  0  0  0  0  0  0  0
    9.9967   11.9906    0.0090 C   0  0  0  0  0  0  0  0  0  0  0  0
   10.5731   11.8481    1.3517 C   0  0  0  0  0  0  0  0  0  0  0  0
   10.1128   11.3087    2.5534 C   0  0  0  0  0  0  0  0  0  0  0  0
   10.9169   11.3306    3.6584 C   0  0  0  0  0  0  0  0  0  0  0  0
   12.1871   11.8859    3.5919 C   0  0  0  0  0  0  0  0  0  0  0  0
   12.6593   12.4240    2.4144 C   0  0  0  0  0  0  0  0  0  0  0  0
   11.8584   12.4125    1.2777 C   0  0  0  0  0  0  0  0  0  0  0  0
   12.0416   12.8579    0.0189 O   0  0  0  0  0  0  0  0  0  0  0  0
   10.9542   12.6121   -0.7453 C   0  0  0  0  0  0  0  0  0  0  0  0
   10.8197   12.9617   -2.1588 C   0  0  0  0  0  0  0  0  0  0  0  0
   11.6099   13.7321   -2.6731 O   0  0  0  0  0  0  0  0  0  0  0  0
    9.8211   12.4314   -2.8921 N   0  0  0  0  0  0  0  0  0  0  0  0
    4.0166    7.0657   -2.3337 N   0  3  0  0  0  0  0  0  0  0  0  0
    4.5991    5.1602   -3.0404 H   0  0  0  0  0  0  0  0  0  0  0  0
    4.9248    6.5214   -4.1636 H   0  0  0  0  0  0  0  0  0  0  0  0
    3.2445    5.9224   -3.9431 H   0  0  0  0  0  0  0  0  0  0  0  0
    3.3135    5.3365   -1.3412 H   0  0  0  0  0  0  0  0  0  0  0  0
    2.1989    6.7425   -1.3036 H   0  0  0  0  0  0  0  0  0  0  0  0
    3.6687    6.7348   -0.2691 H   0  0  0  0  0  0  0  0  0  0  0  0
    5.9773    6.6538   -1.6502 H   0  0  0  0  0  0  0  0  0  0  0  0
    5.7963    8.1866   -2.5753 H   0  0  0  0  0  0  0  0  0  0  0  0
    4.4539    9.1473   -0.7044 H   0  0  0  0  0  0  0  0  0  0  0  0
    4.6612    7.6225    0.2224 H   0  0  0  0  0  0  0  0  0  0  0  0
    6.9661    8.1791    0.6111 H   0  0  0  0  0  0  0  0  0  0  0  0
    8.2280   12.1253   -1.1184 H   0  0  0  0  0  0  0  0  0  0  0  0
    9.1069   10.8674    2.6111 H   0  0  0  0  0  0  0  0  0  0  0  0
   10.5550   10.9057    4.6062 H   0  0  0  0  0  0  0  0  0  0  0  0
   12.8239   11.8966    4.4887 H   0  0  0  0  0  0  0  0  0  0  0  0
   13.6676   12.8617    2.3738 H   0  0  0  0  0  0  0  0  0  0  0  0
    9.5577   11.4437   -2.7657 H   0  0  0  0  0  0  0  0  0  0  0  0
    9.3212   13.0137   -3.5791 H   0  0  0  0  0  0  0  0  0  0  0  0
    3.4892    7.8790   -2.6821 H   0  0  0  0  0  0  0  0  0  0  0  0
  1 23  1  0  0  0  0
  1 24  1  0  0  0  0
  1 25  1  0  0  0  0
  1 26  1  0  0  0  0
  2 23  1  0  0  0  0
  2 27  1  0  0  0  0
  2 28  1  0  0  0  0
  2 29  1  0  0  0  0
  3  4  1  0  0  0  0
  3 23  1  0  0  0  0
  3 30  1  0  0  0  0
  3 31  1  0  0  0  0
  4  5  1  0  0  0  0
  4 32  1  0  0  0  0
  4 33  1  0  0  0  0
  5  6  1  0  0  0  0
  5 34  1  0  0  0  0
  6  7  2  0  0  0  0
  6  8  1  0  0  0  0
  8  9  2  0  0  0  0
  8 10  1  0  0  0  0
 10 11  1  0  0  0  0
 10 35  1  0  0  0  0
 11 19  2  0  0  0  0
 11 12  1  0  0  0  0
 12 17  1  0  0  0  0
 12 13  2  0  0  0  0
 13 14  1  0  0  0  0
 13 36  1  0  0  0  0
 14 15  2  0  0  0  0
 14 37  1  0  0  0  0
 15 16  1  0  0  0  0
 15 38  1  0  0  0  0
 16 17  2  0  0  0  0
 16 39  1  0  0  0  0
 17 18  1  0  0  0  0
 18 19  1  0  0  0  0
 19 20  1  0  0  0  0
 20 21  2  0  0  0  0
 20 22  1  0  0  0  0
 22 40  1  0  0  0  0
 22 41  1  0  0  0  0
 23 42  1  0  0  0  0
M  END
> <Name>
ZINC10254186

> <reference>
BDB5228

> <quality>
0.699

> <status>
decoy

> <atoms in reference ligand area>
19

> <score>
-28.5351

$$$$
ZINC06495501
      BALL 1.4.0 (Jan  4 2012, 23:22:29)

 34 34  0999  0  0  0  0  0  0999 V2000
   10.7852    9.0723    7.6938 C   0  0  0  0  0  0  0  0  0  0  0  0
   11.2027    8.2015    8.6818 C   0  0  0  0  0  0  0  0  0  0  0  0
   10.7016    6.8986    8.6974 C   0  0  0  0  0  0  0  0  0  0  0  0
    9.8245    6.4952    7.7837 N   0  0  0  0  0  0  0  0  0  0  0  0
    9.3992    7.2958    6.8321 C   0  0  0  0  0  0  0  0  0  0  0  0
    9.8601    8.6122    6.7478 C   0  0  0  0  0  0  0  0  0  0  0  0
    9.3786    9.5068    5.6748 C   0  0  0  0  0  0  0  0  0  0  0  0
    8.2617    9.3611    5.2175 O   0  0  0  0  0  0  0  0  0  0  0  0
   10.1778   10.4842    5.2029 N   0  0  0  0  0  0  0  0  0  0  0  0
    9.7004   11.3710    4.1391 C   0  0  0  0  0  0  0  0  0  0  0  0
    8.7060   10.6166    3.2542 C   0  0  0  0  0  0  0  0  0  0  0  0
    7.6718   10.7330    1.0680 C   0  0  0  0  0  0  0  0  0  0  0  0
    6.3563   10.0912    1.5132 C   0  0  0  0  0  0  0  0  0  0  0  0
    5.3944   11.1133    1.7815 O   0  0  0  0  0  0  0  0  0  0  0  0
   11.1469    5.9587    9.7457 C   0  0  0  0  0  0  0  0  0  0  0  0
   11.9998    6.3429   10.6385 N   0  0  0  0  0  0  0  0  0  0  0  0
   12.4268    5.4416   11.6437 O   0  5  0  0  0  0  0  0  0  0  0  0
    8.2304   11.5162    2.1862 N   0  3  0  0  0  0  0  0  0  0  0  0
   11.1698   10.1020    7.6511 H   0  0  0  0  0  0  0  0  0  0  0  0
   11.9213    8.5309    9.4468 H   0  0  0  0  0  0  0  0  0  0  0  0
    8.6726    6.9255    6.0939 H   0  0  0  0  0  0  0  0  0  0  0  0
   11.1242   10.6075    5.5904 H   0  0  0  0  0  0  0  0  0  0  0  0
    9.2035   12.2450    4.5855 H   0  0  0  0  0  0  0  0  0  0  0  0
   10.5525   11.7055    3.5292 H   0  0  0  0  0  0  0  0  0  0  0  0
    9.2024    9.7438    2.8050 H   0  0  0  0  0  0  0  0  0  0  0  0
    7.8512   10.2837    3.8612 H   0  0  0  0  0  0  0  0  0  0  0  0
    8.3847    9.9470    0.7782 H   0  0  0  0  0  0  0  0  0  0  0  0
    7.4862   11.3976    0.2113 H   0  0  0  0  0  0  0  0  0  0  0  0
    5.9798    9.4346    0.7150 H   0  0  0  0  0  0  0  0  0  0  0  0
    6.5257    9.4998    2.4251 H   0  0  0  0  0  0  0  0  0  0  0  0
    5.5608   11.4969    2.6788 H   0  0  0  0  0  0  0  0  0  0  0  0
   10.7531    4.9318    9.7670 H   0  0  0  0  0  0  0  0  0  0  0  0
    7.5018   12.1389    2.5636 H   0  0  0  0  0  0  0  0  0  0  0  0
    9.0166   12.0864    1.8434 H   0  0  0  0  0  0  0  0  0  0  0  0
  1  6  2  0  0  0  0
  1  2  1  0  0  0  0
  1 19  1  0  0  0  0
  2  3  2  0  0  0  0
  2 20  1  0  0  0  0
  3  4  1  0  0  0  0
  3 15  1  0  0  0  0
  4  5  2  0  0  0  0
  5  6  1  0  0  0  0
  5 21  1  0  0  0  0
  6  7  1  0  0  0  0
  7  8  2  0  0  0  0
  7  9  1  0  0  0  0
  9 10  1  0  0  0  0
  9 22  1  0  0  0  0
 10 11  1  0  0  0  0
 10 23  1  0  0  0  0
 10 24  1  0  0  0  0
 11 18  1  0  0  0  0
 11 25  1  0  0  0  0
 11 26  1  0  0  0  0
 12 13  1  0  0  0  0
 12 18  1  0  0  0  0
 12 27  1  0  0  0  0
 12 28  1  0  0  0  0
 13 14  1  0  0  0  0
 13 29  1  0  0  0  0
 13 30  1  0  0  0  0
 14 31  1  0  0  0  0
 15 16  2  0  0  0  0
 15 32  1  0  0  0  0
 16 17  1  0  0  0  0
 18 33  1  0  0  0  0
 18 34  1  0  0  0  0
M  END
> <Name>
ZINC06495501

> <reference>
BDB5021

> <quality>
0.648

> <status>
decoy

> <atoms in reference ligand area>
11

> <score>
-28.5218

$$$$
ZINC03766761
      BALL 1.4.0 (Jan  4 2012, 23:22:29)

 37 39  0999  0  0  0  0  0  0999 V2000
    0.4044    8.0808    6.1244 C   0  0  0  0  0  0  0  0  0  0  0  0
    1.2521    7.9490    4.9816 O   0  0  0  0  0  0  0  0  0  0  0  0
    2.3950    7.2312    5.1407 C   0  0  0  0  0  0  0  0  0  0  0  0
    2.3540    5.8440    5.1085 C   0  0  0  0  0  0  0  0  0  0  0  0
    3.5151    5.1127    5.2700 C   0  0  0  0  0  0  0  0  0  0  0  0
    4.7205    5.7591    5.4646 C   0  0  0  0  0  0  0  0  0  0  0  0
    4.7676    7.1472    5.4981 C   0  0  0  0  0  0  0  0  0  0  0  0
    3.6013    7.8834    5.3408 C   0  0  0  0  0  0  0  0  0  0  0  0
    5.9872    7.8016    5.6959 N   0  0  0  0  0  0  0  0  0  0  0  0
    6.5190    8.5487    4.7082 C   0  0  0  0  0  0  0  0  0  0  0  0
    5.8975    8.7245    3.6756 O   0  0  0  0  0  0  0  0  0  0  0  0
    7.8009    9.1294    4.8712 C   0  0  0  0  0  0  0  0  0  0  0  0
    8.4050   10.0760    4.0395 C   0  0  0  0  0  0  0  0  0  0  0  0
    7.9997   10.6867    2.9143 N   0  0  0  0  0  0  0  0  0  0  0  0
    8.7451   11.5431    2.3091 N   0  0  0  0  0  0  0  0  0  0  0  0
    9.9585   11.8580    2.7817 C   0  0  0  0  0  0  0  0  0  0  0  0
   10.4263   11.2418    3.9498 C   0  0  0  0  0  0  0  0  0  0  0  0
    9.6254   10.3490    4.5739 N   0  3  0  0  0  0  0  0  0  0  0  0
    9.7867    9.6260    5.6701 C   0  0  0  0  0  0  0  0  0  0  0  0
    8.7035    8.8745    5.8836 N   0  5  0  0  0  0  0  0  0  0  0  0
   11.6672   11.5418    4.4523 N   0  0  0  0  0  0  0  0  0  0  0  0
   10.7962   12.8394    2.0760 C   0  0  0  0  0  0  0  0  0  0  0  0
   10.5319   13.1527    0.9305 O   0  0  0  0  0  0  0  0  0  0  0  0
   11.8566   13.3915    2.6981 N   0  0  0  0  0  0  0  0  0  0  0  0
   -0.0728    9.0684    6.0432 H   0  0  0  0  0  0  0  0  0  0  0  0
    1.0681    8.0978    7.0015 H   0  0  0  0  0  0  0  0  0  0  0  0
   -0.3412    7.2752    6.1962 H   0  0  0  0  0  0  0  0  0  0  0  0
    1.3958    5.3263    4.9543 H   0  0  0  0  0  0  0  0  0  0  0  0
    3.4797    4.0136    5.2436 H   0  0  0  0  0  0  0  0  0  0  0  0
    5.6434    5.1745    5.5930 H   0  0  0  0  0  0  0  0  0  0  0  0
    3.6345    8.9823    5.3748 H   0  0  0  0  0  0  0  0  0  0  0  0
    6.4792    7.7128    6.5965 H   0  0  0  0  0  0  0  0  0  0  0  0
   10.6806    9.6415    6.3109 H   0  0  0  0  0  0  0  0  0  0  0  0
   11.9312   11.2002    5.3875 H   0  0  0  0  0  0  0  0  0  0  0  0
   12.3307   12.1040    3.9003 H   0  0  0  0  0  0  0  0  0  0  0  0
   12.6881   12.8197    2.9039 H   0  0  0  0  0  0  0  0  0  0  0  0
   11.8354   14.3854    2.9678 H   0  0  0  0  0  0  0  0  0  0  0  0
  1  2  1  0  0  0  0
  1 25  1  0  0  0  0
  1 26  1  0  0  0  0
  1 27  1  0  0  0  0
  2  3  1  0  0  0  0
  3  8  2  0  0  0  0
  3  4  1  0  0  0  0
  4  5  2  0  0  0  0
  4 28  1  0  0  0  0
  5  6  1  0  0  0  0
  5 29  1  0  0  0  0
  6  7  2  0  0  0  0
  6 30  1  0  0  0  0
  7  8  1  0  0  0  0
  7  9  1  0  0  0  0
  8 31  1  0  0  0  0
  9 10  1  0  0  0  0
  9 32  1  0  0  0  0
 10 11  2  0  0  0  0
 10 12  1  0  0  0  0
 12 20  1  0  0  0  0
 12 13  2  0  0  0  0
 13 18  1  0  0  0  0
 13 14  1  0  0  0  0
 14 15  2  0  0  0  0
 15 16  1  0  0  0  0
 16 17  2  0  0  0  0
 16 22  1  0  0  0  0
 17 18  1  0  0  0  0
 17 21  1  0  0  0  0
 18 19  2  0  0  0  0
 19 20  1  0  0  0  0
 19 33  1  0  0  0  0
 21 34  1  0  0  0  0
 21 35  1  0  0  0  0
 22 23  2  0  0  0  0
 22 24  1  0  0  0  0
 24 36  1  0  0  0  0
 24 37  1  0  0  0  0
M  END
> <Name>
ZINC03766761

> <reference>
BDB4932

> <quality>
0.790

> <status>
decoy

> <atoms in reference ligand area>
10

> <score>
-28.4167

$$$$
ZINC00389806
      BALL 1.4.0 (Jan  4 2012, 23:22:29)

 26 26  0999  0  0  0  0  0  0999 V2000
    7.2567   11.5108   -0.8150 C   0  0  0  0  0  0  0  0  0  0  0  0
    8.4408   12.1354   -1.1371 C   0  0  0  0  0  0  0  0  0  0  0  0
    9.1912   12.7595   -0.1475 C   0  0  0  0  0  0  0  0  0  0  0  0
    8.7527   12.7515    1.1719 C   0  0  0  0  0  0  0  0  0  0  0  0
    7.5733   12.1241    1.5035 C   0  0  0  0  0  0  0  0  0  0  0  0
    6.8156   11.4946    0.5112 C   0  0  0  0  0  0  0  0  0  0  0  0
    5.5513   10.8212    0.8618 C   0  0  0  0  0  0  0  0  0  0  0  0
    5.2558   10.6531    2.0284 O   0  0  0  0  0  0  0  0  0  0  0  0
    9.5703   13.4303    2.2405 C   0  0  0  0  0  0  0  0  0  0  0  0
   11.6181   13.1506    3.5017 C   0  0  0  0  0  0  0  0  0  0  0  0
   13.1088   13.0498    3.3046 C   0  0  0  0  0  0  0  0  0  0  0  0
   13.8461   13.0503    4.2618 O   0  0  0  0  0  0  0  0  0  0  0  0
   10.3547   13.3788   -0.4701 O   0  0  0  0  0  0  0  0  0  0  0  0
    4.7239   10.3924   -0.1114 O   0  5  0  0  0  0  0  0  0  0  0  0
   10.9418   12.8879    2.2174 N   0  3  0  0  0  0  0  0  0  0  0  0
   13.6174   12.9593    2.0657 O   0  5  0  0  0  0  0  0  0  0  0  0
    6.6587   11.0252   -1.6003 H   0  0  0  0  0  0  0  0  0  0  0  0
    8.7934   12.1404   -2.1791 H   0  0  0  0  0  0  0  0  0  0  0  0
    7.2273   12.1180    2.5476 H   0  0  0  0  0  0  0  0  0  0  0  0
    9.6005   14.5129    2.0482 H   0  0  0  0  0  0  0  0  0  0  0  0
    9.1181   13.2425    3.2255 H   0  0  0  0  0  0  0  0  0  0  0  0
   11.2946   12.4077    4.2457 H   0  0  0  0  0  0  0  0  0  0  0  0
   11.3601   14.1609    3.8522 H   0  0  0  0  0  0  0  0  0  0  0  0
   10.2636   14.2969   -0.1109 H   0  0  0  0  0  0  0  0  0  0  0  0
   10.9044   11.8717    2.0536 H   0  0  0  0  0  0  0  0  0  0  0  0
   11.4731   13.3327    1.4554 H   0  0  0  0  0  0  0  0  0  0  0  0
  1  6  2  0  0  0  0
  1  2  1  0  0  0  0
  1 17  1  0  0  0  0
  2  3  2  0  0  0  0
  2 18  1  0  0  0  0
  3  4  1  0  0  0  0
  3 13  1  0  0  0  0
  4  5  2  0  0  0  0
  4  9  1  0  0  0  0
  5  6  1  0  0  0  0
  5 19  1  0  0  0  0
  6  7  1  0  0  0  0
  7  8  2  0  0  0  0
  7 14  1  0  0  0  0
  9 15  1  0  0  0  0
  9 20  1  0  0  0  0
  9 21  1  0  0  0  0
 10 11  1  0  0  0  0
 10 15  1  0  0  0  0
 10 22  1  0  0  0  0
 10 23  1  0  0  0  0
 11 12  2  0  0  0  0
 11 16  1  0  0  0  0
 13 24  1  0  0  0  0
 15 25  1  0  0  0  0
 15 26  1  0  0  0  0
M  END
> <Name>
ZINC00389806

> <reference>
BDB4937

> <quality>
0.745

> <status>
decoy

> <atoms in reference ligand area>
22

> <score>
-28.3144

$$$$
ZINC29829504
      BALL 1.4.0 (Jan  4 2012, 23:22:29)

 41 43  0999  0  0  0  0  0  0999 V2000
    7.6375   12.3841    0.9264 C   0  0  0  0  0  0  0  0  0  0  0  0
    7.2257   11.1154    1.2791 C   0  0  0  0  0  0  0  0  0  0  0  0
    7.5957   10.5834    2.5152 C   0  0  0  0  0  0  0  0  0  0  0  0
    8.3811   11.3397    3.3867 C   0  0  0  0  0  0  0  0  0  0  0  0
    8.7858   12.6071    3.0220 C   0  0  0  0  0  0  0  0  0  0  0  0
    8.4155   13.1285    1.7951 C   0  0  0  0  0  0  0  0  0  0  0  0
    8.8621   14.5135    1.4030 C   0  0  0  0  0  0  0  0  0  0  0  0
    9.0423   15.5324    2.8880 S   0  0  0  0  0  0  0  0  0  0  0  0
    9.5569   17.0506    2.1568 C   0  0  0  0  0  0  0  0  0  0  0  0
    9.7408   17.2765    0.8378 N   0  5  0  0  0  0  0  0  0  0  0  0
   10.1538   18.6133    0.7199 N   0  0  0  0  0  0  0  0  0  0  0  0
   10.1911   19.1096    1.9273 C   0  0  0  0  0  0  0  0  0  0  0  0
    9.8307   18.1669    2.7987 N   0  0  0  0  0  0  0  0  0  0  0  0
    7.1576    9.2248    2.8999 C   0  0  0  0  0  0  0  0  0  0  0  0
    7.8475    8.2628    2.6241 O   0  0  0  0  0  0  0  0  0  0  0  0
    5.9932    9.0529    3.5566 N   0  0  0  0  0  0  0  0  0  0  0  0
    5.5591    7.7066    3.9379 C   0  0  0  0  0  0  0  0  0  0  0  0
    4.2158    7.7908    4.6654 C   0  0  0  0  0  0  0  0  0  0  0  0
    3.2772    6.8368    4.0697 N   0  0  0  0  0  0  0  0  0  0  0  0
    1.9835    6.7316    4.5672 C   0  0  0  0  0  0  0  0  0  0  0  0
    1.0292    5.9847    3.8796 C   0  0  0  0  0  0  0  0  0  0  0  0
   -0.1974    5.8873    4.3556 N   0  0  0  0  0  0  0  0  0  0  0  0
   -0.5212    6.4972    5.4837 C   0  0  0  0  0  0  0  0  0  0  0  0
    0.4225    7.2383    6.1686 C   0  0  0  0  0  0  0  0  0  0  0  0
    1.6554    7.3375    5.7008 N   0  0  0  0  0  0  0  0  0  0  0  0
    7.3466   12.8046   -0.0475 H   0  0  0  0  0  0  0  0  0  0  0  0
    6.6070   10.5245    0.5875 H   0  0  0  0  0  0  0  0  0  0  0  0
    8.6767   10.9259    4.3621 H   0  0  0  0  0  0  0  0  0  0  0  0
    9.4042   13.2044    3.7081 H   0  0  0  0  0  0  0  0  0  0  0  0
    9.8284   14.4533    0.8809 H   0  0  0  0  0  0  0  0  0  0  0  0
    8.1130   14.9667    0.7371 H   0  0  0  0  0  0  0  0  0  0  0  0
   10.4746   20.1408    2.1844 H   0  0  0  0  0  0  0  0  0  0  0  0
    5.4086    9.8680    3.7904 H   0  0  0  0  0  0  0  0  0  0  0  0
    5.4486    7.0875    3.0354 H   0  0  0  0  0  0  0  0  0  0  0  0
    6.3082    7.2536    4.6039 H   0  0  0  0  0  0  0  0  0  0  0  0
    4.3588    7.5484    5.7288 H   0  0  0  0  0  0  0  0  0  0  0  0
    3.8107    8.8093    4.5727 H   0  0  0  0  0  0  0  0  0  0  0  0
    3.5758    6.2438    3.2822 H   0  0  0  0  0  0  0  0  0  0  0  0
    1.2979    5.4772    2.9414 H   0  0  0  0  0  0  0  0  0  0  0  0
   -1.5449    6.4142    5.8778 H   0  0  0  0  0  0  0  0  0  0  0  0
    0.1478    7.7467    7.1045 H   0  0  0  0  0  0  0  0  0  0  0  0
  1  6  2  0  0  0  0
  1  2  1  0  0  0  0
  1 26  1  0  0  0  0
  2  3  2  0  0  0  0
  2 27  1  0  0  0  0
  3  4  1  0  0  0  0
  3 14  1  0  0  0  0
  4  5  2  0  0  0  0
  4 28  1  0  0  0  0
  5  6  1  0  0  0  0
  5 29  1  0  0  0  0
  6  7  1  0  0  0  0
  7  8  1  0  0  0  0
  7 30  1  0  0  0  0
  7 31  1  0  0  0  0
  8  9  1  0  0  0  0
  9 13  2  0  0  0  0
  9 10  1  0  0  0  0
 10 11  1  0  0  0  0
 11 12  2  0  0  0  0
 12 13  1  0  0  0  0
 12 32  1  0  0  0  0
 14 15  2  0  0  0  0
 14 16  1  0  0  0  0
 16 17  1  0  0  0  0
 16 33  1  0  0  0  0
 17 18  1  0  0  0  0
 17 34  1  0  0  0  0
 17 35  1  0  0  0  0
 18 19  1  0  0  0  0
 18 36  1  0  0  0  0
 18 37  1  0  0  0  0
 19 20  1  0  0  0  0
 19 38  1  0  0  0  0
 20 25  2  0  0  0  0
 20 21  1  0  0  0  0
 21 22  2  0  0  0  0
 21 39  1  0  0  0  0
 22 23  1  0  0  0  0
 23 24  2  0  0  0  0
 23 40  1  0  0  0  0
 24 25  1  0  0  0  0
 24 41  1  0  0  0  0
M  END
> <Name>
ZINC29829504

> <reference>
BDB5003

> <quality>
0.677

> <status>
decoy

> <atoms in reference ligand area>
12

> <score>
-28.2878

$$$$
ZINC05063166
      BALL 1.4.0 (Jan  4 2012, 23:22:29)

 46 47  0999  0  0  0  0  0  0999 V2000
   11.7825   15.5707   -2.3342 C   0  0  0  0  0  0  0  0  0  0  0  0
   10.7560   15.6673   -1.2038 C   0  0  0  0  0  0  0  0  0  0  0  0
   11.1630   14.7290   -0.0649 C   0  0  0  0  0  0  0  0  0  0  0  0
   11.2386   13.2974   -0.5844 C   0  0  0  0  0  0  0  0  0  0  0  0
   12.2401   13.1904   -1.7290 C   0  0  0  0  0  0  0  0  0  0  0  0
   11.8285   14.1349   -2.8611 C   0  0  0  0  0  0  0  0  0  0  0  0
   11.6127   12.3508    0.5330 C   0  0  0  0  0  0  0  0  0  0  0  0
   12.6326   12.3555    1.1884 O   0  0  0  0  0  0  0  0  0  0  0  0
   10.5726   11.4991    0.6472 N   0  0  0  0  0  0  0  0  0  0  0  0
    9.6095   11.7755   -0.2405 C   0  0  0  0  0  0  0  0  0  0  0  0
    8.5758   11.1433   -0.3350 O   0  0  0  0  0  0  0  0  0  0  0  0
    9.9131   12.8349   -1.0148 N   0  5  0  0  0  0  0  0  0  0  0  0
   10.5080   10.4039    1.6180 C   0  0  0  0  0  0  0  0  0  0  0  0
   11.7868   10.3908    2.4579 C   0  0  0  0  0  0  0  0  0  0  0  0
   10.4269   10.7987    4.4192 C   0  0  0  0  0  0  0  0  0  0  0  0
    9.5750   12.0124    4.7961 C   0  0  0  0  0  0  0  0  0  0  0  0
   10.2503   13.2089    4.4033 O   0  0  0  0  0  0  0  0  0  0  0  0
   12.8054   11.2477    4.4804 C   0  0  0  0  0  0  0  0  0  0  0  0
   13.3806   12.6643    4.5347 C   0  0  0  0  0  0  0  0  0  0  0  0
   12.3125   13.6134    4.5123 O   0  0  0  0  0  0  0  0  0  0  0  0
   11.5922   11.2614    3.6363 N   0  3  0  0  0  0  0  0  0  0  0  0
   11.4952   16.2522   -3.1484 H   0  0  0  0  0  0  0  0  0  0  0  0
   12.7747   15.8534   -1.9527 H   0  0  0  0  0  0  0  0  0  0  0  0
   10.7176   16.7013   -0.8304 H   0  0  0  0  0  0  0  0  0  0  0  0
    9.7646   15.3762   -1.5812 H   0  0  0  0  0  0  0  0  0  0  0  0
   12.1472   15.0296    0.3237 H   0  0  0  0  0  0  0  0  0  0  0  0
   10.4181   14.7862    0.7424 H   0  0  0  0  0  0  0  0  0  0  0  0
   12.2600   12.1566   -2.1044 H   0  0  0  0  0  0  0  0  0  0  0  0
   13.2413   13.4675   -1.3671 H   0  0  0  0  0  0  0  0  0  0  0  0
   12.5607   14.0666   -3.6792 H   0  0  0  0  0  0  0  0  0  0  0  0
   10.8339   13.8487   -3.2336 H   0  0  0  0  0  0  0  0  0  0  0  0
   10.4099    9.4461    1.0858 H   0  0  0  0  0  0  0  0  0  0  0  0
    9.6389   10.5482    2.2765 H   0  0  0  0  0  0  0  0  0  0  0  0
   12.6273   10.7680    1.8569 H   0  0  0  0  0  0  0  0  0  0  0  0
   11.9987    9.3638    2.7903 H   0  0  0  0  0  0  0  0  0  0  0  0
   10.7742   10.2943    5.3330 H   0  0  0  0  0  0  0  0  0  0  0  0
    9.8296   10.1018    3.8129 H   0  0  0  0  0  0  0  0  0  0  0  0
    8.6048   11.9536    4.2810 H   0  0  0  0  0  0  0  0  0  0  0  0
    9.4125   12.0242    5.8840 H   0  0  0  0  0  0  0  0  0  0  0  0
    9.8861   13.9765    4.9114 H   0  0  0  0  0  0  0  0  0  0  0  0
   12.5434   10.9160    5.4960 H   0  0  0  0  0  0  0  0  0  0  0  0
   13.5492   10.5642    4.0449 H   0  0  0  0  0  0  0  0  0  0  0  0
   13.9618   12.7890    5.4603 H   0  0  0  0  0  0  0  0  0  0  0  0
   14.0348   12.8292    3.6659 H   0  0  0  0  0  0  0  0  0  0  0  0
   12.6679   14.5163    4.7084 H   0  0  0  0  0  0  0  0  0  0  0  0
   11.4187   12.2247    3.3155 H   0  0  0  0  0  0  0  0  0  0  0  0
  1  6  1  0  0  0  0
  1  2  1  0  0  0  0
  1 22  1  0  0  0  0
  1 23  1  0  0  0  0
  2  3  1  0  0  0  0
  2 24  1  0  0  0  0
  2 25  1  0  0  0  0
  3  4  1  0  0  0  0
  3 26  1  0  0  0  0
  3 27  1  0  0  0  0
  4 12  1  0  0  0  0
  4  5  1  0  0  0  0
  4  7  1  0  0  0  0
  5  6  1  0  0  0  0
  5 28  1  0  0  0  0
  5 29  1  0  0  0  0
  6 30  1  0  0  0  0
  6 31  1  0  0  0  0
  7  8  2  0  0  0  0
  7  9  1  0  0  0  0
  9 10  1  0  0  0  0
  9 13  1  0  0  0  0
 10 11  2  0  0  0  0
 10 12  1  0  0  0  0
 13 14  1  0  0  0  0
 13 32  1  0  0  0  0
 13 33  1  0  0  0  0
 14 21  1  0  0  0  0
 14 34  1  0  0  0  0
 14 35  1  0  0  0  0
 15 16  1  0  0  0  0
 15 21  1  0  0  0  0
 15 36  1  0  0  0  0
 15 37  1  0  0  0  0
 16 17  1  0  0  0  0
 16 38  1  0  0  0  0
 16 39  1  0  0  0  0
 17 40  1  0  0  0  0
 18 19  1  0  0  0  0
 18 21  1  0  0  0  0
 18 41  1  0  0  0  0
 18 42  1  0  0  0  0
 19 20  1  0  0  0  0
 19 43  1  0  0  0  0
 19 44  1  0  0  0  0
 20 45  1  0  0  0  0
 21 46  1  0  0  0  0
M  END
> <Name>
ZINC05063166

> <reference>
BDB4986

> <quality>
0.749

> <status>
decoy

> <atoms in reference ligand area>
18

> <score>
-28.2707

$$$$
ZINC20573659
      BALL 1.4.0 (Jan  4 2012, 23:22:29)

 65 68  0999  0  0  0  0  0  0999 V2000
    8.1555   14.1165    3.2558 C   0  0  0  0  0  0  0  0  0  0  0  0
    8.5124   12.9655    2.4877 O   0  0  0  0  0  0  0  0  0  0  0  0
    9.7928   12.8987    2.0340 C   0  0  0  0  0  0  0  0  0  0  0  0
   10.6056   11.8465    2.4125 C   0  0  0  0  0  0  0  0  0  0  0  0
   11.9207   11.7785    1.9461 C   0  0  0  0  0  0  0  0  0  0  0  0
   12.4125   12.7774    1.1023 C   0  0  0  0  0  0  0  0  0  0  0  0
   11.5941   13.8247    0.7226 C   0  0  0  0  0  0  0  0  0  0  0  0
   10.2839   13.8904    1.1892 C   0  0  0  0  0  0  0  0  0  0  0  0
    9.4831   14.9240    0.8190 O   0  0  0  0  0  0  0  0  0  0  0  0
    9.8595   15.6487   -0.3536 C   0  0  0  0  0  0  0  0  0  0  0  0
   12.0707   14.7945   -0.1033 O   0  0  0  0  0  0  0  0  0  0  0  0
   12.7204   14.3648   -1.3014 C   0  0  0  0  0  0  0  0  0  0  0  0
   12.7909   10.6564    2.3490 C   0  0  0  0  0  0  0  0  0  0  0  0
   12.9658    9.7208    1.5925 O   0  0  0  0  0  0  0  0  0  0  0  0
   13.3916   10.6690    3.5554 N   0  0  0  0  0  0  0  0  0  0  0  0
   14.2553    9.5552    3.9553 C   0  0  0  0  0  0  0  0  0  0  0  0
   15.1812   10.0084    5.0858 C   0  0  0  0  0  0  0  0  0  0  0  0
   15.1191    9.0130    6.2156 C   0  0  0  0  0  0  0  0  0  0  0  0
   14.4045    8.0373    6.1254 O   0  0  0  0  0  0  0  0  0  0  0  0
   15.8575    9.2072    7.3262 N   0  0  0  0  0  0  0  0  0  0  0  0
   16.5273    8.0786    7.9867 C   0  0  0  0  0  0  0  0  0  0  0  0
   18.0154    8.4096    8.1402 C   0  0  0  0  0  0  0  0  0  0  0  0
   18.1651    9.7458    8.8679 C   0  0  0  0  0  0  0  0  0  0  0  0
   17.5021   10.8568    8.0529 C   0  0  0  0  0  0  0  0  0  0  0  0
   16.0086   10.5517    7.8992 C   0  0  0  0  0  0  0  0  0  0  0  0
   19.6271   10.0598    9.0569 C   0  0  0  0  0  0  0  0  0  0  0  0
   20.1388   10.5365   10.2150 C   0  0  0  0  0  0  0  0  0  0  0  0
   21.4746   10.6965   10.0274 N   0  0  0  0  0  0  0  0  0  0  0  0
   21.7437   10.3144    8.7567 C   0  0  0  0  0  0  0  0  0  0  0  0
   20.6293    9.9354    8.1857 N   0  0  0  0  0  0  0  0  0  0  0  0
   19.3060   10.8109   11.4405 C   0  0  0  0  0  0  0  0  0  0  0  0
   17.8320   10.8430   11.0118 C   0  0  0  0  0  0  0  0  0  0  0  0
   17.5307    9.6605   10.1926 N   0  3  0  0  0  0  0  0  0  0  0  0
    8.5313   14.9881    2.6998 H   0  0  0  0  0  0  0  0  0  0  0  0
    8.7205   14.0474    4.1971 H   0  0  0  0  0  0  0  0  0  0  0  0
    7.0729   14.1878    3.4374 H   0  0  0  0  0  0  0  0  0  0  0  0
   10.2172   11.0634    3.0803 H   0  0  0  0  0  0  0  0  0  0  0  0
   13.4502   12.7307    0.7404 H   0  0  0  0  0  0  0  0  0  0  0  0
    9.4599   16.6661   -0.2299 H   0  0  0  0  0  0  0  0  0  0  0  0
    9.3273   15.1770   -1.1928 H   0  0  0  0  0  0  0  0  0  0  0  0
   10.9472   15.6577   -0.5173 H   0  0  0  0  0  0  0  0  0  0  0  0
   13.3615   13.5170   -1.0184 H   0  0  0  0  0  0  0  0  0  0  0  0
   13.3741   15.1929   -1.6127 H   0  0  0  0  0  0  0  0  0  0  0  0
   12.0103   14.0887   -2.0949 H   0  0  0  0  0  0  0  0  0  0  0  0
   13.2435   11.4616    4.1961 H   0  0  0  0  0  0  0  0  0  0  0  0
   13.6347    8.7167    4.3043 H   0  0  0  0  0  0  0  0  0  0  0  0
   14.8595    9.2311    3.0952 H   0  0  0  0  0  0  0  0  0  0  0  0
   14.8611   10.9957    5.4500 H   0  0  0  0  0  0  0  0  0  0  0  0
   16.2134   10.0728    4.7109 H   0  0  0  0  0  0  0  0  0  0  0  0
   16.4138    7.1718    7.3745 H   0  0  0  0  0  0  0  0  0  0  0  0
   16.0825    7.9157    8.9794 H   0  0  0  0  0  0  0  0  0  0  0  0
   18.4812    8.4798    7.1462 H   0  0  0  0  0  0  0  0  0  0  0  0
   18.5094    7.6179    8.7225 H   0  0  0  0  0  0  0  0  0  0  0  0
   17.6281   11.8182    8.5723 H   0  0  0  0  0  0  0  0  0  0  0  0
   17.9688   10.9123    7.0584 H   0  0  0  0  0  0  0  0  0  0  0  0
   15.5491   11.2924    7.2280 H   0  0  0  0  0  0  0  0  0  0  0  0
   15.5223   10.5903    8.8850 H   0  0  0  0  0  0  0  0  0  0  0  0
   22.1536   11.0428   10.7202 H   0  0  0  0  0  0  0  0  0  0  0  0
   22.7361   10.3213    8.2825 H   0  0  0  0  0  0  0  0  0  0  0  0
   19.5870   11.7835   11.8708 H   0  0  0  0  0  0  0  0  0  0  0  0
   19.4588   10.0105   12.1795 H   0  0  0  0  0  0  0  0  0  0  0  0
   17.1903   10.8422   11.9052 H   0  0  0  0  0  0  0  0  0  0  0  0
   17.6399   11.7530   10.4245 H   0  0  0  0  0  0  0  0  0  0  0  0
   16.5104    9.5821   10.0749 H   0  0  0  0  0  0  0  0  0  0  0  0
   17.8707    8.8181   10.6780 H   0  0  0  0  0  0  0  0  0  0  0  0
  1  2  1  0  0  0  0
  1 34  1  0  0  0  0
  1 35  1  0  0  0  0
  1 36  1  0  0  0  0
  2  3  1  0  0  0  0
  3  8  2  0  0  0  0
  3  4  1  0  0  0  0
  4  5  2  0  0  0  0
  4 37  1  0  0  0  0
  5  6  1  0  0  0  0
  5 13  1  0  0  0  0
  6  7  2  0  0  0  0
  6 38  1  0  0  0  0
  7  8  1  0  0  0  0
  7 11  1  0  0  0  0
  8  9  1  0  0  0  0
  9 10  1  0  0  0  0
 10 39  1  0  0  0  0
 10 40  1  0  0  0  0
 10 41  1  0  0  0  0
 11 12  1  0  0  0  0
 12 42  1  0  0  0  0
 12 43  1  0  0  0  0
 12 44  1  0  0  0  0
 13 14  2  0  0  0  0
 13 15  1  0  0  0  0
 15 16  1  0  0  0  0
 15 45  1  0  0  0  0
 16 17  1  0  0  0  0
 16 46  1  0  0  0  0
 16 47  1  0  0  0  0
 17 18  1  0  0  0  0
 17 48  1  0  0  0  0
 17 49  1  0  0  0  0
 18 19  2  0  0  0  0
 18 20  1  0  0  0  0
 20 25  1  0  0  0  0
 20 21  1  0  0  0  0
 21 22  1  0  0  0  0
 21 50  1  0  0  0  0
 21 51  1  0  0  0  0
 22 23  1  0  0  0  0
 22 52  1  0  0  0  0
 22 53  1  0  0  0  0
 23 33  1  0  0  0  0
 23 24  1  0  0  0  0
 23 26  1  0  0  0  0
 24 25  1  0  0  0  0
 24 54  1  0  0  0  0
 24 55  1  0  0  0  0
 25 56  1  0  0  0  0
 25 57  1  0  0  0  0
 26 30  1  0  0  0  0
 26 27  2  0  0  0  0
 27 28  1  0  0  0  0
 27 31  1  0  0  0  0
 28 29  1  0  0  0  0
 28 58  1  0  0  0  0
 29 30  2  0  0  0  0
 29 59  1  0  0  0  0
 31 32  1  0  0  0  0
 31 60  1  0  0  0  0
 31 61  1  0  0  0  0
 32 33  1  0  0  0  0
 32 62  1  0  0  0  0
 32 63  1  0  0  0  0
 33 64  1  0  0  0  0
 33 65  1  0  0  0  0
M  END
> <Name>
ZINC20573659

> <reference>
BDB4968

> <quality>
0.755

> <status>
decoy

> <atoms in reference ligand area>
12

> <score>
-28.2618

$$$$
ZINC05734955
      BALL 1.4.0 (Jan  4 2012, 23:22:29)

 33 32  0999  0  0  0  0  0  0999 V2000
   12.4419   15.0667   -0.6194 C   0  0  0  0  0  0  0  0  0  0  0  0
   11.6014   13.7990   -0.4543 C   0  0  0  0  0  0  0  0  0  0  0  0
   10.1166   14.1682   -0.4519 C   0  0  0  0  0  0  0  0  0  0  0  0
    9.2737   12.8920   -0.4124 C   0  0  0  0  0  0  0  0  0  0  0  0
    8.7952   12.6409    1.0189 C   0  0  0  0  0  0  0  0  0  0  0  0
    7.9522   11.3647    1.0584 C   0  0  0  0  0  0  0  0  0  0  0  0
    8.7572   10.2033    0.4717 C   0  0  0  0  0  0  0  0  0  0  0  0
    7.5778   11.0453    2.5070 C   0  0  0  0  0  0  0  0  0  0  0  0
    6.7626   11.5558    0.2899 O   0  0  0  0  0  0  0  0  0  0  0  0
    5.6979   10.3797    0.0150 P   0  0  0  0  0  0  0  0  0  0  0  0
    5.4385    9.6451    1.2733 O   0  0  0  0  0  0  0  0  0  0  0  0
    4.3227   11.0169   -0.5278 O   0  5  0  0  0  0  0  0  0  0  0  0
    6.2909    9.3655   -1.0859 O   0  5  0  0  0  0  0  0  0  0  0  0
   11.8696   12.8961   -1.5875 N   0  3  0  0  0  0  0  0  0  0  0  0
   13.4913   14.7911   -0.8010 H   0  0  0  0  0  0  0  0  0  0  0  0
   12.3759   15.6735    0.2958 H   0  0  0  0  0  0  0  0  0  0  0  0
   12.0642   15.6495   -1.4724 H   0  0  0  0  0  0  0  0  0  0  0  0
   11.8602   13.3041    0.4933 H   0  0  0  0  0  0  0  0  0  0  0  0
    9.8928   14.7823    0.4328 H   0  0  0  0  0  0  0  0  0  0  0  0
    9.8774   14.7366   -1.3628 H   0  0  0  0  0  0  0  0  0  0  0  0
    8.4030   13.0069   -1.0746 H   0  0  0  0  0  0  0  0  0  0  0  0
    9.8812   12.0394   -0.7500 H   0  0  0  0  0  0  0  0  0  0  0  0
    9.6654   12.5255    1.6817 H   0  0  0  0  0  0  0  0  0  0  0  0
    8.1865   13.4922    1.3578 H   0  0  0  0  0  0  0  0  0  0  0  0
    9.8021   10.5156    0.3283 H   0  0  0  0  0  0  0  0  0  0  0  0
    8.3266    9.9098   -0.4970 H   0  0  0  0  0  0  0  0  0  0  0  0
    8.7229    9.3472    1.1615 H   0  0  0  0  0  0  0  0  0  0  0  0
    7.6776   11.9524    3.1211 H   0  0  0  0  0  0  0  0  0  0  0  0
    8.2475   10.2643    2.8962 H   0  0  0  0  0  0  0  0  0  0  0  0
    6.5379   10.6888    2.5476 H   0  0  0  0  0  0  0  0  0  0  0  0
   10.9913   12.4567   -1.8982 H   0  0  0  0  0  0  0  0  0  0  0  0
   12.5376   12.1663   -1.3008 H   0  0  0  0  0  0  0  0  0  0  0  0
   12.2720   13.4376   -2.3658 H   0  0  0  0  0  0  0  0  0  0  0  0
  1  2  1  0  0  0  0
  1 15  1  0  0  0  0
  1 16  1  0  0  0  0
  1 17  1  0  0  0  0
  2  3  1  0  0  0  0
  2 14  1  0  0  0  0
  2 18  1  0  0  0  0
  3  4  1  0  0  0  0
  3 19  1  0  0  0  0
  3 20  1  0  0  0  0
  4  5  1  0  0  0  0
  4 21  1  0  0  0  0
  4 22  1  0  0  0  0
  5  6  1  0  0  0  0
  5 23  1  0  0  0  0
  5 24  1  0  0  0  0
  6  7  1  0  0  0  0
  6  8  1  0  0  0  0
  6  9  1  0  0  0  0
  7 25  1  0  0  0  0
  7 26  1  0  0  0  0
  7 27  1  0  0  0  0
  8 28  1  0  0  0  0
  8 29  1  0  0  0  0
  8 30  1  0  0  0  0
  9 10  1  0  0  0  0
 10 11  2  0  0  0  0
 10 12  1  0  0  0  0
 10 13  1  0  0  0  0
 14 31  1  0  0  0  0
 14 32  1  0  0  0  0
 14 33  1  0  0  0  0
M  END
> <Name>
ZINC05734955

> <reference>
BDB5204

> <quality>
0.752

> <status>
decoy

> <atoms in reference ligand area>
20

> <score>
-28.2533

$$$$
ZINC28887676
      BALL 1.4.0 (Jan  4 2012, 23:22:29)

 56 59  0999  0  0  0  0  0  0999 V2000
    3.6099    7.0657   -2.2208 C   0  0  0  0  0  0  0  0  0  0  0  0
    4.3265    8.0097   -1.4225 O   0  0  0  0  0  0  0  0  0  0  0  0
    5.5595    7.6382   -0.9848 C   0  0  0  0  0  0  0  0  0  0  0  0
    6.4118    6.9382   -1.8228 C   0  0  0  0  0  0  0  0  0  0  0  0
    7.6652    6.5611   -1.3764 C   0  0  0  0  0  0  0  0  0  0  0  0
    8.0715    6.8806   -0.0942 C   0  0  0  0  0  0  0  0  0  0  0  0
    7.2290    7.5836    0.7465 C   0  0  0  0  0  0  0  0  0  0  0  0
    5.9682    7.9605    0.3074 C   0  0  0  0  0  0  0  0  0  0  0  0
    5.1112    8.6677    1.1585 N   0  5  0  0  0  0  0  0  0  0  0  0
    5.6876    9.9477    2.0371 S   0  0  0  0  0  0  0  0  0  0  0  0
    5.8472    9.4854    3.3713 O   0  0  0  0  0  0  0  0  0  0  0  0
    4.8723   11.0646    1.7104 O   0  0  0  0  0  0  0  0  0  0  0  0
    7.3028   10.3092    1.4328 C   0  0  0  0  0  0  0  0  0  0  0  0
    7.4803   10.6620    0.1076 C   0  0  0  0  0  0  0  0  0  0  0  0
    8.7452   10.9464   -0.3723 C   0  0  0  0  0  0  0  0  0  0  0  0
    9.8395   10.8782    0.4749 C   0  0  0  0  0  0  0  0  0  0  0  0
    9.6620   10.5177    1.8086 C   0  0  0  0  0  0  0  0  0  0  0  0
    8.3890   10.2389    2.2843 C   0  0  0  0  0  0  0  0  0  0  0  0
   10.7656   10.4415    2.6686 N   0  0  0  0  0  0  0  0  0  0  0  0
   11.9566   10.0183    2.2008 C   0  0  0  0  0  0  0  0  0  0  0  0
   12.0501    9.6075    1.0634 O   0  0  0  0  0  0  0  0  0  0  0  0
   13.1721   10.0554    3.0909 C   0  0  0  0  0  0  0  0  0  0  0  0
   12.8886    9.3625    4.4438 C   0  0  0  0  0  0  0  0  0  0  0  0
   14.1845    8.6571    4.7781 C   0  0  0  0  0  0  0  0  0  0  0  0
   14.4807    8.2308    5.8742 O   0  0  0  0  0  0  0  0  0  0  0  0
   14.9596    8.5709    3.6833 N   0  0  0  0  0  0  0  0  0  0  0  0
   14.3045    9.1751    2.5172 C   0  0  0  0  0  0  0  0  0  0  0  0
   16.2877    7.9530    3.6573 C   0  0  0  0  0  0  0  0  0  0  0  0
   16.9662    8.2586    2.3204 C   0  0  0  0  0  0  0  0  0  0  0  0
   18.4779    8.0406    2.2294 C   0  0  0  0  0  0  0  0  0  0  0  0
   17.9100    9.4616    2.2660 C   0  0  0  0  0  0  0  0  0  0  0  0
   11.0843   11.1571    0.0041 O   0  0  0  0  0  0  0  0  0  0  0  0
    3.2286    7.6219   -3.0898 H   0  0  0  0  0  0  0  0  0  0  0  0
    2.7461    6.7450   -1.6199 H   0  0  0  0  0  0  0  0  0  0  0  0
    4.2299    6.2104   -2.5275 H   0  0  0  0  0  0  0  0  0  0  0  0
    6.0916    6.6822   -2.8436 H   0  0  0  0  0  0  0  0  0  0  0  0
    8.3406    6.0054   -2.0434 H   0  0  0  0  0  0  0  0  0  0  0  0
    9.0677    6.5747    0.2579 H   0  0  0  0  0  0  0  0  0  0  0  0
    7.5581    7.8439    1.7633 H   0  0  0  0  0  0  0  0  0  0  0  0
    6.6128   10.7166   -0.5665 H   0  0  0  0  0  0  0  0  0  0  0  0
    8.8829   11.2268   -1.4270 H   0  0  0  0  0  0  0  0  0  0  0  0
    8.2443    9.9620    3.3390 H   0  0  0  0  0  0  0  0  0  0  0  0
   10.6666   10.7090    3.6583 H   0  0  0  0  0  0  0  0  0  0  0  0
   13.4344   11.1200    3.1797 H   0  0  0  0  0  0  0  0  0  0  0  0
   12.0765    8.6290    4.3312 H   0  0  0  0  0  0  0  0  0  0  0  0
   12.6575   10.1145    5.2127 H   0  0  0  0  0  0  0  0  0  0  0  0
   15.0219    9.7986    1.9636 H   0  0  0  0  0  0  0  0  0  0  0  0
   13.8801    8.3895    1.8747 H   0  0  0  0  0  0  0  0  0  0  0  0
   16.1891    6.8639    3.7771 H   0  0  0  0  0  0  0  0  0  0  0  0
   16.8972    8.3584    4.4783 H   0  0  0  0  0  0  0  0  0  0  0  0
   16.0954    7.9256    1.7367 H   0  0  0  0  0  0  0  0  0  0  0  0
   18.7842    7.7559    1.2120 H   0  0  0  0  0  0  0  0  0  0  0  0
   18.9029    7.7518    3.2020 H   0  0  0  0  0  0  0  0  0  0  0  0
   18.0371    9.9203    3.2578 H   0  0  0  0  0  0  0  0  0  0  0  0
   17.9169    9.9237    1.2678 H   0  0  0  0  0  0  0  0  0  0  0  0
   11.2625   10.4581   -0.6739 H   0  0  0  0  0  0  0  0  0  0  0  0
  1  2  1  0  0  0  0
  1 33  1  0  0  0  0
  1 34  1  0  0  0  0
  1 35  1  0  0  0  0
  2  3  1  0  0  0  0
  3  8  2  0  0  0  0
  3  4  1  0  0  0  0
  4  5  2  0  0  0  0
  4 36  1  0  0  0  0
  5  6  1  0  0  0  0
  5 37  1  0  0  0  0
  6  7  2  0  0  0  0
  6 38  1  0  0  0  0
  7  8  1  0  0  0  0
  7 39  1  0  0  0  0
  8  9  1  0  0  0  0
  9 10  1  0  0  0  0
 10 11  2  0  0  0  0
 10 12  2  0  0  0  0
 10 13  1  0  0  0  0
 13 18  2  0  0  0  0
 13 14  1  0  0  0  0
 14 15  2  0  0  0  0
 14 40  1  0  0  0  0
 15 16  1  0  0  0  0
 15 41  1  0  0  0  0
 16 17  2  0  0  0  0
 16 32  1  0  0  0  0
 17 18  1  0  0  0  0
 17 19  1  0  0  0  0
 18 42  1  0  0  0  0
 19 20  1  0  0  0  0
 19 43  1  0  0  0  0
 20 21  2  0  0  0  0
 20 22  1  0  0  0  0
 22 27  1  0  0  0  0
 22 23  1  0  0  0  0
 22 44  1  0  0  0  0
 23 24  1  0  0  0  0
 23 45  1  0  0  0  0
 23 46  1  0  0  0  0
 24 25  2  0  0  0  0
 24 26  1  0  0  0  0
 26 27  1  0  0  0  0
 26 28  1  0  0  0  0
 27 47  1  0  0  0  0
 27 48  1  0  0  0  0
 28 29  1  0  0  0  0
 28 49  1  0  0  0  0
 28 50  1  0  0  0  0
 29 31  1  0  0  0  0
 29 30  1  0  0  0  0
 29 51  1  0  0  0  0
 30 31  1  0  0  0  0
 30 52  1  0  0  0  0
 30 53  1  0  0  0  0
 31 54  1  0  0  0  0
 31 55  1  0  0  0  0
 32 56  1  0  0  0  0
M  END
> <Name>
ZINC28887676

> <reference>
BDB4968

> <quality>
0.761

> <status>
decoy

> <atoms in reference ligand area>
12

> <score>
-28.2517

$$$$
ZINC06223307
      BALL 1.4.0 (Jan  4 2012, 23:22:29)

 32 33  0999  0  0  0  0  0  0999 V2000
    4.9370    9.5304    0.4439 C   0  0  0  0  0  0  0  0  0  0  0  0
    5.7065    8.9051    1.3552 C   0  0  0  0  0  0  0  0  0  0  0  0
    6.0984    9.8135    2.2608 N   0  3  0  0  0  0  0  0  0  0  0  0
    5.5969   10.9770    1.9481 C   0  0  0  0  0  0  0  0  0  0  0  0
    4.8697   10.8454    0.8178 N   0  0  0  0  0  0  0  0  0  0  0  0
    6.9497    9.5413    3.4216 C   0  0  0  0  0  0  0  0  0  0  0  0
    8.2213   10.3873    3.3309 C   0  0  0  0  0  0  0  0  0  0  0  0
    8.4314   10.8389    1.8842 C   0  0  0  0  0  0  0  0  0  0  0  0
    8.4325   12.3026    1.8248 N   0  0  0  0  0  0  0  0  0  0  0  0
    9.4379   12.9298    1.2948 C   0  0  0  0  0  0  0  0  0  0  0  0
    9.4390   14.3950    1.2353 C   0  0  0  0  0  0  0  0  0  0  0  0
    9.5096   15.0647    0.0130 C   0  0  0  0  0  0  0  0  0  0  0  0
    9.5081   16.4302    0.0037 N   0  0  0  0  0  0  0  0  0  0  0  0
    9.4401   17.1355    1.1438 C   0  0  0  0  0  0  0  0  0  0  0  0
    9.4418   18.3496    1.0841 O   0  0  0  0  0  0  0  0  0  0  0  0
    9.3709   16.5453    2.3487 N   0  0  0  0  0  0  0  0  0  0  0  0
    9.3599   15.2008    2.4581 C   0  0  0  0  0  0  0  0  0  0  0  0
    9.2911   14.6670    3.5502 O   0  0  0  0  0  0  0  0  0  0  0  0
    9.5788   14.3740   -1.1411 O   0  5  0  0  0  0  0  0  0  0  0  0
    4.4551    9.0724   -0.4325 H   0  0  0  0  0  0  0  0  0  0  0  0
    5.9679    7.8366    1.3566 H   0  0  0  0  0  0  0  0  0  0  0  0
    5.7425   11.9103    2.5117 H   0  0  0  0  0  0  0  0  0  0  0  0
    4.3598   11.5946    0.3284 H   0  0  0  0  0  0  0  0  0  0  0  0
    6.4057    9.7956    4.3432 H   0  0  0  0  0  0  0  0  0  0  0  0
    7.2200    8.4751    3.4376 H   0  0  0  0  0  0  0  0  0  0  0  0
    8.1214   11.2703    3.9793 H   0  0  0  0  0  0  0  0  0  0  0  0
    9.0850    9.7891    3.6566 H   0  0  0  0  0  0  0  0  0  0  0  0
    7.6181   10.4477    1.2552 H   0  0  0  0  0  0  0  0  0  0  0  0
    9.3953   10.4568    1.5170 H   0  0  0  0  0  0  0  0  0  0  0  0
   10.2890   12.3623    0.8903 H   0  0  0  0  0  0  0  0  0  0  0  0
    9.5602   16.9289   -0.8961 H   0  0  0  0  0  0  0  0  0  0  0  0
    9.3256   17.1259    3.1983 H   0  0  0  0  0  0  0  0  0  0  0  0
  1  5  1  0  0  0  0
  1  2  2  0  0  0  0
  1 20  1  0  0  0  0
  2  3  1  0  0  0  0
  2 21  1  0  0  0  0
  3  4  2  0  0  0  0
  3  6  1  0  0  0  0
  4  5  1  0  0  0  0
  4 22  1  0  0  0  0
  5 23  1  0  0  0  0
  6  7  1  0  0  0  0
  6 24  1  0  0  0  0
  6 25  1  0  0  0  0
  7  8  1  0  0  0  0
  7 26  1  0  0  0  0
  7 27  1  0  0  0  0
  8  9  1  0  0  0  0
  8 28  1  0  0  0  0
  8 29  1  0  0  0  0
  9 10  2  0  0  0  0
 10 11  1  0  0  0  0
 10 30  1  0  0  0  0
 11 17  1  0  0  0  0
 11 12  2  0  0  0  0
 12 13  1  0  0  0  0
 12 19  1  0  0  0  0
 13 14  1  0  0  0  0
 13 31  1  0  0  0  0
 14 15  2  0  0  0  0
 14 16  1  0  0  0  0
 16 17  1  0  0  0  0
 16 32  1  0  0  0  0
 17 18  2  0  0  0  0
M  END
> <Name>
ZINC06223307

> <reference>
BDB5233

> <quality>
0.810

> <status>
decoy

> <atoms in reference ligand area>
14

> <score>
-28.214

$$$$
ZINC00481078
      BALL 1.4.0 (Jan  4 2012, 23:22:29)

 40 40  0999  0  0  0  0  0  0999 V2000
    4.4510    9.0732    5.1576 C   0  0  0  0  0  0  0  0  0  0  0  0
    5.7730    9.0884    5.9278 C   0  0  0  0  0  0  0  0  0  0  0  0
    6.8253    8.5357    5.0939 O   0  0  0  0  0  0  0  0  0  0  0  0
    8.0721    9.0015    5.2946 C   0  0  0  0  0  0  0  0  0  0  0  0
    8.6694    8.7188    6.3138 O   0  0  0  0  0  0  0  0  0  0  0  0
    8.6578    9.7817    4.3646 N   0  0  0  0  0  0  0  0  0  0  0  0
    8.8523    9.3120    3.1164 C   0  0  0  0  0  0  0  0  0  0  0  0
    8.4148    8.2217    2.8020 O   0  0  0  0  0  0  0  0  0  0  0  0
    9.5931   10.1173    2.1354 C   0  0  0  0  0  0  0  0  0  0  0  0
    9.0914   11.3220    1.6803 C   0  0  0  0  0  0  0  0  0  0  0  0
    9.8043   12.0391    0.7739 N   0  0  0  0  0  0  0  0  0  0  0  0
   10.9838   11.6026    0.3051 C   0  0  0  0  0  0  0  0  0  0  0  0
   11.5801   12.2800   -0.5092 O   0  0  0  0  0  0  0  0  0  0  0  0
   11.5295   10.4431    0.7106 N   0  0  0  0  0  0  0  0  0  0  0  0
   10.8913    9.6644    1.6095 C   0  0  0  0  0  0  0  0  0  0  0  0
   11.3779    8.6114    1.9765 O   0  0  0  0  0  0  0  0  0  0  0  0
    9.2709   13.3157    0.2920 C   0  0  0  0  0  0  0  0  0  0  0  0
    9.9511   14.4662    1.0367 C   0  0  0  0  0  0  0  0  0  0  0  0
    9.6652   16.8191    1.5319 C   0  0  0  0  0  0  0  0  0  0  0  0
    9.9720   16.0923   -0.7573 C   0  0  0  0  0  0  0  0  0  0  0  0
    9.3875   15.7450    0.5552 N   0  3  0  0  0  0  0  0  0  0  0  0
    4.2514   10.0752    4.7501 H   0  0  0  0  0  0  0  0  0  0  0  0
    3.6340    8.7841    5.8351 H   0  0  0  0  0  0  0  0  0  0  0  0
    4.5151    8.3488    4.3323 H   0  0  0  0  0  0  0  0  0  0  0  0
    6.0271   10.1235    6.2000 H   0  0  0  0  0  0  0  0  0  0  0  0
    5.6737    8.4830    6.8408 H   0  0  0  0  0  0  0  0  0  0  0  0
    8.9568   10.7369    4.6079 H   0  0  0  0  0  0  0  0  0  0  0  0
    8.1246   11.6959    2.0484 H   0  0  0  0  0  0  0  0  0  0  0  0
   12.4408   10.1469    0.3328 H   0  0  0  0  0  0  0  0  0  0  0  0
    9.4662   13.4113   -0.7863 H   0  0  0  0  0  0  0  0  0  0  0  0
    8.1865   13.3531    0.4730 H   0  0  0  0  0  0  0  0  0  0  0  0
   11.0333   14.4444    0.8407 H   0  0  0  0  0  0  0  0  0  0  0  0
    9.7665   14.3663    2.1164 H   0  0  0  0  0  0  0  0  0  0  0  0
   10.0599   16.3754    2.4579 H   0  0  0  0  0  0  0  0  0  0  0  0
    8.7324   17.3576    1.7551 H   0  0  0  0  0  0  0  0  0  0  0  0
   10.4041   17.5189    1.1144 H   0  0  0  0  0  0  0  0  0  0  0  0
   10.9931   15.6879   -0.8191 H   0  0  0  0  0  0  0  0  0  0  0  0
   10.0070   17.1868   -0.8616 H   0  0  0  0  0  0  0  0  0  0  0  0
    9.3568   15.6647   -1.5627 H   0  0  0  0  0  0  0  0  0  0  0  0
    8.3679   15.6431    0.4510 H   0  0  0  0  0  0  0  0  0  0  0  0
  1  2  1  0  0  0  0
  1 22  1  0  0  0  0
  1 23  1  0  0  0  0
  1 24  1  0  0  0  0
  2  3  1  0  0  0  0
  2 25  1  0  0  0  0
  2 26  1  0  0  0  0
  3  4  1  0  0  0  0
  4  5  2  0  0  0  0
  4  6  1  0  0  0  0
  6  7  1  0  0  0  0
  6 27  1  0  0  0  0
  7  8  2  0  0  0  0
  7  9  1  0  0  0  0
  9 15  1  0  0  0  0
  9 10  2  0  0  0  0
 10 11  1  0  0  0  0
 10 28  1  0  0  0  0
 11 12  1  0  0  0  0
 11 17  1  0  0  0  0
 12 13  2  0  0  0  0
 12 14  1  0  0  0  0
 14 15  1  0  0  0  0
 14 29  1  0  0  0  0
 15 16  2  0  0  0  0
 17 18  1  0  0  0  0
 17 30  1  0  0  0  0
 17 31  1  0  0  0  0
 18 21  1  0  0  0  0
 18 32  1  0  0  0  0
 18 33  1  0  0  0  0
 19 21  1  0  0  0  0
 19 34  1  0  0  0  0
 19 35  1  0  0  0  0
 19 36  1  0  0  0  0
 20 21  1  0  0  0  0
 20 37  1  0  0  0  0
 20 38  1  0  0  0  0
 20 39  1  0  0  0  0
 21 40  1  0  0  0  0
M  END
> <Name>
ZINC00481078

> <reference>
BDB5195

> <quality>
0.756

> <status>
decoy

> <atoms in reference ligand area>
13

> <score>
-28.1708

$$$$
ZINC29005505
      BALL 1.4.0 (Jan  4 2012, 23:22:29)

 48 49  0999  0  0  0  0  0  0999 V2000
    9.4243    8.3478    6.8086 C   0  0  0  0  0  0  0  0  0  0  0  0
   10.2224    9.3825    6.2304 O   0  0  0  0  0  0  0  0  0  0  0  0
    9.8684    9.8155    5.0026 C   0  0  0  0  0  0  0  0  0  0  0  0
    8.5504    9.9705    4.6880 C   0  0  0  0  0  0  0  0  0  0  0  0
    8.1852   10.5052    3.4464 C   0  0  0  0  0  0  0  0  0  0  0  0
    8.3899   11.8764    3.1808 C   0  0  0  0  0  0  0  0  0  0  0  0
    7.8901   12.4703    1.9929 C   0  0  0  0  0  0  0  0  0  0  0  0
    7.2742   11.8039    1.1806 O   0  0  0  0  0  0  0  0  0  0  0  0
    8.1026   13.7844    1.7792 N   0  0  0  0  0  0  0  0  0  0  0  0
    8.7860   14.5259    2.6672 C   0  0  0  0  0  0  0  0  0  0  0  0
    9.0347   16.1887    2.3447 S   0  0  0  0  0  0  0  0  0  0  0  0
    9.2800   14.0003    3.8007 N   0  0  0  0  0  0  0  0  0  0  0  0
    9.1060   12.6955    4.0918 C   0  0  0  0  0  0  0  0  0  0  0  0
    9.5570   12.2266    5.1214 O   0  0  0  0  0  0  0  0  0  0  0  0
    7.6276    9.6953    2.4868 N   0  0  0  0  0  0  0  0  0  0  0  0
    6.2474    9.9203    2.0500 C   0  0  0  0  0  0  0  0  0  0  0  0
    5.6671    8.6154    1.5010 C   0  0  0  0  0  0  0  0  0  0  0  0
    5.2596    8.8136    0.0396 C   0  0  0  0  0  0  0  0  0  0  0  0
    5.1609    7.5060   -0.6227 N   0  3  0  0  0  0  0  0  0  0  0  0
    5.7810    7.5423   -1.9552 C   0  0  0  0  0  0  0  0  0  0  0  0
    5.7090    6.1481   -2.5836 C   0  0  0  0  0  0  0  0  0  0  0  0
    4.3445    5.7227   -2.6329 O   0  0  0  0  0  0  0  0  0  0  0  0
    3.7096    5.6753   -1.3523 C   0  0  0  0  0  0  0  0  0  0  0  0
    3.7613    7.0647   -0.7113 C   0  0  0  0  0  0  0  0  0  0  0  0
    7.5972    9.6081    5.5741 F   0  0  0  0  0  0  0  0  0  0  0  0
   10.8181   10.0949    4.0862 O   0  0  0  0  0  0  0  0  0  0  0  0
    8.7258    8.0206    6.0242 H   0  0  0  0  0  0  0  0  0  0  0  0
    8.8360    8.8211    7.6085 H   0  0  0  0  0  0  0  0  0  0  0  0
   10.0261    7.5098    7.1900 H   0  0  0  0  0  0  0  0  0  0  0  0
    7.7362   14.2258    0.9237 H   0  0  0  0  0  0  0  0  0  0  0  0
    9.7988   14.6022    4.4560 H   0  0  0  0  0  0  0  0  0  0  0  0
    8.1800    8.9300    2.0744 H   0  0  0  0  0  0  0  0  0  0  0  0
    5.6429   10.2589    2.9044 H   0  0  0  0  0  0  0  0  0  0  0  0
    6.2314   10.6879    1.2623 H   0  0  0  0  0  0  0  0  0  0  0  0
    6.4254    7.8211    1.5651 H   0  0  0  0  0  0  0  0  0  0  0  0
    4.7844    8.3283    2.0913 H   0  0  0  0  0  0  0  0  0  0  0  0
    6.0150    9.4274   -0.4728 H   0  0  0  0  0  0  0  0  0  0  0  0
    4.2843    9.3205   -0.0037 H   0  0  0  0  0  0  0  0  0  0  0  0
    5.6758    6.8227   -0.0493 H   0  0  0  0  0  0  0  0  0  0  0  0
    6.8335    7.8489   -1.8635 H   0  0  0  0  0  0  0  0  0  0  0  0
    5.2424    8.2597   -2.5917 H   0  0  0  0  0  0  0  0  0  0  0  0
    6.1192    6.1835   -3.6037 H   0  0  0  0  0  0  0  0  0  0  0  0
    6.2921    5.4400   -1.9765 H   0  0  0  0  0  0  0  0  0  0  0  0
    2.6609    5.3662   -1.4734 H   0  0  0  0  0  0  0  0  0  0  0  0
    4.2339    4.9547   -0.7076 H   0  0  0  0  0  0  0  0  0  0  0  0
    3.3258    7.0193    0.2978 H   0  0  0  0  0  0  0  0  0  0  0  0
    3.1896    7.7741   -1.3277 H   0  0  0  0  0  0  0  0  0  0  0  0
   11.6775    9.9652    4.5601 H   0  0  0  0  0  0  0  0  0  0  0  0
  1  2  1  0  0  0  0
  1 27  1  0  0  0  0
  1 28  1  0  0  0  0
  1 29  1  0  0  0  0
  2  3  1  0  0  0  0
  3  4  2  0  0  0  0
  3 26  1  0  0  0  0
  4  5  1  0  0  0  0
  4 25  1  0  0  0  0
  5  6  2  0  0  0  0
  5 15  1  0  0  0  0
  6 13  1  0  0  0  0
  6  7  1  0  0  0  0
  7  8  2  0  0  0  0
  7  9  1  0  0  0  0
  9 10  1  0  0  0  0
  9 30  1  0  0  0  0
 10 11  2  0  0  0  0
 10 12  1  0  0  0  0
 12 13  1  0  0  0  0
 12 31  1  0  0  0  0
 13 14  2  0  0  0  0
 15 16  1  0  0  0  0
 15 32  1  0  0  0  0
 16 17  1  0  0  0  0
 16 33  1  0  0  0  0
 16 34  1  0  0  0  0
 17 18  1  0  0  0  0
 17 35  1  0  0  0  0
 17 36  1  0  0  0  0
 18 19  1  0  0  0  0
 18 37  1  0  0  0  0
 18 38  1  0  0  0  0
 19 24  1  0  0  0  0
 19 20  1  0  0  0  0
 19 39  1  0  0  0  0
 20 21  1  0  0  0  0
 20 40  1  0  0  0  0
 20 41  1  0  0  0  0
 21 22  1  0  0  0  0
 21 42  1  0  0  0  0
 21 43  1  0  0  0  0
 22 23  1  0  0  0  0
 23 24  1  0  0  0  0
 23 44  1  0  0  0  0
 23 45  1  0  0  0  0
 24 46  1  0  0  0  0
 24 47  1  0  0  0  0
 26 48  1  0  0  0  0
M  END
> <Name>
ZINC29005505

> <reference>
BDB4945

> <quality>
0.748

> <status>
decoy

> <atoms in reference ligand area>
11

> <score>
-28.0859

$$$$
ZINC05113155
      BALL 1.4.0 (Jan  4 2012, 23:22:29)

 31 30  0999  0  0  0  0  0  0999 V2000
   13.0025   11.6557    2.9662 C   0  0  0  0  0  0  0  0  0  0  0  0
   11.5179   11.5226    2.6206 C   0  0  0  0  0  0  0  0  0  0  0  0
   11.0896   12.7040    1.7478 C   0  0  0  0  0  0  0  0  0  0  0  0
   12.1951   13.0189    0.7380 C   0  0  0  0  0  0  0  0  0  0  0  0
   11.4581   13.7071   -0.7701 S   0  0  0  0  0  0  0  0  0  0  0  0
   11.9134   12.9896   -1.9089 O   0  0  0  0  0  0  0  0  0  0  0  0
   10.0716   13.9471   -0.5717 O   0  0  0  0  0  0  0  0  0  0  0  0
   13.1920   11.4868    4.4749 C   0  0  0  0  0  0  0  0  0  0  0  0
   14.6766   11.6198    4.8205 C   0  0  0  0  0  0  0  0  0  0  0  0
   16.0410   11.2909    6.8440 C   0  0  0  0  0  0  0  0  0  0  0  0
   17.1879   11.2460    6.0874 N   0  0  0  0  0  0  0  0  0  0  0  0
   16.1089   11.1164    8.2061 N   0  0  0  0  0  0  0  0  0  0  0  0
   12.0754   15.0911   -0.9106 O   0  5  0  0  0  0  0  0  0  0  0  0
   14.8317   11.5049    6.3115 N   0  3  0  0  0  0  0  0  0  0  0  0
   13.5734   10.8790    2.4362 H   0  0  0  0  0  0  0  0  0  0  0  0
   13.3636   12.6489    2.6609 H   0  0  0  0  0  0  0  0  0  0  0  0
   11.3515   10.5834    2.0728 H   0  0  0  0  0  0  0  0  0  0  0  0
   10.9238   11.5174    3.5464 H   0  0  0  0  0  0  0  0  0  0  0  0
   10.1650   12.4466    1.2101 H   0  0  0  0  0  0  0  0  0  0  0  0
   10.9119   13.5847    2.3824 H   0  0  0  0  0  0  0  0  0  0  0  0
   12.8911   13.7516    1.1725 H   0  0  0  0  0  0  0  0  0  0  0  0
   12.7409   12.0965    0.4903 H   0  0  0  0  0  0  0  0  0  0  0  0
   12.8324   10.4937    4.7819 H   0  0  0  0  0  0  0  0  0  0  0  0
   12.6216   12.2635    5.0055 H   0  0  0  0  0  0  0  0  0  0  0  0
   15.0481   12.5996    4.4859 H   0  0  0  0  0  0  0  0  0  0  0  0
   15.2436   10.8161    4.3279 H   0  0  0  0  0  0  0  0  0  0  0  0
   17.3543   10.4535    5.4510 H   0  0  0  0  0  0  0  0  0  0  0  0
   17.8807   12.0050    6.1569 H   0  0  0  0  0  0  0  0  0  0  0  0
   16.8478   10.5258    8.6136 H   0  0  0  0  0  0  0  0  0  0  0  0
   15.4207   11.5765    8.8191 H   0  0  0  0  0  0  0  0  0  0  0  0
   14.0075   11.5908    6.9232 H   0  0  0  0  0  0  0  0  0  0  0  0
  1  2  1  0  0  0  0
  1  8  1  0  0  0  0
  1 15  1  0  0  0  0
  1 16  1  0  0  0  0
  2  3  1  0  0  0  0
  2 17  1  0  0  0  0
  2 18  1  0  0  0  0
  3  4  1  0  0  0  0
  3 19  1  0  0  0  0
  3 20  1  0  0  0  0
  4  5  1  0  0  0  0
  4 21  1  0  0  0  0
  4 22  1  0  0  0  0
  5  6  2  0  0  0  0
  5  7  2  0  0  0  0
  5 13  1  0  0  0  0
  8  9  1  0  0  0  0
  8 23  1  0  0  0  0
  8 24  1  0  0  0  0
  9 14  1  0  0  0  0
  9 25  1  0  0  0  0
  9 26  1  0  0  0  0
 10 11  1  0  0  0  0
 10 12  1  0  0  0  0
 10 14  2  0  0  0  0
 11 27  1  0  0  0  0
 11 28  1  0  0  0  0
 12 29  1  0  0  0  0
 12 30  1  0  0  0  0
 14 31  1  0  0  0  0
M  END
> <Name>
ZINC05113155

> <reference>
BDB5021

> <quality>
0.683

> <status>
decoy

> <atoms in reference ligand area>
10

> <score>
-27.9451

$$$$
ZINC01871948
      BALL 1.4.0 (Jan  4 2012, 23:22:29)

 38 39  0999  0  0  0  0  0  0999 V2000
    9.1579    8.1180    5.6503 C   0  0  0  0  0  0  0  0  0  0  0  0
    7.9958    9.0393    5.3829 C   0  0  0  0  0  0  0  0  0  0  0  0
    7.1774    9.2507    6.2520 O   0  0  0  0  0  0  0  0  0  0  0  0
    7.8662    9.6285    4.1777 N   0  0  0  0  0  0  0  0  0  0  0  0
    8.5526   10.7461    3.7647 C   0  0  0  0  0  0  0  0  0  0  0  0
    8.1890   11.0691    2.5162 C   0  0  0  0  0  0  0  0  0  0  0  0
    7.1899   10.0840    2.0875 C   0  0  0  0  0  0  0  0  0  0  0  0
    7.0225    9.2006    3.1681 C   0  0  0  0  0  0  0  0  0  0  0  0
    6.1254    8.1464    3.0568 C   0  0  0  0  0  0  0  0  0  0  0  0
    5.4045    7.9765    1.8937 C   0  0  0  0  0  0  0  0  0  0  0  0
    5.5727    8.8445    0.8249 C   0  0  0  0  0  0  0  0  0  0  0  0
    6.4571    9.8967    0.9152 C   0  0  0  0  0  0  0  0  0  0  0  0
    8.7089   12.2274    1.7044 C   0  0  0  0  0  0  0  0  0  0  0  0
    7.6671   12.6245    0.6567 C   0  5  0  0  0  0  0  0  0  0  0  0
    8.3434   13.1749   -0.5204 N   0  0  0  0  0  0  0  0  0  0  0  0
    7.8011   13.1316   -1.6102 O   0  0  0  0  0  0  0  0  0  0  0  0
    9.4481   13.6758   -0.4094 O   0  0  0  0  0  0  0  0  0  0  0  0
    9.0321   13.6367    2.8000 S   0  0  0  0  0  0  0  0  0  0  0  0
    9.4979   14.9752    1.6676 C   0  0  0  0  0  0  0  0  0  0  0  0
    9.0866   16.3197    2.2707 C   0  0  0  0  0  0  0  0  0  0  0  0
    9.7925   16.5080    3.5503 N   0  3  0  0  0  0  0  0  0  0  0  0
    8.7914    7.1077    5.4158 H   0  0  0  0  0  0  0  0  0  0  0  0
    9.3279    8.1675    6.7360 H   0  0  0  0  0  0  0  0  0  0  0  0
   10.0587    8.3783    5.0753 H   0  0  0  0  0  0  0  0  0  0  0  0
    9.2905   11.2937    4.3695 H   0  0  0  0  0  0  0  0  0  0  0  0
    5.9901    7.4477    3.8956 H   0  0  0  0  0  0  0  0  0  0  0  0
    4.6892    7.1448    1.8126 H   0  0  0  0  0  0  0  0  0  0  0  0
    4.9967    8.6918   -0.0997 H   0  0  0  0  0  0  0  0  0  0  0  0
    6.5850   10.5857    0.0673 H   0  0  0  0  0  0  0  0  0  0  0  0
    9.6415   11.9330    1.2008 H   0  0  0  0  0  0  0  0  0  0  0  0
    6.9917   13.3832    1.0788 H   0  0  0  0  0  0  0  0  0  0  0  0
   10.5868   14.9616    1.5118 H   0  0  0  0  0  0  0  0  0  0  0  0
    8.9876   14.8352    0.7033 H   0  0  0  0  0  0  0  0  0  0  0  0
    8.0006   16.3287    2.4456 H   0  0  0  0  0  0  0  0  0  0  0  0
    9.3570   17.1312    1.5791 H   0  0  0  0  0  0  0  0  0  0  0  0
   10.7997   16.3358    3.4206 H   0  0  0  0  0  0  0  0  0  0  0  0
    9.4189   15.8543    4.2531 H   0  0  0  0  0  0  0  0  0  0  0  0
    9.6525   17.4746    3.8772 H   0  0  0  0  0  0  0  0  0  0  0  0
  1  2  1  0  0  0  0
  1 22  1  0  0  0  0
  1 23  1  0  0  0  0
  1 24  1  0  0  0  0
  2  3  2  0  0  0  0
  2  4  1  0  0  0  0
  4  8  1  0  0  0  0
  4  5  1  0  0  0  0
  5  6  2  0  0  0  0
  5 25  1  0  0  0  0
  6  7  1  0  0  0  0
  6 13  1  0  0  0  0
  7 12  2  0  0  0  0
  7  8  1  0  0  0  0
  8  9  2  0  0  0  0
  9 10  1  0  0  0  0
  9 26  1  0  0  0  0
 10 11  2  0  0  0  0
 10 27  1  0  0  0  0
 11 12  1  0  0  0  0
 11 28  1  0  0  0  0
 12 29  1  0  0  0  0
 13 14  1  0  0  0  0
 13 18  1  0  0  0  0
 13 30  1  0  0  0  0
 14 15  1  0  0  0  0
 14 31  1  0  0  0  0
 15 16  2  0  0  0  0
 15 17  2  0  0  0  0
 18 19  1  0  0  0  0
 19 20  1  0  0  0  0
 19 32  1  0  0  0  0
 19 33  1  0  0  0  0
 20 21  1  0  0  0  0
 20 34  1  0  0  0  0
 20 35  1  0  0  0  0
 21 36  1  0  0  0  0
 21 37  1  0  0  0  0
 21 38  1  0  0  0  0
M  END
> <Name>
ZINC01871948

> <reference>
BDB5200

> <quality>
0.793

> <status>
decoy

> <atoms in reference ligand area>
12

> <score>
-27.8397

$$$$
ZINC16952887
      BALL 1.4.0 (Jan  4 2012, 23:22:29)

 36 38  0999  0  0  0  0  0  0999 V2000
   12.1333   15.2280   -1.2489 C   0  0  0  0  0  0  0  0  0  0  0  0
   10.6367   14.9746   -1.0559 C   0  0  0  0  0  0  0  0  0  0  0  0
   10.0790   15.9451   -0.1230 O   0  0  0  0  0  0  0  0  0  0  0  0
   10.1758   15.2629    1.1003 C   0  0  0  0  0  0  0  0  0  0  0  0
    9.3242   15.4693    2.3227 C   0  0  0  0  0  0  0  0  0  0  0  0
    9.0941   14.1406    2.8651 O   0  0  0  0  0  0  0  0  0  0  0  0
    9.6367   13.1502    1.9425 C   0  0  0  0  0  0  0  0  0  0  0  0
    9.6019   13.8702    0.6162 C   0  0  0  0  0  0  0  0  0  0  0  0
   10.4299   13.6489   -0.4875 O   0  0  0  0  0  0  0  0  0  0  0  0
    8.7645   11.9217    1.9055 C   0  0  0  0  0  0  0  0  0  0  0  0
    8.7009   10.9169    2.8680 C   0  0  0  0  0  0  0  0  0  0  0  0
    7.7322    9.9991    2.3707 C   0  0  0  0  0  0  0  0  0  0  0  0
    7.3100   10.4752    1.2188 N   0  0  0  0  0  0  0  0  0  0  0  0
    7.8970   11.5800    0.9347 N   0  5  0  0  0  0  0  0  0  0  0  0
    7.2863    8.7517    3.0232 C   0  0  0  0  0  0  0  0  0  0  0  0
    7.7372    7.6820    2.6621 O   0  0  0  0  0  0  0  0  0  0  0  0
    6.3796    8.7990    4.0192 N   0  0  0  0  0  0  0  0  0  0  0  0
    9.4645   10.8264    4.1290 C   0  0  0  0  0  0  0  0  0  0  0  0
    9.8194   11.8434    4.7013 O   0  0  0  0  0  0  0  0  0  0  0  0
    9.7699    9.6360    4.6375 N   0  0  0  0  0  0  0  0  0  0  0  0
    9.2746    9.2852    5.5836 N   0  3  0  0  0  0  0  0  0  0  0  0
    8.7792    8.9345    6.5296 N   0  5  0  0  0  0  0  0  0  0  0  0
    9.9144   15.0803   -2.4005 C   0  0  0  0  0  0  0  0  0  0  0  0
   12.2820   15.9016   -2.1057 H   0  0  0  0  0  0  0  0  0  0  0  0
   12.6433   14.2729   -1.4430 H   0  0  0  0  0  0  0  0  0  0  0  0
   12.5502   15.6896   -0.3416 H   0  0  0  0  0  0  0  0  0  0  0  0
   11.1801   15.5216    1.4671 H   0  0  0  0  0  0  0  0  0  0  0  0
    9.8632   16.0869    3.0561 H   0  0  0  0  0  0  0  0  0  0  0  0
    8.3666   15.9314    2.0409 H   0  0  0  0  0  0  0  0  0  0  0  0
   10.6409   12.7984    2.2215 H   0  0  0  0  0  0  0  0  0  0  0  0
    8.6083   13.6215    0.2153 H   0  0  0  0  0  0  0  0  0  0  0  0
    6.0686    7.9290    4.4744 H   0  0  0  0  0  0  0  0  0  0  0  0
    5.9976    9.7053    4.3252 H   0  0  0  0  0  0  0  0  0  0  0  0
   10.3348   15.9187   -2.9753 H   0  0  0  0  0  0  0  0  0  0  0  0
    8.8431   15.2589   -2.2260 H   0  0  0  0  0  0  0  0  0  0  0  0
   10.0444   14.1454   -2.9653 H   0  0  0  0  0  0  0  0  0  0  0  0
  1  2  1  0  0  0  0
  1 24  1  0  0  0  0
  1 25  1  0  0  0  0
  1 26  1  0  0  0  0
  2  9  1  0  0  0  0
  2  3  1  0  0  0  0
  2 23  1  0  0  0  0
  3  4  1  0  0  0  0
  4  8  1  0  0  0  0
  4  5  1  0  0  0  0
  4 27  1  0  0  0  0
  5  6  1  0  0  0  0
  5 28  1  0  0  0  0
  5 29  1  0  0  0  0
  6  7  1  0  0  0  0
  7  8  1  0  0  0  0
  7 10  1  0  0  0  0
  7 30  1  0  0  0  0
  8  9  1  0  0  0  0
  8 31  1  0  0  0  0
 10 14  1  0  0  0  0
 10 11  2  0  0  0  0
 11 12  1  0  0  0  0
 11 18  1  0  0  0  0
 12 13  2  0  0  0  0
 12 15  1  0  0  0  0
 13 14  1  0  0  0  0
 15 16  2  0  0  0  0
 15 17  1  0  0  0  0
 17 32  1  0  0  0  0
 17 33  1  0  0  0  0
 18 19  2  0  0  0  0
 18 20  1  0  0  0  0
 20 21  2  0  0  0  0
 21 22  2  0  0  0  0
 23 34  1  0  0  0  0
 23 35  1  0  0  0  0
 23 36  1  0  0  0  0
M  END
> <Name>
ZINC16952887

> <reference>
BDB4977

> <quality>
0.733

> <status>
decoy

> <atoms in reference ligand area>
12

> <score>
-27.8038

$$$$
ZINC20676572
      BALL 1.4.0 (Jan  4 2012, 23:22:29)

 47 49  0999  0  0  0  0  0  0999 V2000
   12.1129   13.5721   -2.8246 C   0  0  0  0  0  0  0  0  0  0  0  0
   11.4078   14.6708   -2.4319 N   0  0  0  0  0  0  0  0  0  0  0  0
   11.1487   14.5358   -1.0914 C   0  0  0  0  0  0  0  0  0  0  0  0
   11.7328   13.3176   -0.7048 C   0  0  0  0  0  0  0  0  0  0  0  0
   12.2995   12.7779   -1.8106 N   0  0  0  0  0  0  0  0  0  0  0  0
   11.6110   12.9201    0.6374 C   0  0  0  0  0  0  0  0  0  0  0  0
   10.9606   13.7183    1.4778 N   0  0  0  0  0  0  0  0  0  0  0  0
   10.4331   14.8577    1.0688 C   0  0  0  0  0  0  0  0  0  0  0  0
   10.5173   15.2675   -0.1793 N   0  0  0  0  0  0  0  0  0  0  0  0
   12.1605   11.7278    1.0754 N   0  0  0  0  0  0  0  0  0  0  0  0
   11.5427   11.0014    2.1876 C   0  0  0  0  0  0  0  0  0  0  0  0
   12.5623   10.0359    2.7950 C   0  0  0  0  0  0  0  0  0  0  0  0
   13.6286   10.8197    3.5162 C   0  0  0  0  0  0  0  0  0  0  0  0
   13.8006   11.9915    3.2555 O   0  0  0  0  0  0  0  0  0  0  0  0
   14.3910   10.2183    4.4508 N   0  0  0  0  0  0  0  0  0  0  0  0
   15.4275   10.9801    5.1518 C   0  0  0  0  0  0  0  0  0  0  0  0
   16.3020   10.0232    5.9645 C   0  0  0  0  0  0  0  0  0  0  0  0
   16.6335   10.6588    7.3162 C   0  0  0  0  0  0  0  0  0  0  0  0
   17.0404    9.6118    8.2629 N   0  0  0  0  0  0  0  0  0  0  0  0
   15.9985    8.5824    8.3900 C   0  0  0  0  0  0  0  0  0  0  0  0
   16.4872    7.4835    9.3374 C   0  0  0  0  0  0  0  0  0  0  0  0
   16.8298    8.0656   10.5980 O   0  0  0  0  0  0  0  0  0  0  0  0
   17.8423    9.0720   10.5114 C   0  0  0  0  0  0  0  0  0  0  0  0
   17.3673   10.1869    9.5759 C   0  0  0  0  0  0  0  0  0  0  0  0
   12.4712   13.3845   -3.8475 H   0  0  0  0  0  0  0  0  0  0  0  0
   11.1220   15.4579   -3.0315 H   0  0  0  0  0  0  0  0  0  0  0  0
    9.9036   15.4880    1.7984 H   0  0  0  0  0  0  0  0  0  0  0  0
   13.0037   11.3511    0.6194 H   0  0  0  0  0  0  0  0  0  0  0  0
   11.2136   11.7171    2.9553 H   0  0  0  0  0  0  0  0  0  0  0  0
   10.6754   10.4337    1.8195 H   0  0  0  0  0  0  0  0  0  0  0  0
   13.0250    9.4386    1.9955 H   0  0  0  0  0  0  0  0  0  0  0  0
   12.0556    9.3669    3.5062 H   0  0  0  0  0  0  0  0  0  0  0  0
   14.2449    9.2230    4.6723 H   0  0  0  0  0  0  0  0  0  0  0  0
   16.0510   11.5122    4.4181 H   0  0  0  0  0  0  0  0  0  0  0  0
   14.9551   11.7078    5.8280 H   0  0  0  0  0  0  0  0  0  0  0  0
   15.7605    9.0796    6.1266 H   0  0  0  0  0  0  0  0  0  0  0  0
   17.2343    9.8217    5.4165 H   0  0  0  0  0  0  0  0  0  0  0  0
   15.7460   11.1792    7.7054 H   0  0  0  0  0  0  0  0  0  0  0  0
   17.4555   11.3789    7.1911 H   0  0  0  0  0  0  0  0  0  0  0  0
   15.7881    8.1474    7.4018 H   0  0  0  0  0  0  0  0  0  0  0  0
   15.0820    9.0355    8.7958 H   0  0  0  0  0  0  0  0  0  0  0  0
   15.6887    6.7408    9.4812 H   0  0  0  0  0  0  0  0  0  0  0  0
   17.3731    6.9935    8.9071 H   0  0  0  0  0  0  0  0  0  0  0  0
   18.0325    9.4887   11.5114 H   0  0  0  0  0  0  0  0  0  0  0  0
   18.7681    8.6300   10.1142 H   0  0  0  0  0  0  0  0  0  0  0  0
   18.1662   10.9343    9.4610 H   0  0  0  0  0  0  0  0  0  0  0  0
   16.4731   10.6659   10.0012 H   0  0  0  0  0  0  0  0  0  0  0  0
  1  5  2  0  0  0  0
  1  2  1  0  0  0  0
  1 25  1  0  0  0  0
  2  3  1  0  0  0  0
  2 26  1  0  0  0  0
  3  9  2  0  0  0  0
  3  4  1  0  0  0  0
  4  5  1  0  0  0  0
  4  6  2  0  0  0  0
  6  7  1  0  0  0  0
  6 10  1  0  0  0  0
  7  8  2  0  0  0  0
  8  9  1  0  0  0  0
  8 27  1  0  0  0  0
 10 11  1  0  0  0  0
 10 28  1  0  0  0  0
 11 12  1  0  0  0  0
 11 29  1  0  0  0  0
 11 30  1  0  0  0  0
 12 13  1  0  0  0  0
 12 31  1  0  0  0  0
 12 32  1  0  0  0  0
 13 14  2  0  0  0  0
 13 15  1  0  0  0  0
 15 16  1  0  0  0  0
 15 33  1  0  0  0  0
 16 17  1  0  0  0  0
 16 34  1  0  0  0  0
 16 35  1  0  0  0  0
 17 18  1  0  0  0  0
 17 36  1  0  0  0  0
 17 37  1  0  0  0  0
 18 19  1  0  0  0  0
 18 38  1  0  0  0  0
 18 39  1  0  0  0  0
 19 24  1  0  0  0  0
 19 20  1  0  0  0  0
 20 21  1  0  0  0  0
 20 40  1  0  0  0  0
 20 41  1  0  0  0  0
 21 22  1  0  0  0  0
 21 42  1  0  0  0  0
 21 43  1  0  0  0  0
 22 23  1  0  0  0  0
 23 24  1  0  0  0  0
 23 44  1  0  0  0  0
 23 45  1  0  0  0  0
 24 46  1  0  0  0  0
 24 47  1  0  0  0  0
M  END
> <Name>
ZINC20676572

> <reference>
BDB5023

> <quality>
0.690

> <status>
decoy

> <atoms in reference ligand area>
10

> <score>
-27.8021

$$$$
ZINC28185584
      BALL 1.4.0 (Jan  4 2012, 23:22:29)

 39 39  0999  0  0  0  0  0  0999 V2000
    9.5702   13.7131   -2.9013 C   0  0  0  0  0  0  0  0  0  0  0  0
    8.8030   12.9677   -1.8398 C   0  0  0  0  0  0  0  0  0  0  0  0
    9.4411   12.6004   -0.6632 C   0  0  0  0  0  0  0  0  0  0  0  0
    8.7111   11.9067    0.3154 C   0  0  0  0  0  0  0  0  0  0  0  0
    7.3663   11.6184    0.0532 C   0  0  0  0  0  0  0  0  0  0  0  0
    6.8157   12.0230   -1.1450 C   0  0  0  0  0  0  0  0  0  0  0  0
    7.5349   12.6731   -2.0397 N   0  0  0  0  0  0  0  0  0  0  0  0
    6.5324   10.8760    1.0655 C   0  0  0  0  0  0  0  0  0  0  0  0
    5.2061   10.7099    0.5601 O   0  0  0  0  0  0  0  0  0  0  0  0
    9.3446   11.4884    1.5811 C   0  0  0  0  0  0  0  0  0  0  0  0
   10.3122   12.1854    2.0811 N   0  0  0  0  0  0  0  0  0  0  0  0
   10.9411   11.7701    3.3374 C   0  0  0  0  0  0  0  0  0  0  0  0
   12.3989   11.3865    3.0756 C   0  0  0  0  0  0  0  0  0  0  0  0
   13.0557   10.9528    4.3877 C   0  0  0  0  0  0  0  0  0  0  0  0
   14.4515   10.5855    4.1371 N   0  0  0  0  0  0  0  0  0  0  0  0
   15.5082   10.4348    5.4031 S   0  0  0  0  0  0  0  0  0  0  0  0
   15.3277   11.6181    6.1689 O   0  0  0  0  0  0  0  0  0  0  0  0
   15.2245    9.1597    5.9624 O   0  0  0  0  0  0  0  0  0  0  0  0
   17.1534   10.4300    4.6392 C   0  0  0  0  0  0  0  0  0  0  0  0
   10.7481   12.9060   -0.4622 O   0  0  0  0  0  0  0  0  0  0  0  0
    8.9392   13.6704   -3.8013 H   0  0  0  0  0  0  0  0  0  0  0  0
   10.4650   13.1039   -3.0964 H   0  0  0  0  0  0  0  0  0  0  0  0
    9.8217   14.7454   -2.6163 H   0  0  0  0  0  0  0  0  0  0  0  0
    5.7598   11.8000   -1.3580 H   0  0  0  0  0  0  0  0  0  0  0  0
    6.4974   11.4485    2.0040 H   0  0  0  0  0  0  0  0  0  0  0  0
    6.9785    9.8884    1.2547 H   0  0  0  0  0  0  0  0  0  0  0  0
    4.8035   11.5980    0.3890 H   0  0  0  0  0  0  0  0  0  0  0  0
    8.9935   10.5837    2.0992 H   0  0  0  0  0  0  0  0  0  0  0  0
   10.9048   12.6006    4.0579 H   0  0  0  0  0  0  0  0  0  0  0  0
   10.4031   10.9036    3.7492 H   0  0  0  0  0  0  0  0  0  0  0  0
   12.4360   10.5558    2.3556 H   0  0  0  0  0  0  0  0  0  0  0  0
   12.9389   12.2523    2.6647 H   0  0  0  0  0  0  0  0  0  0  0  0
   12.5175   10.0863    4.7994 H   0  0  0  0  0  0  0  0  0  0  0  0
   13.0193   11.7833    5.1081 H   0  0  0  0  0  0  0  0  0  0  0  0
   14.7756   10.4209    3.1733 H   0  0  0  0  0  0  0  0  0  0  0  0
   17.2572    9.6166    3.9059 H   0  0  0  0  0  0  0  0  0  0  0  0
   17.9507   10.3698    5.3946 H   0  0  0  0  0  0  0  0  0  0  0  0
   17.2761   11.3812    4.1007 H   0  0  0  0  0  0  0  0  0  0  0  0
   11.2427   12.1036   -0.7651 H   0  0  0  0  0  0  0  0  0  0  0  0
  1  2  1  0  0  0  0
  1 21  1  0  0  0  0
  1 22  1  0  0  0  0
  1 23  1  0  0  0  0
  2  7  2  0  0  0  0
  2  3  1  0  0  0  0
  3  4  2  0  0  0  0
  3 20  1  0  0  0  0
  4  5  1  0  0  0  0
  4 10  1  0  0  0  0
  5  6  2  0  0  0  0
  5  8  1  0  0  0  0
  6  7  1  0  0  0  0
  6 24  1  0  0  0  0
  8  9  1  0  0  0  0
  8 25  1  0  0  0  0
  8 26  1  0  0  0  0
  9 27  1  0  0  0  0
 10 11  2  0  0  0  0
 10 28  1  0  0  0  0
 11 12  1  0  0  0  0
 12 13  1  0  0  0  0
 12 29  1  0  0  0  0
 12 30  1  0  0  0  0
 13 14  1  0  0  0  0
 13 31  1  0  0  0  0
 13 32  1  0  0  0  0
 14 15  1  0  0  0  0
 14 33  1  0  0  0  0
 14 34  1  0  0  0  0
 15 16  1  0  0  0  0
 15 35  1  0  0  0  0
 16 17  2  0  0  0  0
 16 18  2  0  0  0  0
 16 19  1  0  0  0  0
 19 36  1  0  0  0  0
 19 37  1  0  0  0  0
 19 38  1  0  0  0  0
 20 39  1  0  0  0  0
M  END
> <Name>
ZINC28185584

> <reference>
BDB5195

> <quality>
0.747

> <status>
decoy

> <atoms in reference ligand area>
23

> <score>
-27.7883

$$$$
ZINC14709525
      BALL 1.4.0 (Jan  4 2012, 23:22:29)

 30 30  0999  0  0  0  0  0  0999 V2000
   11.8930   15.5119   -1.7630 C   0  0  0  0  0  0  0  0  0  0  0  0
   10.5173   15.7259   -1.1286 C   0  0  0  0  0  0  0  0  0  0  0  0
    9.5817   14.6331   -1.5773 C   0  0  0  0  0  0  0  0  0  0  0  0
    8.3757   14.3173   -1.0152 N   0  0  0  0  0  0  0  0  0  0  0  0
    7.8892   13.2718   -1.7465 C   0  0  0  0  0  0  0  0  0  0  0  0
    8.7763   13.0081   -2.6776 N   0  0  0  0  0  0  0  0  0  0  0  0
    9.7720   13.8141   -2.5727 N   0  0  0  0  0  0  0  0  0  0  0  0
    6.3631   12.4309   -1.4852 S   0  0  0  0  0  0  0  0  0  0  0  0
    6.9804   10.8390   -0.8842 C   0  0  0  0  0  0  0  0  0  0  0  0
    5.8834   10.1240   -0.1383 C   0  0  0  0  0  0  0  0  0  0  0  0
    4.7904   10.6404   -0.0241 O   0  0  0  0  0  0  0  0  0  0  0  0
    6.1271    8.8501    0.4293 C   0  0  0  0  0  0  0  0  0  0  0  0
    5.5436    8.5073    1.6358 C   0  0  0  0  0  0  0  0  0  0  0  0
    4.8630    7.1718    1.7911 C   0  0  0  0  0  0  0  0  0  0  0  0
    5.5838    9.3686    2.6735 N   0  0  0  0  0  0  0  0  0  0  0  0
    6.9778    7.9164   -0.2456 C   0  0  0  0  0  0  0  0  0  0  0  0
    7.6525    7.1758   -0.7810 N   0  0  0  0  0  0  0  0  0  0  0  0
   11.9891   14.4655   -2.0883 H   0  0  0  0  0  0  0  0  0  0  0  0
   12.6771   15.7397   -1.0260 H   0  0  0  0  0  0  0  0  0  0  0  0
   12.0041   16.1766   -2.6323 H   0  0  0  0  0  0  0  0  0  0  0  0
   10.6107   15.7009   -0.0329 H   0  0  0  0  0  0  0  0  0  0  0  0
   10.1163   16.7017   -1.4403 H   0  0  0  0  0  0  0  0  0  0  0  0
    7.9273   14.7734   -0.2078 H   0  0  0  0  0  0  0  0  0  0  0  0
    7.8329   11.0061   -0.2095 H   0  0  0  0  0  0  0  0  0  0  0  0
    7.3031   10.2249   -1.7379 H   0  0  0  0  0  0  0  0  0  0  0  0
    5.3651    8.2677    0.9679 H   0  0  0  0  0  0  0  0  0  0  0  0
    3.9039    7.3951    2.2812 H   0  0  0  0  0  0  0  0  0  0  0  0
    5.4782    6.6201    2.5172 H   0  0  0  0  0  0  0  0  0  0  0  0
    4.7353    6.6245    0.8455 H   0  0  0  0  0  0  0  0  0  0  0  0
    6.0491   10.2814    2.5674 H   0  0  0  0  0  0  0  0  0  0  0  0
  1  2  1  0  0  0  0
  1 18  1  0  0  0  0
  1 19  1  0  0  0  0
  1 20  1  0  0  0  0
  2  3  1  0  0  0  0
  2 21  1  0  0  0  0
  2 22  1  0  0  0  0
  3  7  2  0  0  0  0
  3  4  1  0  0  0  0
  4  5  1  0  0  0  0
  4 23  1  0  0  0  0
  5  6  2  0  0  0  0
  5  8  1  0  0  0  0
  6  7  1  0  0  0  0
  8  9  1  0  0  0  0
  9 10  1  0  0  0  0
  9 24  1  0  0  0  0
  9 25  1  0  0  0  0
 10 11  2  0  0  0  0
 10 12  1  0  0  0  0
 12 16  1  0  0  0  0
 12 13  1  0  0  0  0
 12 26  1  0  0  0  0
 13 14  1  0  0  0  0
 13 15  2  0  0  0  0
 14 27  1  0  0  0  0
 14 28  1  0  0  0  0
 14 29  1  0  0  0  0
 15 30  1  0  0  0  0
 16 17  3  0  0  0  0
M  END
> <Name>
ZINC14709525

> <reference>
BDB5204

> <quality>
0.839

> <status>
decoy

> <atoms in reference ligand area>
11

> <score>
-27.7847

$$$$
ZINC21993044
      BALL 1.4.0 (Jan  4 2012, 23:22:29)

 46 48  0999  0  0  0  0  0  0999 V2000
    3.9823    8.6128    5.6232 C   0  0  0  0  0  0  0  0  0  0  0  0
    5.0209    7.7119    5.2336 O   0  0  0  0  0  0  0  0  0  0  0  0
    5.6070    8.0158    3.9808 N   0  0  0  0  0  0  0  0  0  0  0  0
    5.0065    7.6643    2.8774 C   0  0  0  0  0  0  0  0  0  0  0  0
    3.7185    6.9513    2.9345 C   0  0  0  0  0  0  0  0  0  0  0  0
    3.2605    6.0515    2.0192 C   0  0  0  0  0  0  0  0  0  0  0  0
    1.9976    5.6241    2.4682 C   0  0  0  0  0  0  0  0  0  0  0  0
    1.7466    6.2753    3.6229 C   0  0  0  0  0  0  0  0  0  0  0  0
    2.7901    7.0710    3.9041 O   0  0  0  0  0  0  0  0  0  0  0  0
    5.6202    7.9823    1.5660 C   0  0  0  0  0  0  0  0  0  0  0  0
    6.0737    7.0914    0.8753 O   0  0  0  0  0  0  0  0  0  0  0  0
    5.6750    9.2597    1.1397 N   0  0  0  0  0  0  0  0  0  0  0  0
    6.2815    9.5740   -0.1564 C   0  0  0  0  0  0  0  0  0  0  0  0
    5.6319   10.7771   -0.8656 C   0  0  0  0  0  0  0  0  0  0  0  0
    7.0716   11.0726   -1.2936 C   0  0  0  0  0  0  0  0  0  0  0  0
    7.4895   10.3781   -0.0544 N   0  3  0  0  0  0  0  0  0  0  0  0
    8.5827   10.6016    0.7784 C   0  0  0  0  0  0  0  0  0  0  0  0
    9.2949   11.7099    0.6546 C   0  0  0  0  0  0  0  0  0  0  0  0
    9.1272   12.8119   -0.3234 C   0  0  0  0  0  0  0  0  0  0  0  0
    7.5386   12.8227   -1.1817 S   0  0  0  0  0  0  0  0  0  0  0  0
   10.4254   11.8741    1.6375 C   0  0  0  0  0  0  0  0  0  0  0  0
   10.8842   13.2516    1.6219 O   0  0  0  0  0  0  0  0  0  0  0  0
   10.3635   14.0799    2.5468 C   0  0  0  0  0  0  0  0  0  0  0  0
   10.1570   15.2453    2.2714 O   0  0  0  0  0  0  0  0  0  0  0  0
   10.0713   13.6164    3.7781 N   0  0  0  0  0  0  0  0  0  0  0  0
    8.9475    9.6017    1.7990 C   0  0  0  0  0  0  0  0  0  0  0  0
    9.4848    8.5635    1.4676 O   0  0  0  0  0  0  0  0  0  0  0  0
    8.6848    9.8394    3.0993 O   0  5  0  0  0  0  0  0  0  0  0  0
    3.5846    8.2637    6.5875 H   0  0  0  0  0  0  0  0  0  0  0  0
    3.1828    8.5428    4.8709 H   0  0  0  0  0  0  0  0  0  0  0  0
    4.3529    9.6454    5.7044 H   0  0  0  0  0  0  0  0  0  0  0  0
    3.7782    5.7229    1.1060 H   0  0  0  0  0  0  0  0  0  0  0  0
    1.3390    4.8963    1.9716 H   0  0  0  0  0  0  0  0  0  0  0  0
    0.8372    6.1713    4.2329 H   0  0  0  0  0  0  0  0  0  0  0  0
    5.2906   10.0149    1.7252 H   0  0  0  0  0  0  0  0  0  0  0  0
    6.2863    8.5677   -0.6008 H   0  0  0  0  0  0  0  0  0  0  0  0
    5.0137   10.4579   -1.7177 H   0  0  0  0  0  0  0  0  0  0  0  0
    5.2633   11.5212   -0.1443 H   0  0  0  0  0  0  0  0  0  0  0  0
    7.4161   10.8130   -2.3055 H   0  0  0  0  0  0  0  0  0  0  0  0
    8.4716   11.5885   -0.0647 H   0  0  0  0  0  0  0  0  0  0  0  0
    9.2551   13.7684    0.2044 H   0  0  0  0  0  0  0  0  0  0  0  0
    9.9349   12.7449   -1.0671 H   0  0  0  0  0  0  0  0  0  0  0  0
   11.2555   11.2088    1.3578 H   0  0  0  0  0  0  0  0  0  0  0  0
   10.0736   11.6169    2.6475 H   0  0  0  0  0  0  0  0  0  0  0  0
    9.8201   14.2742    4.5298 H   0  0  0  0  0  0  0  0  0  0  0  0
   10.0993   12.6044    3.9675 H   0  0  0  0  0  0  0  0  0  0  0  0
  1  2  1  0  0  0  0
  1 29  1  0  0  0  0
  1 30  1  0  0  0  0
  1 31  1  0  0  0  0
  2  3  1  0  0  0  0
  3  4  2  0  0  0  0
  4  5  1  0  0  0  0
  4 10  1  0  0  0  0
  5  9  1  0  0  0  0
  5  6  2  0  0  0  0
  6  7  1  0  0  0  0
  6 32  1  0  0  0  0
  7  8  2  0  0  0  0
  7 33  1  0  0  0  0
  8  9  1  0  0  0  0
  8 34  1  0  0  0  0
 10 11  2  0  0  0  0
 10 12  1  0  0  0  0
 12 13  1  0  0  0  0
 12 35  1  0  0  0  0
 13 16  1  0  0  0  0
 13 14  1  0  0  0  0
 13 36  1  0  0  0  0
 14 15  1  0  0  0  0
 14 37  1  0  0  0  0
 14 38  1  0  0  0  0
 15 20  1  0  0  0  0
 15 16  1  0  0  0  0
 15 39  1  0  0  0  0
 16 17  2  0  0  0  0
 17 18  1  0  0  0  0
 17 26  1  0  0  0  0
 18 19  1  0  0  0  0
 18 21  1  0  0  0  0
 18 40  1  0  0  0  0
 19 20  1  0  0  0  0
 19 41  1  0  0  0  0
 19 42  1  0  0  0  0
 21 22  1  0  0  0  0
 21 43  1  0  0  0  0
 21 44  1  0  0  0  0
 22 23  1  0  0  0  0
 23 24  2  0  0  0  0
 23 25  1  0  0  0  0
 25 45  1  0  0  0  0
 25 46  1  0  0  0  0
 26 27  2  0  0  0  0
 26 28  1  0  0  0  0
M  END
> <Name>
ZINC21993044

> <reference>
BDB4965

> <quality>
0.674

> <status>
decoy

> <atoms in reference ligand area>
21

> <score>
-27.6555

$$$$
ZINC04824070
      BALL 1.4.0 (Jan  4 2012, 23:22:29)

 39 39  0999  0  0  0  0  0  0999 V2000
    5.0725    9.0679    4.3039 C   0  0  0  0  0  0  0  0  0  0  0  0
    5.8280    8.9480    3.0697 O   0  0  0  0  0  0  0  0  0  0  0  0
    6.8249    9.8334    2.8741 C   0  0  0  0  0  0  0  0  0  0  0  0
    6.7158   10.6929    2.0220 O   0  0  0  0  0  0  0  0  0  0  0  0
    8.0469    9.7593    3.6932 C   0  0  0  0  0  0  0  0  0  0  0  0
    8.0125    9.1591    4.9553 C   0  0  0  0  0  0  0  0  0  0  0  0
    9.1587    9.0928    5.7158 C   0  0  0  0  0  0  0  0  0  0  0  0
   10.3488    9.6183    5.2370 C   0  0  0  0  0  0  0  0  0  0  0  0
   10.4008   10.2091    3.9915 C   0  0  0  0  0  0  0  0  0  0  0  0
    9.2538   10.2906    3.2112 C   0  0  0  0  0  0  0  0  0  0  0  0
    9.3025   10.8889    1.9594 N   0  0  0  0  0  0  0  0  0  0  0  0
   10.4458   11.7282    1.5926 C   0  0  0  0  0  0  0  0  0  0  0  0
   10.0551   12.6425    0.4297 C   0  0  0  0  0  0  0  0  0  0  0  0
   10.9657   12.3624   -0.7675 C   0  0  0  0  0  0  0  0  0  0  0  0
   10.4243   13.0882   -2.0009 C   0  0  0  0  0  0  0  0  0  0  0  0
   10.6165   14.5964   -1.8304 C   0  0  0  0  0  0  0  0  0  0  0  0
   11.8335   14.9962   -2.4637 O   0  0  0  0  0  0  0  0  0  0  0  0
   11.1305   12.6462   -3.1619 O   0  0  0  0  0  0  0  0  0  0  0  0
   12.2857   12.8290   -0.4814 O   0  0  0  0  0  0  0  0  0  0  0  0
    8.6965   12.3933    0.0634 O   0  0  0  0  0  0  0  0  0  0  0  0
    4.6929    8.0613    4.5339 H   0  0  0  0  0  0  0  0  0  0  0  0
    4.2094    9.7112    4.0777 H   0  0  0  0  0  0  0  0  0  0  0  0
    5.6739    9.4729    5.1311 H   0  0  0  0  0  0  0  0  0  0  0  0
    7.0711    8.7404    5.3405 H   0  0  0  0  0  0  0  0  0  0  0  0
    9.1297    8.6202    6.7087 H   0  0  0  0  0  0  0  0  0  0  0  0
   11.2577    9.5639    5.8542 H   0  0  0  0  0  0  0  0  0  0  0  0
   11.3511   10.6160    3.6156 H   0  0  0  0  0  0  0  0  0  0  0  0
    8.5346   10.7428    1.2886 H   0  0  0  0  0  0  0  0  0  0  0  0
   10.7431   12.3410    2.4563 H   0  0  0  0  0  0  0  0  0  0  0  0
   11.2884   11.0895    1.2888 H   0  0  0  0  0  0  0  0  0  0  0  0
   10.1653   13.6932    0.7362 H   0  0  0  0  0  0  0  0  0  0  0  0
   10.9935   11.2800   -0.9617 H   0  0  0  0  0  0  0  0  0  0  0  0
    9.3532   12.8658   -2.1165 H   0  0  0  0  0  0  0  0  0  0  0  0
   10.6634   14.8425   -0.7593 H   0  0  0  0  0  0  0  0  0  0  0  0
    9.7715   15.1283   -2.2921 H   0  0  0  0  0  0  0  0  0  0  0  0
   11.6863   15.0823   -3.4389 H   0  0  0  0  0  0  0  0  0  0  0  0
   11.8236   13.3114   -3.4008 H   0  0  0  0  0  0  0  0  0  0  0  0
   12.9484   12.1802   -0.8280 H   0  0  0  0  0  0  0  0  0  0  0  0
    8.1675   13.2234    0.1697 H   0  0  0  0  0  0  0  0  0  0  0  0
  1  2  1  0  0  0  0
  1 21  1  0  0  0  0
  1 22  1  0  0  0  0
  1 23  1  0  0  0  0
  2  3  1  0  0  0  0
  3  4  2  0  0  0  0
  3  5  1  0  0  0  0
  5 10  2  0  0  0  0
  5  6  1  0  0  0  0
  6  7  2  0  0  0  0
  6 24  1  0  0  0  0
  7  8  1  0  0  0  0
  7 25  1  0  0  0  0
  8  9  2  0  0  0  0
  8 26  1  0  0  0  0
  9 10  1  0  0  0  0
  9 27  1  0  0  0  0
 10 11  1  0  0  0  0
 11 12  1  0  0  0  0
 11 28  1  0  0  0  0
 12 13  1  0  0  0  0
 12 29  1  0  0  0  0
 12 30  1  0  0  0  0
 13 14  1  0  0  0  0
 13 20  1  0  0  0  0
 13 31  1  0  0  0  0
 14 15  1  0  0  0  0
 14 19  1  0  0  0  0
 14 32  1  0  0  0  0
 15 16  1  0  0  0  0
 15 18  1  0  0  0  0
 15 33  1  0  0  0  0
 16 17  1  0  0  0  0
 16 34  1  0  0  0  0
 16 35  1  0  0  0  0
 17 36  1  0  0  0  0
 18 37  1  0  0  0  0
 19 38  1  0  0  0  0
 20 39  1  0  0  0  0
M  END
> <Name>
ZINC04824070

> <reference>
BDB4986

> <quality>
0.712

> <status>
decoy

> <atoms in reference ligand area>
19

> <score>
-27.6043

$$$$
ZINC08713733
      BALL 1.4.0 (Jan  4 2012, 23:22:29)

 38 39  0999  0  0  0  0  0  0999 V2000
   13.2403   12.8714    4.0559 C   0  0  0  0  0  0  0  0  0  0  0  0
   11.8054   12.9010    3.7619 N   0  0  0  0  0  0  0  0  0  0  0  0
   11.3261   12.2577    2.6789 C   0  0  0  0  0  0  0  0  0  0  0  0
   12.0849   11.6526    1.9454 O   0  0  0  0  0  0  0  0  0  0  0  0
    9.8922   12.2873    2.3852 C   0  0  0  0  0  0  0  0  0  0  0  0
    9.3542   13.3488    2.0029 N   0  3  0  0  0  0  0  0  0  0  0  0
    8.8705   14.3034    1.6593 N   0  0  0  0  0  0  0  0  0  0  0  0
    9.0884   11.0734    2.5390 C   0  0  0  0  0  0  0  0  0  0  0  0
    9.5643   10.0933    3.0802 O   0  0  0  0  0  0  0  0  0  0  0  0
    7.8212   11.0419    2.0812 N   0  0  0  0  0  0  0  0  0  0  0  0
    6.9225   10.0860    2.5726 N   0  0  0  0  0  0  0  0  0  0  0  0
    7.1797    9.1436    3.5029 C   0  0  0  0  0  0  0  0  0  0  0  0
    6.0257    8.4324    3.6748 C   0  0  0  0  0  0  0  0  0  0  0  0
    5.0843    8.9468    2.8650 N   0  0  0  0  0  0  0  0  0  0  0  0
    5.5808    9.9289    2.1967 N   0  0  0  0  0  0  0  0  0  0  0  0
    5.8425    7.2973    4.5966 C   0  0  0  0  0  0  0  0  0  0  0  0
    7.0509    6.0908    4.7197 S   0  0  0  0  0  0  0  0  0  0  0  0
    4.7237    7.2090    5.3429 N   0  0  0  0  0  0  0  0  0  0  0  0
    3.9369    8.4078    5.6731 C   0  0  0  0  0  0  0  0  0  0  0  0
    2.4687    8.1325    5.3288 C   0  0  0  0  0  0  0  0  0  0  0  0
    2.0597    6.9129    5.9527 O   0  0  0  0  0  0  0  0  0  0  0  0
    2.7726    5.7580    5.5036 C   0  0  0  0  0  0  0  0  0  0  0  0
    4.2563    5.9118    5.8568 C   0  0  0  0  0  0  0  0  0  0  0  0
   13.3245   13.1893    5.1056 H   0  0  0  0  0  0  0  0  0  0  0  0
   13.6762   13.6699    3.4374 H   0  0  0  0  0  0  0  0  0  0  0  0
   13.7124   11.8946    3.8741 H   0  0  0  0  0  0  0  0  0  0  0  0
   11.1629   13.4133    4.3828 H   0  0  0  0  0  0  0  0  0  0  0  0
    7.8792   14.3069    1.3798 H   0  0  0  0  0  0  0  0  0  0  0  0
    7.5135   11.7204    1.3700 H   0  0  0  0  0  0  0  0  0  0  0  0
    8.1348    8.9794    4.0233 H   0  0  0  0  0  0  0  0  0  0  0  0
    4.2993    9.2631    5.0838 H   0  0  0  0  0  0  0  0  0  0  0  0
    4.0289    8.6262    6.7473 H   0  0  0  0  0  0  0  0  0  0  0  0
    1.8439    8.9599    5.6960 H   0  0  0  0  0  0  0  0  0  0  0  0
    2.3569    8.0418    4.2382 H   0  0  0  0  0  0  0  0  0  0  0  0
    2.3691    4.8619    5.9976 H   0  0  0  0  0  0  0  0  0  0  0  0
    2.6638    5.6586    4.4135 H   0  0  0  0  0  0  0  0  0  0  0  0
    4.8326    5.0996    5.3896 H   0  0  0  0  0  0  0  0  0  0  0  0
    4.3801    5.8796    6.9494 H   0  0  0  0  0  0  0  0  0  0  0  0
  1  2  1  0  0  0  0
  1 24  1  0  0  0  0
  1 25  1  0  0  0  0
  1 26  1  0  0  0  0
  2  3  1  0  0  0  0
  2 27  1  0  0  0  0
  3  4  2  0  0  0  0
  3  5  1  0  0  0  0
  5  6  2  0  0  0  0
  5  8  1  0  0  0  0
  6  7  2  0  0  0  0
  7 28  1  0  0  0  0
  8  9  2  0  0  0  0
  8 10  1  0  0  0  0
 10 11  1  0  0  0  0
 10 29  1  0  0  0  0
 11 15  1  0  0  0  0
 11 12  1  0  0  0  0
 12 13  2  0  0  0  0
 12 30  1  0  0  0  0
 13 14  1  0  0  0  0
 13 16  1  0  0  0  0
 14 15  2  0  0  0  0
 16 17  2  0  0  0  0
 16 18  1  0  0  0  0
 18 23  1  0  0  0  0
 18 19  1  0  0  0  0
 19 20  1  0  0  0  0
 19 31  1  0  0  0  0
 19 32  1  0  0  0  0
 20 21  1  0  0  0  0
 20 33  1  0  0  0  0
 20 34  1  0  0  0  0
 21 22  1  0  0  0  0
 22 23  1  0  0  0  0
 22 35  1  0  0  0  0
 22 36  1  0  0  0  0
 23 37  1  0  0  0  0
 23 38  1  0  0  0  0
M  END
> <Name>
ZINC08713733

> <reference>
BDB4932

> <quality>
0.687

> <status>
decoy

> <atoms in reference ligand area>
11

> <score>
-27.5886

$$$$
ZINC05840091
      BALL 1.4.0 (Jan  4 2012, 23:22:29)

 44 46  0999  0  0  0  0  0  0999 V2000
    9.5158   17.3335    0.1571 C   0  0  0  0  0  0  0  0  0  0  0  0
    9.2402   15.9583   -0.4543 C   0  0  0  0  0  0  0  0  0  0  0  0
   11.1501   16.0794   -1.9377 C   0  0  0  0  0  0  0  0  0  0  0  0
   12.6627   15.8530   -1.8967 C   0  0  0  0  0  0  0  0  0  0  0  0
   10.3125   13.9254   -1.2158 C   0  0  0  0  0  0  0  0  0  0  0  0
   10.3667   13.0658    0.0208 C   0  0  0  0  0  0  0  0  0  0  0  0
    9.1976   12.6035    0.5920 C   0  0  0  0  0  0  0  0  0  0  0  0
    9.2478   11.8114    1.7316 C   0  0  0  0  0  0  0  0  0  0  0  0
   10.4744   11.4847    2.2959 C   0  0  0  0  0  0  0  0  0  0  0  0
   11.6422   11.9476    1.7237 C   0  0  0  0  0  0  0  0  0  0  0  0
   11.5914   12.7343    0.5817 C   0  0  0  0  0  0  0  0  0  0  0  0
   12.7422   13.1849    0.0153 O   0  0  0  0  0  0  0  0  0  0  0  0
    8.0635   11.3422    2.3107 N   0  0  0  0  0  0  0  0  0  0  0  0
    7.9035   10.0232    2.5447 C   0  0  0  0  0  0  0  0  0  0  0  0
    8.9281    9.1896    2.5052 N   0  0  0  0  0  0  0  0  0  0  0  0
    8.8186    7.8778    2.6828 C   0  0  0  0  0  0  0  0  0  0  0  0
    7.6551    7.2411    2.5933 N   0  0  0  0  0  0  0  0  0  0  0  0
    6.5968    8.0051    2.3339 C   0  0  0  0  0  0  0  0  0  0  0  0
    5.4841    7.8557    1.6876 N   0  0  0  0  0  0  0  0  0  0  0  0
    4.8900    9.0339    1.4555 C   0  0  0  0  0  0  0  0  0  0  0  0
    5.4619   10.0260    2.0780 N   0  0  0  0  0  0  0  0  0  0  0  0
    6.5503    9.4437    2.8677 C   0  0  0  0  0  0  0  0  0  0  0  0
   10.5281   15.3339   -0.8232 N   0  3  0  0  0  0  0  0  0  0  0  0
    9.6485   17.2382    1.2449 H   0  0  0  0  0  0  0  0  0  0  0  0
    8.6748   18.0105   -0.0536 H   0  0  0  0  0  0  0  0  0  0  0  0
   10.4337   17.7488   -0.2843 H   0  0  0  0  0  0  0  0  0  0  0  0
    8.7218   15.3255    0.2811 H   0  0  0  0  0  0  0  0  0  0  0  0
    8.6161   16.0721   -1.3529 H   0  0  0  0  0  0  0  0  0  0  0  0
   10.7476   15.7145   -2.8942 H   0  0  0  0  0  0  0  0  0  0  0  0
   10.9350   17.1526   -1.8281 H   0  0  0  0  0  0  0  0  0  0  0  0
   13.1834   16.7355   -2.2968 H   0  0  0  0  0  0  0  0  0  0  0  0
   12.9243   14.9678   -2.4950 H   0  0  0  0  0  0  0  0  0  0  0  0
   12.9760   15.6903   -0.8549 H   0  0  0  0  0  0  0  0  0  0  0  0
   11.1011   13.6136   -1.9163 H   0  0  0  0  0  0  0  0  0  0  0  0
    9.3271   13.8233   -1.6940 H   0  0  0  0  0  0  0  0  0  0  0  0
    8.2267   12.8627    0.1445 H   0  0  0  0  0  0  0  0  0  0  0  0
   10.5152   10.8572    3.1985 H   0  0  0  0  0  0  0  0  0  0  0  0
   12.6134   11.6927    2.1731 H   0  0  0  0  0  0  0  0  0  0  0  0
   13.1970   12.3719   -0.3201 H   0  0  0  0  0  0  0  0  0  0  0  0
    7.3139   12.0039    2.5584 H   0  0  0  0  0  0  0  0  0  0  0  0
    9.7241    7.2968    2.9124 H   0  0  0  0  0  0  0  0  0  0  0  0
    4.0099    9.1518    0.8063 H   0  0  0  0  0  0  0  0  0  0  0  0
    6.3694    9.5952    3.9422 H   0  0  0  0  0  0  0  0  0  0  0  0
   11.1585   15.3616   -0.0091 H   0  0  0  0  0  0  0  0  0  0  0  0
  1  2  1  0  0  0  0
  1 24  1  0  0  0  0
  1 25  1  0  0  0  0
  1 26  1  0  0  0  0
  2 23  1  0  0  0  0
  2 27  1  0  0  0  0
  2 28  1  0  0  0  0
  3  4  1  0  0  0  0
  3 23  1  0  0  0  0
  3 29  1  0  0  0  0
  3 30  1  0  0  0  0
  4 31  1  0  0  0  0
  4 32  1  0  0  0  0
  4 33  1  0  0  0  0
  5  6  1  0  0  0  0
  5 23  1  0  0  0  0
  5 34  1  0  0  0  0
  5 35  1  0  0  0  0
  6 11  2  0  0  0  0
  6  7  1  0  0  0  0
  7  8  2  0  0  0  0
  7 36  1  0  0  0  0
  8  9  1  0  0  0  0
  8 13  1  0  0  0  0
  9 10  2  0  0  0  0
  9 37  1  0  0  0  0
 10 11  1  0  0  0  0
 10 38  1  0  0  0  0
 11 12  1  0  0  0  0
 12 39  1  0  0  0  0
 13 14  1  0  0  0  0
 13 40  1  0  0  0  0
 14 22  1  0  0  0  0
 14 15  2  0  0  0  0
 15 16  1  0  0  0  0
 16 17  2  0  0  0  0
 16 41  1  0  0  0  0
 17 18  1  0  0  0  0
 18 22  1  0  0  0  0
 18 19  2  0  0  0  0
 19 20  1  0  0  0  0
 20 21  2  0  0  0  0
 20 42  1  0  0  0  0
 21 22  1  0  0  0  0
 22 43  1  0  0  0  0
 23 44  1  0  0  0  0
M  END
> <Name>
ZINC05840091

> <reference>
BDB5200

> <quality>
0.794

> <status>
decoy

> <atoms in reference ligand area>
13

> <score>
-27.5793

$$$$
ZINC04039469
      BALL 1.4.0 (Jan  4 2012, 23:22:29)

 40 41  0999  0  0  0  0  0  0999 V2000
   12.2103   15.6035   -1.8349 C   0  0  0  0  0  0  0  0  0  0  0  0
   11.9348   14.3504   -1.0015 C   0  0  0  0  0  0  0  0  0  0  0  0
   11.1056   14.7275    0.2278 C   0  0  0  0  0  0  0  0  0  0  0  0
   10.4258   13.4975    0.7718 C   0  0  0  0  0  0  0  0  0  0  0  0
   10.8643   12.9051    1.9130 C   0  0  0  0  0  0  0  0  0  0  0  0
   10.2114   11.7547    2.4017 C   0  0  0  0  0  0  0  0  0  0  0  0
   10.6216   11.2271    3.4198 O   0  0  0  0  0  0  0  0  0  0  0  0
    9.1492   11.2264    1.7736 O   0  0  0  0  0  0  0  0  0  0  0  0
    8.6558   11.7733    0.6419 C   0  0  0  0  0  0  0  0  0  0  0  0
    9.2628   12.9195    0.0951 C   0  0  0  0  0  0  0  0  0  0  0  0
    8.7510   13.4927   -1.0743 C   0  0  0  0  0  0  0  0  0  0  0  0
    7.6657   12.9336   -1.6850 C   0  0  0  0  0  0  0  0  0  0  0  0
    7.0642   11.7957   -1.1516 C   0  0  0  0  0  0  0  0  0  0  0  0
    7.5578   11.2151    0.0056 C   0  0  0  0  0  0  0  0  0  0  0  0
    6.8995    9.9844    0.5740 C   0  0  0  0  0  0  0  0  0  0  0  0
    5.9267    8.4299   -1.0071 C   0  0  0  0  0  0  0  0  0  0  0  0
    5.0215    7.6782   -0.0289 C   0  0  0  0  0  0  0  0  0  0  0  0
    6.2789    7.5268   -2.1609 C   0  0  0  0  0  0  0  0  0  0  0  0
    7.2628    6.8279   -2.1025 O   0  0  0  0  0  0  0  0  0  0  0  0
    5.9859   11.2512   -1.7709 O   0  5  0  0  0  0  0  0  0  0  0  0
    7.1646    8.8392   -0.3171 N   0  3  0  0  0  0  0  0  0  0  0  0
    5.4996    7.4988   -3.2535 O   0  5  0  0  0  0  0  0  0  0  0  0
   11.2684   16.1453   -2.0068 H   0  0  0  0  0  0  0  0  0  0  0  0
   12.6474   15.3134   -2.8018 H   0  0  0  0  0  0  0  0  0  0  0  0
   12.9140   16.2554   -1.2965 H   0  0  0  0  0  0  0  0  0  0  0  0
   11.3785   13.6211   -1.6087 H   0  0  0  0  0  0  0  0  0  0  0  0
   12.8880   13.9070   -0.6779 H   0  0  0  0  0  0  0  0  0  0  0  0
   10.3456   15.4708   -0.0551 H   0  0  0  0  0  0  0  0  0  0  0  0
   11.7650   15.1526    0.9988 H   0  0  0  0  0  0  0  0  0  0  0  0
   11.7264   13.3217    2.4545 H   0  0  0  0  0  0  0  0  0  0  0  0
    9.2218   14.3910   -1.5002 H   0  0  0  0  0  0  0  0  0  0  0  0
    7.2635   13.3843   -2.6043 H   0  0  0  0  0  0  0  0  0  0  0  0
    7.3109    9.7754    1.5725 H   0  0  0  0  0  0  0  0  0  0  0  0
    5.8143   10.1479    0.6483 H   0  0  0  0  0  0  0  0  0  0  0  0
    5.3996    9.3201   -1.3809 H   0  0  0  0  0  0  0  0  0  0  0  0
    4.1904    7.2136   -0.5798 H   0  0  0  0  0  0  0  0  0  0  0  0
    4.6196    8.3818    0.7150 H   0  0  0  0  0  0  0  0  0  0  0  0
    5.6026    6.8970    0.4832 H   0  0  0  0  0  0  0  0  0  0  0  0
    7.8717    9.1072   -1.0164 H   0  0  0  0  0  0  0  0  0  0  0  0
    7.5223    8.0490    0.2382 H   0  0  0  0  0  0  0  0  0  0  0  0
  1  2  1  0  0  0  0
  1 23  1  0  0  0  0
  1 24  1  0  0  0  0
  1 25  1  0  0  0  0
  2  3  1  0  0  0  0
  2 26  1  0  0  0  0
  2 27  1  0  0  0  0
  3  4  1  0  0  0  0
  3 28  1  0  0  0  0
  3 29  1  0  0  0  0
  4 10  1  0  0  0  0
  4  5  2  0  0  0  0
  5  6  1  0  0  0  0
  5 30  1  0  0  0  0
  6  7  2  0  0  0  0
  6  8  1  0  0  0  0
  8  9  1  0  0  0  0
  9 14  2  0  0  0  0
  9 10  1  0  0  0  0
 10 11  2  0  0  0  0
 11 12  1  0  0  0  0
 11 31  1  0  0  0  0
 12 13  2  0  0  0  0
 12 32  1  0  0  0  0
 13 14  1  0  0  0  0
 13 20  1  0  0  0  0
 14 15  1  0  0  0  0
 15 21  1  0  0  0  0
 15 33  1  0  0  0  0
 15 34  1  0  0  0  0
 16 17  1  0  0  0  0
 16 18  1  0  0  0  0
 16 21  1  0  0  0  0
 16 35  1  0  0  0  0
 17 36  1  0  0  0  0
 17 37  1  0  0  0  0
 17 38  1  0  0  0  0
 18 19  2  0  0  0  0
 18 22  1  0  0  0  0
 21 39  1  0  0  0  0
 21 40  1  0  0  0  0
M  END
> <Name>
ZINC04039469

> <reference>
BDB5219

> <quality>
0.794

> <status>
decoy

> <atoms in reference ligand area>
18

> <score>
-27.5538

$$$$
