558
 OpenBabel12191614293D

 31 31  0  0  1  0  0  0  0  0999 V2000
  -28.9540   13.8910  -19.1840 O   0  0  0  0  0  0  0  0  0  0  0  0
  -28.5050   13.2760  -18.8660 C   0  0  1  0  0  0  0  0  0  0  0  0
  -27.7830   13.0720  -19.2110 C   0  0  0  0  0  0  0  0  0  0  0  0
  -27.5110   13.4820  -19.8730 C   0  0  0  0  0  0  0  0  0  0  0  0
  -27.9610   14.0970  -20.1900 C   0  0  0  0  0  0  0  0  0  0  0  0
  -28.6820   14.3010  -19.8460 C   0  0  0  0  0  0  0  0  0  0  0  0
  -27.6900   14.5070  -20.8520 N   0  0  0  0  0  0  0  0  0  0  0  0
  -27.3590   15.4300  -20.7590 H   0  0  0  0  0  0  0  0  0  0  0  0
  -27.6950   14.1440  -21.5940 C   0  0  0  0  0  0  0  0  0  0  0  0
  -27.4230   14.5550  -22.2560 C   0  0  0  0  0  0  0  0  0  0  0  0
  -27.9720   13.3710  -21.6720 O   0  0  0  0  0  0  0  0  0  0  0  0
  -28.7770   12.8660  -18.2040 C   0  0  0  0  0  0  0  0  0  0  0  0
  -29.1650   12.1450  -18.2970 O   0  0  0  0  0  0  0  0  0  0  0  0
  -28.6590   13.1770  -17.4490 O   0  0  0  0  0  0  0  0  0  0  0  0
  -26.7910   13.2780  -20.2180 N   0  0  0  0  0  0  0  0  0  0  0  0
  -26.1440   13.0870  -19.7410 C   0  0  0  0  0  0  0  0  0  0  0  0
  -26.2200   13.1010  -18.9200 N   0  0  0  0  0  0  0  0  0  0  0  0
  -26.0420   13.9330  -18.4230 H   0  0  0  0  0  0  0  0  0  0  0  0
  -26.4870   12.2860  -18.4360 H   0  0  0  0  0  0  0  0  0  0  0  0
  -25.4240   12.8830  -20.0860 N   0  0  0  0  0  0  0  0  0  0  0  0
  -25.4080   12.3610  -20.9210 H   0  0  0  0  0  0  0  0  0  0  0  0
  -24.5790   13.1600  -19.6620 H   0  0  0  0  0  0  0  0  0  0  0  0
  -29.1310   14.9150  -20.1630 C   0  0  2  0  0  0  0  0  0  0  0  0
  -28.7590   15.5930  -20.4510 O   0  0  0  0  0  0  0  0  0  0  0  0
  -27.9000   15.5220  -20.8960 H   0  0  0  0  0  0  0  0  0  0  0  0
  -29.9540   14.8540  -20.1930 C   0  0  1  0  0  0  0  0  0  0  0  0
  -30.3050   14.2030  -20.5590 O   0  0  0  0  0  0  0  0  0  0  0  0
  -29.8410   13.3520  -20.5840 H   0  0  0  0  0  0  0  0  0  0  0  0
  -30.4240   15.4410  -19.8560 C   0  0  0  0  0  0  0  0  0  0  0  0
  -31.2100   15.5270  -20.0930 O   0  0  0  0  0  0  0  0  0  0  0  0
  -31.7540   16.2390  -19.7210 H   0  0  0  0  0  0  0  0  0  0  0  0
  1  2  1  0  0  0  0
  2 12  1  1  0  0  0
  3  2  1  0  0  0  0
  4  3  2  0  0  0  0
  5  4  1  0  0  0  0
  5  6  2  0  0  0  0
  6  1  1  0  0  0  0
  7  8  1  0  0  0  0
  7  5  1  0  0  0  0
  9  7  1  0  0  0  0
 10  9  1  0  0  0  0
 11  9  2  0  0  0  0
 12 14  1  0  0  0  0
 13 12  2  0  0  0  0
 15  4  1  0  0  0  0
 15 16  2  0  0  0  0
 16 17  1  0  0  0  0
 17 19  1  0  0  0  0
 17 18  1  0  0  0  0
 20 16  1  0  0  0  0
 20 22  1  0  0  0  0
 21 20  1  0  0  0  0
 23 24  1  1  0  0  0
 23  6  1  0  0  0  0
 25 24  1  0  0  0  0
 26 27  1  1  0  0  0
 26 23  1  0  0  0  0
 26 29  1  0  0  0  0
 28 27  1  0  0  0  0
 30 29  1  0  0  0  0
 30 31  1  0  0  0  0
M  END
>  <MODEL>
1

>  <REMARK>
 VINA RESULT:      -7.8      0.000      0.000
  Name = 558
                            x       y       z     vdW  Elec       q    Type
                         _______ _______ _______ _____ _____    ______ ____

>  <TORSDO>
F 11

>  <vina_score>
-7.8

$$$$
