558
 OpenBabel12151615053D

 31 31  0  0  1  0  0  0  0  0999 V2000
  -28.9560   13.9000  -19.1840 O   0  0  0  0  0  0  0  0  0  0  0  0
  -28.5060   13.2880  -18.8630 C   0  0  0  0  0  0  0  0  0  0  0  0
  -27.7850   13.0820  -19.2080 C   0  0  0  0  0  0  0  0  0  0  0  0
  -27.5140   13.4890  -19.8730 C   0  0  0  0  0  0  0  0  0  0  0  0
  -27.9650   14.1010  -20.1930 C   0  0  0  0  0  0  0  0  0  0  0  0
  -28.6850   14.3070  -19.8490 C   0  0  1  0  0  0  0  0  0  0  0  0
  -27.6940   14.5080  -20.8570 N   0  0  0  0  0  0  0  0  0  0  0  0
  -27.3600   15.4300  -20.7690 H   0  0  0  0  0  0  0  0  0  0  0  0
  -27.7030   14.1420  -21.5980 C   0  0  0  0  0  0  0  0  0  0  0  0
  -27.4320   14.5490  -22.2620 C   0  0  0  0  0  0  0  0  0  0  0  0
  -27.9830   13.3700  -21.6720 O   0  0  0  0  0  0  0  0  0  0  0  0
  -28.7770   12.8810  -18.1980 C   0  0  0  0  0  0  0  0  0  0  0  0
  -29.1650   12.1590  -18.2870 O   0  0  0  0  0  0  0  0  0  0  0  0
  -28.6580   13.1970  -17.4450 O   0  0  0  0  0  0  0  0  0  0  0  0
  -26.7940   13.2830  -20.2170 N   0  0  0  0  0  0  0  0  0  0  0  0
  -26.1470   13.0930  -19.7400 C   0  0  0  0  0  0  0  0  0  0  0  0
  -26.2220   13.1090  -18.9190 N   0  0  0  0  0  0  0  0  0  0  0  0
  -27.0320   12.7470  -18.4900 H   0  0  0  0  0  0  0  0  0  0  0  0
  -25.5020   13.4910  -18.3650 H   0  0  0  0  0  0  0  0  0  0  0  0
  -25.4270   12.8870  -20.0840 N   0  0  0  0  0  0  0  0  0  0  0  0
  -24.7120   13.5600  -20.1700 H   0  0  0  0  0  0  0  0  0  0  0  0
  -25.2800   11.9690  -20.4090 H   0  0  0  0  0  0  0  0  0  0  0  0
  -29.1350   14.9190  -20.1690 C   0  0  1  0  0  0  0  0  0  0  0  0
  -28.7630   15.5970  -20.4580 O   0  0  0  0  0  0  0  0  0  0  0  0
  -27.9300   15.5210  -20.9490 H   0  0  0  0  0  0  0  0  0  0  0  0
  -29.9570   14.8550  -20.2010 C   0  0  1  0  0  0  0  0  0  0  0  0
  -30.3050   14.2050  -20.5700 O   0  0  0  0  0  0  0  0  0  0  0  0
  -30.0700   13.9830  -21.4850 H   0  0  0  0  0  0  0  0  0  0  0  0
  -30.4300   15.4400  -19.8630 C   0  0  0  0  0  0  0  0  0  0  0  0
  -31.2190   15.5180  -20.0940 O   0  0  0  0  0  0  0  0  0  0  0  0
  -31.9300   15.3740  -19.4500 H   0  0  0  0  0  0  0  0  0  0  0  0
  1  2  1  0  0  0  0
  2 12  1  0  0  0  0
  3  2  2  0  0  0  0
  4  3  1  0  0  0  0
  5  4  2  0  0  0  0
  6  5  1  6  0  0  0
  6  1  1  0  0  0  0
  7  8  1  0  0  0  0
  7  5  1  0  0  0  0
  9  7  1  0  0  0  0
 10  9  1  0  0  0  0
 11  9  2  0  0  0  0
 12 14  1  0  0  0  0
 13 12  2  0  0  0  0
 15  4  1  0  0  0  0
 15 16  2  0  0  0  0
 16 17  1  0  0  0  0
 17 18  1  0  0  0  0
 17 19  1  0  0  0  0
 20 16  1  0  0  0  0
 21 20  1  0  0  0  0
 22 20  1  0  0  0  0
 23 24  1  6  0  0  0
 23  6  1  0  0  0  0
 25 24  1  0  0  0  0
 26 27  1  1  0  0  0
 26 23  1  0  0  0  0
 26 29  1  0  0  0  0
 28 27  1  0  0  0  0
 30 29  1  0  0  0  0
 30 31  1  0  0  0  0
M  END
>  <MODEL>
1

>  <REMARK>
 VINA RESULT:      -7.8      0.000      0.000
  Name = 558
                            x       y       z     vdW  Elec       q    Type
                         _______ _______ _______ _____ _____    ______ ____

>  <TORSDO>
F 11

>  <vina_score>
-7.8

$$$$
