558
 OpenBabel12191614213D

 31 31  0  0  1  0  0  0  0  0999 V2000
   10.5230   14.0100   -0.8530 O   0  0  0  0  0  0  0  0  0  0  0  0
   10.8390   13.3920   -1.2990 C   0  0  0  0  0  0  0  0  0  0  0  0
   10.4880   13.1790   -2.0160 C   0  0  0  0  0  0  0  0  0  0  0  0
    9.8210   13.5840   -2.2850 C   0  0  0  0  0  0  0  0  0  0  0  0
    9.5050   14.2010   -1.8370 C   0  0  0  0  0  0  0  0  0  0  0  0
    9.8560   14.4140   -1.1220 C   0  0  2  0  0  0  0  0  0  0  0  0
    8.8380   14.6050   -2.1060 N   0  0  0  0  0  0  0  0  0  0  0  0
    8.9250   15.5220   -2.4540 H   0  0  0  0  0  0  0  0  0  0  0  0
    8.0980   14.2410   -2.0840 C   0  0  0  0  0  0  0  0  0  0  0  0
    7.4310   14.6450   -2.3530 C   0  0  0  0  0  0  0  0  0  0  0  0
    8.0260   13.4720   -1.7930 O   0  0  0  0  0  0  0  0  0  0  0  0
   11.5060   12.9880   -1.0300 C   0  0  0  0  0  0  0  0  0  0  0  0
   12.2580   13.3010   -1.1590 O   0  0  0  0  0  0  0  0  0  0  0  0
   11.4200   12.2710   -0.6320 O   0  0  0  0  0  0  0  0  0  0  0  0
    9.4710   13.3710   -3.0000 N   0  0  0  0  0  0  0  0  0  0  0  0
    9.9420   13.1880   -3.6530 C   0  0  0  0  0  0  0  0  0  0  0  0
   10.7640   13.2190   -3.5890 N   0  0  0  0  0  0  0  0  0  0  0  0
   11.2610   12.4450   -3.2360 H   0  0  0  0  0  0  0  0  0  0  0  0
   11.2500   14.0300   -3.8660 H   0  0  0  0  0  0  0  0  0  0  0  0
    9.5920   12.9750   -4.3680 N   0  0  0  0  0  0  0  0  0  0  0  0
   10.1460   12.8730   -5.1760 H   0  0  0  0  0  0  0  0  0  0  0  0
    8.6200   12.8230   -4.4150 H   0  0  0  0  0  0  0  0  0  0  0  0
    9.5400   15.0310   -0.6760 C   0  0  1  0  0  0  0  0  0  0  0  0
    9.2430   15.7020   -1.0520 O   0  0  0  0  0  0  0  0  0  0  0  0
    8.7640   15.6170   -1.8910 H   0  0  0  0  0  0  0  0  0  0  0  0
    9.5190   14.9770    0.1480 C   0  0  1  0  0  0  0  0  0  0  0  0
    9.1650   14.3250    0.5090 O   0  0  0  0  0  0  0  0  0  0  0  0
    8.2300   14.1280    0.3440 H   0  0  0  0  0  0  0  0  0  0  0  0
    9.8520   15.5730    0.6090 C   0  0  0  0  0  0  0  0  0  0  0  0
    9.6280   15.6590    1.3980 O   0  0  0  0  0  0  0  0  0  0  0  0
   10.0590   15.1270    2.0860 H   0  0  0  0  0  0  0  0  0  0  0  0
  2 12  1  0  0  0  0
  2  1  1  0  0  0  0
  3  2  2  0  0  0  0
  4  3  1  0  0  0  0
  4  5  2  0  0  0  0
  6  5  1  6  0  0  0
  6  1  1  0  0  0  0
  6 23  1  0  0  0  0
  7  9  1  0  0  0  0
  7  5  1  0  0  0  0
  8  7  1  0  0  0  0
  9 11  2  0  0  0  0
 10  9  1  0  0  0  0
 12 14  1  0  0  0  0
 13 12  2  0  0  0  0
 15  4  1  0  0  0  0
 16 17  1  0  0  0  0
 16 15  2  0  0  0  0
 17 18  1  0  0  0  0
 19 17  1  0  0  0  0
 20 16  1  0  0  0  0
 21 20  1  0  0  0  0
 22 20  1  0  0  0  0
 23 24  1  6  0  0  0
 23 26  1  0  0  0  0
 25 24  1  0  0  0  0
 26 27  1  6  0  0  0
 26 29  1  0  0  0  0
 28 27  1  0  0  0  0
 29 30  1  0  0  0  0
 30 31  1  0  0  0  0
M  END
>  <MODEL>
1

>  <REMARK>
 VINA RESULT:      -7.8      0.000      0.000
  Name = 558
                            x       y       z     vdW  Elec       q    Type
                         _______ _______ _______ _____ _____    ______ ____

>  <TORSDO>
F 11

>  <vina_score>
-7.8

$$$$
