ZINC24869044
      BALL 1.4.0 (Jan  4 2012, 23:22:29)

 49 50  0999  0  0  0  0  0  0999 V2000
    4.4926    5.9996   -3.0823 C   0  0  0  0  0  0  0  0  0  0  0  0
    3.3911    6.6280   -2.5316 C   0  0  0  0  0  0  0  0  0  0  0  0
    3.5588    7.6038   -1.5669 C   0  0  0  0  0  0  0  0  0  0  0  0
    4.8333    7.9616   -1.1574 C   0  0  0  0  0  0  0  0  0  0  0  0
    5.9419    7.3287   -1.7113 C   0  0  0  0  0  0  0  0  0  0  0  0
    5.7667    6.3477   -2.6741 C   0  0  0  0  0  0  0  0  0  0  0  0
    7.1946    7.6721   -1.3084 O   0  0  0  0  0  0  0  0  0  0  0  0
    5.0002    8.9250   -0.2123 O   0  0  0  0  0  0  0  0  0  0  0  0
    5.3483   10.2323   -0.6729 C   0  0  0  0  0  0  0  0  0  0  0  0
    6.6937   10.6434   -0.0717 C   0  0  0  0  0  0  0  0  0  0  0  0
    6.4865   11.1252    1.3411 C   0  0  0  0  0  0  0  0  0  0  0  0
    5.4124   10.9713    1.8828 O   0  0  0  0  0  0  0  0  0  0  0  0
    7.4947   11.7271    2.0026 N   0  0  0  0  0  0  0  0  0  0  0  0
    7.8685   11.3002    3.3596 C   0  0  0  0  0  0  0  0  0  0  0  0
    9.3838   11.0444    3.3842 C   0  0  0  0  0  0  0  0  0  0  0  0
   10.0847   12.2388    2.8943 N   0  0  0  0  0  0  0  0  0  0  0  0
    9.7431   12.5202    1.4937 C   0  0  0  0  0  0  0  0  0  0  0  0
    8.2465   12.8325    1.3892 C   0  0  0  0  0  0  0  0  0  0  0  0
   11.5375   12.1037    3.0650 C   0  0  0  0  0  0  0  0  0  0  0  0
   11.9901   10.7452    2.5259 C   0  0  0  0  0  0  0  0  0  0  0  0
   13.5142   10.6439    2.6138 C   0  0  0  0  0  0  0  0  0  0  0  0
   14.0285    8.9412    2.2574 S   0  0  0  0  0  0  0  0  0  0  0  0
   13.4613    8.5055    1.0295 O   0  0  0  0  0  0  0  0  0  0  0  0
   15.4187    8.7872    2.5080 O   0  0  0  0  0  0  0  0  0  0  0  0
   13.3457    8.0952    3.3225 O   0  5  0  0  0  0  0  0  0  0  0  0
   11.5818   10.6136    1.1629 O   0  0  0  0  0  0  0  0  0  0  0  0
    4.3549    5.2208   -3.8469 H   0  0  0  0  0  0  0  0  0  0  0  0
    2.3791    6.3509   -2.8619 H   0  0  0  0  0  0  0  0  0  0  0  0
    2.6804    8.0963   -1.1243 H   0  0  0  0  0  0  0  0  0  0  0  0
    6.6414    5.8460   -3.1136 H   0  0  0  0  0  0  0  0  0  0  0  0
    7.4906    8.3598   -1.9561 H   0  0  0  0  0  0  0  0  0  0  0  0
    5.4241   10.2264   -1.7703 H   0  0  0  0  0  0  0  0  0  0  0  0
    4.5743   10.9498   -0.3626 H   0  0  0  0  0  0  0  0  0  0  0  0
    7.1336   11.4523   -0.6734 H   0  0  0  0  0  0  0  0  0  0  0  0
    7.3733    9.7784   -0.0675 H   0  0  0  0  0  0  0  0  0  0  0  0
    7.3341   10.3739    3.6175 H   0  0  0  0  0  0  0  0  0  0  0  0
    7.6165   12.0928    4.0795 H   0  0  0  0  0  0  0  0  0  0  0  0
    9.7032   10.8284    4.4144 H   0  0  0  0  0  0  0  0  0  0  0  0
    9.6232   10.1877    2.7370 H   0  0  0  0  0  0  0  0  0  0  0  0
   10.3234   13.3855    1.1409 H   0  0  0  0  0  0  0  0  0  0  0  0
    9.9781   11.6423    0.8739 H   0  0  0  0  0  0  0  0  0  0  0  0
    7.9635   12.9290    0.3306 H   0  0  0  0  0  0  0  0  0  0  0  0
    8.0279   13.7696    1.9221 H   0  0  0  0  0  0  0  0  0  0  0  0
   12.0480   12.9058    2.5117 H   0  0  0  0  0  0  0  0  0  0  0  0
   11.7907   12.1764    4.1330 H   0  0  0  0  0  0  0  0  0  0  0  0
   11.5341    9.9428    3.1244 H   0  0  0  0  0  0  0  0  0  0  0  0
   13.9701   11.3251    1.8803 H   0  0  0  0  0  0  0  0  0  0  0  0
   13.8435   10.9212    3.6261 H   0  0  0  0  0  0  0  0  0  0  0  0
   12.3770   10.6487    0.5743 H   0  0  0  0  0  0  0  0  0  0  0  0
  1  6  2  0  0  0  0
  1  2  1  0  0  0  0
  1 27  1  0  0  0  0
  2  3  2  0  0  0  0
  2 28  1  0  0  0  0
  3  4  1  0  0  0  0
  3 29  1  0  0  0  0
  4  5  2  0  0  0  0
  4  8  1  0  0  0  0
  5  6  1  0  0  0  0
  5  7  1  0  0  0  0
  6 30  1  0  0  0  0
  7 31  1  0  0  0  0
  8  9  1  0  0  0  0
  9 10  1  0  0  0  0
  9 32  1  0  0  0  0
  9 33  1  0  0  0  0
 10 11  1  0  0  0  0
 10 34  1  0  0  0  0
 10 35  1  0  0  0  0
 11 12  2  0  0  0  0
 11 13  1  0  0  0  0
 13 18  1  0  0  0  0
 13 14  1  0  0  0  0
 14 15  1  0  0  0  0
 14 36  1  0  0  0  0
 14 37  1  0  0  0  0
 15 16  1  0  0  0  0
 15 38  1  0  0  0  0
 15 39  1  0  0  0  0
 16 17  1  0  0  0  0
 16 19  1  0  0  0  0
 17 18  1  0  0  0  0
 17 40  1  0  0  0  0
 17 41  1  0  0  0  0
 18 42  1  0  0  0  0
 18 43  1  0  0  0  0
 19 20  1  0  0  0  0
 19 44  1  0  0  0  0
 19 45  1  0  0  0  0
 20 21  1  0  0  0  0
 20 26  1  0  0  0  0
 20 46  1  0  0  0  0
 21 22  1  0  0  0  0
 21 47  1  0  0  0  0
 21 48  1  0  0  0  0
 22 23  2  0  0  0  0
 22 24  2  0  0  0  0
 22 25  1  0  0  0  0
 26 49  1  0  0  0  0
M  END
> <Name>
ZINC24869044

> <reference>
BDB4945

> <quality>
0.764

> <status>
decoy

> <atoms in reference ligand area>
22

> <score>
-42.4318

$$$$
ZINC01187537
      BALL 1.4.0 (Jan  4 2012, 23:22:29)

 18 18  0999  0  0  0  0  0  0999 V2000
    9.8270   10.5899    1.2639 C   0  0  0  0  0  0  0  0  0  0  0  0
    8.5341   10.3434    1.5475 N   0  5  0  0  0  0  0  0  0  0  0  0
    7.7743   11.0167    0.6250 C   0  0  0  0  0  0  0  0  0  0  0  0
    8.6704   11.6751   -0.2064 C   0  0  0  0  0  0  0  0  0  0  0  0
    9.9068   11.3800    0.2284 N   0  0  0  0  0  0  0  0  0  0  0  0
    8.3279   12.5403   -1.3554 C   0  0  0  0  0  0  0  0  0  0  0  0
    9.1572   12.7655   -2.2151 O   0  0  0  0  0  0  0  0  0  0  0  0
    7.0961   13.0791   -1.4496 N   0  0  0  0  0  0  0  0  0  0  0  0
    6.8295   14.0700   -2.4253 O   0  0  0  0  0  0  0  0  0  0  0  0
    6.3042   11.0416    0.5379 C   0  0  0  0  0  0  0  0  0  0  0  0
    5.7586   11.0022   -0.5483 O   0  0  0  0  0  0  0  0  0  0  0  0
    5.5636   11.1081    1.6619 N   0  0  0  0  0  0  0  0  0  0  0  0
    5.5022    9.9958    2.5362 O   0  0  0  0  0  0  0  0  0  0  0  0
   10.6858   10.1864    1.8206 H   0  0  0  0  0  0  0  0  0  0  0  0
    6.3486   12.7700   -0.8118 H   0  0  0  0  0  0  0  0  0  0  0  0
    6.5873   13.5673   -3.2430 H   0  0  0  0  0  0  0  0  0  0  0  0
    5.0422   11.9679    1.8851 H   0  0  0  0  0  0  0  0  0  0  0  0
    4.5384    9.7844    2.6163 H   0  0  0  0  0  0  0  0  0  0  0  0
  1  5  2  0  0  0  0
  1  2  1  0  0  0  0
  1 14  1  0  0  0  0
  2  3  1  0  0  0  0
  3  4  2  0  0  0  0
  3 10  1  0  0  0  0
  4  5  1  0  0  0  0
  4  6  1  0  0  0  0
  6  7  2  0  0  0  0
  6  8  1  0  0  0  0
  8  9  1  0  0  0  0
  8 15  1  0  0  0  0
  9 16  1  0  0  0  0
 10 11  2  0  0  0  0
 10 12  1  0  0  0  0
 12 13  1  0  0  0  0
 12 17  1  0  0  0  0
 13 18  1  0  0  0  0
M  END
> <Name>
ZINC01187537

> <reference>
BDB5257

> <quality>
0.783

> <status>
decoy

> <atoms in reference ligand area>
15

> <score>
-39.7088

$$$$
ZINC22047827
      BALL 1.4.0 (Jan  4 2012, 23:22:29)

 41 42  0999  0  0  0  0  0  0999 V2000
    9.4659   13.7053    3.2574 C   0  0  0  0  0  0  0  0  0  0  0  0
   10.8391   13.5037    3.1401 C   0  0  0  0  0  0  0  0  0  0  0  0
   11.3818   12.2598    3.2755 C   0  0  0  0  0  0  0  0  0  0  0  0
   10.5437   11.1685    3.5258 C   0  0  0  0  0  0  0  0  0  0  0  0
    9.1443   11.3727    3.6455 C   0  0  0  0  0  0  0  0  0  0  0  0
    8.6210   12.6646    3.5061 C   0  0  0  0  0  0  0  0  0  0  0  0
    8.3377   10.2488    3.9030 C   0  0  0  0  0  0  0  0  0  0  0  0
    8.9040    9.0697    4.0213 N   0  0  0  0  0  0  0  0  0  0  0  0
   10.1658    8.8772    3.9148 N   0  0  0  0  0  0  0  0  0  0  0  0
   11.0293    9.8491    3.6741 C   0  0  0  0  0  0  0  0  0  0  0  0
   12.3837    9.5797    3.5697 N   0  0  0  0  0  0  0  0  0  0  0  0
   13.2888   10.1884    4.4490 N   0  0  0  0  0  0  0  0  0  0  0  0
   14.5418   10.1774    4.1868 C   0  0  0  0  0  0  0  0  0  0  0  0
   15.0325    9.6171    2.8767 C   0  0  0  0  0  0  0  0  0  0  0  0
   14.1051    9.9464    1.8405 O   0  0  0  0  0  0  0  0  0  0  0  0
   15.5260   10.7246    5.1883 C   0  0  0  0  0  0  0  0  0  0  0  0
   16.7081    9.7621    5.3200 C   0  0  0  0  0  0  0  0  0  0  0  0
   17.2035    9.7580    6.7675 C   0  0  0  0  0  0  0  0  0  0  0  0
   16.0719    9.3055    7.6925 C   0  0  0  0  0  0  0  0  0  0  0  0
   15.5465   10.4361    8.3908 O   0  0  0  0  0  0  0  0  0  0  0  0
   17.6189   11.0756    7.1325 O   0  0  0  0  0  0  0  0  0  0  0  0
   17.7649   10.1848    4.4560 O   0  0  0  0  0  0  0  0  0  0  0  0
   15.9965   11.9994    4.7461 O   0  0  0  0  0  0  0  0  0  0  0  0
    9.0566   14.7204    3.1476 H   0  0  0  0  0  0  0  0  0  0  0  0
   11.4964   14.3615    2.9349 H   0  0  0  0  0  0  0  0  0  0  0  0
   12.4689   12.1161    3.1885 H   0  0  0  0  0  0  0  0  0  0  0  0
    7.5385   12.8378    3.5965 H   0  0  0  0  0  0  0  0  0  0  0  0
    7.2477   10.3564    4.0039 H   0  0  0  0  0  0  0  0  0  0  0  0
   12.7256    8.9319    2.8456 H   0  0  0  0  0  0  0  0  0  0  0  0
   15.1211    8.5235    2.9545 H   0  0  0  0  0  0  0  0  0  0  0  0
   16.0160   10.0487    2.6386 H   0  0  0  0  0  0  0  0  0  0  0  0
   14.5874   10.0339    0.9804 H   0  0  0  0  0  0  0  0  0  0  0  0
   15.0323   10.8346    6.1652 H   0  0  0  0  0  0  0  0  0  0  0  0
   16.3881    8.7478    5.0389 H   0  0  0  0  0  0  0  0  0  0  0  0
   18.0534    9.0662    6.8623 H   0  0  0  0  0  0  0  0  0  0  0  0
   16.4597    8.5752    8.4180 H   0  0  0  0  0  0  0  0  0  0  0  0
   15.2736    8.8406    7.0953 H   0  0  0  0  0  0  0  0  0  0  0  0
   14.5855   10.5401    8.1765 H   0  0  0  0  0  0  0  0  0  0  0  0
   18.0983   11.4935    6.3739 H   0  0  0  0  0  0  0  0  0  0  0  0
   18.0538   11.0975    4.7083 H   0  0  0  0  0  0  0  0  0  0  0  0
   16.9660   12.0766    4.9309 H   0  0  0  0  0  0  0  0  0  0  0  0
  1  6  1  0  0  0  0
  1  2  2  0  0  0  0
  1 24  1  0  0  0  0
  2  3  1  0  0  0  0
  2 25  1  0  0  0  0
  3  4  2  0  0  0  0
  3 26  1  0  0  0  0
  4 10  1  0  0  0  0
  4  5  1  0  0  0  0
  5  6  2  0  0  0  0
  5  7  1  0  0  0  0
  6 27  1  0  0  0  0
  7  8  2  0  0  0  0
  7 28  1  0  0  0  0
  8  9  1  0  0  0  0
  9 10  2  0  0  0  0
 10 11  1  0  0  0  0
 11 12  1  0  0  0  0
 11 29  1  0  0  0  0
 12 13  2  0  0  0  0
 13 14  1  0  0  0  0
 13 16  1  0  0  0  0
 14 15  1  0  0  0  0
 14 30  1  0  0  0  0
 14 31  1  0  0  0  0
 15 32  1  0  0  0  0
 16 17  1  0  0  0  0
 16 23  1  0  0  0  0
 16 33  1  0  0  0  0
 17 18  1  0  0  0  0
 17 22  1  0  0  0  0
 17 34  1  0  0  0  0
 18 19  1  0  0  0  0
 18 21  1  0  0  0  0
 18 35  1  0  0  0  0
 19 20  1  0  0  0  0
 19 36  1  0  0  0  0
 19 37  1  0  0  0  0
 20 38  1  0  0  0  0
 21 39  1  0  0  0  0
 22 40  1  0  0  0  0
 23 41  1  0  0  0  0
M  END
> <Name>
ZINC22047827

> <reference>
BDB5013

> <quality>
0.688

> <status>
decoy

> <atoms in reference ligand area>
10

> <score>
-39.5806

$$$$
ZINC20188385
      BALL 1.4.0 (Jan  4 2012, 23:22:29)

 39 40  0999  0  0  0  0  0  0999 V2000
   13.1802   13.6919   -1.3512 C   0  0  0  0  0  0  0  0  0  0  0  0
   12.1378   12.9684   -2.0913 N   0  3  0  0  0  0  0  0  0  0  0  0
   10.8019   13.4754   -1.7502 C   0  0  0  0  0  0  0  0  0  0  0  0
   10.3572   12.8780   -0.4401 C   0  0  0  0  0  0  0  0  0  0  0  0
   10.9468   11.7178    0.0260 C   0  0  0  0  0  0  0  0  0  0  0  0
   10.5419   11.1722    1.2298 C   0  0  0  0  0  0  0  0  0  0  0  0
    9.5412   11.7818    1.9633 C   0  0  0  0  0  0  0  0  0  0  0  0
    8.9480   12.9391    1.4945 C   0  0  0  0  0  0  0  0  0  0  0  0
    9.3558   13.4870    0.2928 C   0  0  0  0  0  0  0  0  0  0  0  0
    9.0221   11.0840    3.4956 S   0  0  0  0  0  0  0  0  0  0  0  0
   10.1090   10.3049    3.9760 O   0  0  0  0  0  0  0  0  0  0  0  0
    8.4513   12.1432    4.2516 O   0  0  0  0  0  0  0  0  0  0  0  0
    7.7931   10.0259    3.1605 N   0  5  0  0  0  0  0  0  0  0  0  0
    7.9554    9.0636    2.1723 C   0  0  0  0  0  0  0  0  0  0  0  0
    9.0229    8.1760    2.2304 C   0  0  0  0  0  0  0  0  0  0  0  0
    9.1788    7.2175    1.2505 C   0  0  0  0  0  0  0  0  0  0  0  0
    8.2814    7.1383    0.1970 C   0  0  0  0  0  0  0  0  0  0  0  0
    7.2204    8.0132    0.1192 C   0  0  0  0  0  0  0  0  0  0  0  0
    7.0454    8.9863    1.1067 C   0  0  0  0  0  0  0  0  0  0  0  0
    5.9121    9.9262    1.0294 C   0  0  0  0  0  0  0  0  0  0  0  0
    5.7636   10.7718    1.8906 O   0  0  0  0  0  0  0  0  0  0  0  0
    5.0407    9.8482    0.0041 N   0  0  0  0  0  0  0  0  0  0  0  0
   13.7515   14.3126   -2.0571 H   0  0  0  0  0  0  0  0  0  0  0  0
   13.8572   12.9610   -0.8849 H   0  0  0  0  0  0  0  0  0  0  0  0
   12.7248   14.3273   -0.5773 H   0  0  0  0  0  0  0  0  0  0  0  0
   12.2965   13.0842   -3.1024 H   0  0  0  0  0  0  0  0  0  0  0  0
   12.1891   11.9660   -1.8599 H   0  0  0  0  0  0  0  0  0  0  0  0
   10.0896   13.1958   -2.5405 H   0  0  0  0  0  0  0  0  0  0  0  0
   10.8375   14.5711   -1.6596 H   0  0  0  0  0  0  0  0  0  0  0  0
   11.7381   11.2287   -0.5610 H   0  0  0  0  0  0  0  0  0  0  0  0
   11.0160   10.2529    1.6042 H   0  0  0  0  0  0  0  0  0  0  0  0
    8.1514   13.4241    2.0779 H   0  0  0  0  0  0  0  0  0  0  0  0
    8.8834   14.4077   -0.0804 H   0  0  0  0  0  0  0  0  0  0  0  0
    9.7442    8.2375    3.0586 H   0  0  0  0  0  0  0  0  0  0  0  0
   10.0207    6.5117    1.3056 H   0  0  0  0  0  0  0  0  0  0  0  0
    8.4174    6.3727   -0.5811 H   0  0  0  0  0  0  0  0  0  0  0  0
    6.5116    7.9459   -0.7192 H   0  0  0  0  0  0  0  0  0  0  0  0
    4.0430    9.6702    0.1885 H   0  0  0  0  0  0  0  0  0  0  0  0
    5.3725    9.9665   -0.9638 H   0  0  0  0  0  0  0  0  0  0  0  0
  1  2  1  0  0  0  0
  1 23  1  0  0  0  0
  1 24  1  0  0  0  0
  1 25  1  0  0  0  0
  2  3  1  0  0  0  0
  2 26  1  0  0  0  0
  2 27  1  0  0  0  0
  3  4  1  0  0  0  0
  3 28  1  0  0  0  0
  3 29  1  0  0  0  0
  4  9  2  0  0  0  0
  4  5  1  0  0  0  0
  5  6  2  0  0  0  0
  5 30  1  0  0  0  0
  6  7  1  0  0  0  0
  6 31  1  0  0  0  0
  7  8  2  0  0  0  0
  7 10  1  0  0  0  0
  8  9  1  0  0  0  0
  8 32  1  0  0  0  0
  9 33  1  0  0  0  0
 10 11  2  0  0  0  0
 10 12  2  0  0  0  0
 10 13  1  0  0  0  0
 13 14  1  0  0  0  0
 14 19  2  0  0  0  0
 14 15  1  0  0  0  0
 15 16  2  0  0  0  0
 15 34  1  0  0  0  0
 16 17  1  0  0  0  0
 16 35  1  0  0  0  0
 17 18  2  0  0  0  0
 17 36  1  0  0  0  0
 18 19  1  0  0  0  0
 18 37  1  0  0  0  0
 19 20  1  0  0  0  0
 20 21  2  0  0  0  0
 20 22  1  0  0  0  0
 22 38  1  0  0  0  0
 22 39  1  0  0  0  0
M  END
> <Name>
ZINC20188385

> <reference>
BDB5199

> <quality>
0.798

> <status>
decoy

> <atoms in reference ligand area>
18

> <score>
-38.5434

$$$$
ZINC28996368
      BALL 1.4.0 (Jan  4 2012, 23:22:29)

 37 38  0999  0  0  0  0  0  0999 V2000
    8.4770   13.7067   -1.3927 C   0  0  0  0  0  0  0  0  0  0  0  0
    8.3790   13.6866   -2.7706 C   0  0  0  0  0  0  0  0  0  0  0  0
    9.5236   13.6105   -3.5457 C   0  0  0  0  0  0  0  0  0  0  0  0
   10.7680   13.5546   -2.9413 C   0  0  0  0  0  0  0  0  0  0  0  0
   10.8690   13.5740   -1.5637 C   0  0  0  0  0  0  0  0  0  0  0  0
    9.7231   13.6507   -0.7859 C   0  0  0  0  0  0  0  0  0  0  0  0
    9.8211   13.6707    0.5699 O   0  0  0  0  0  0  0  0  0  0  0  0
    8.6071   13.5287    1.3103 C   0  0  0  0  0  0  0  0  0  0  0  0
    7.9530   12.1894    0.9650 C   0  0  0  0  0  0  0  0  0  0  0  0
    7.7212   11.4276    2.1948 N   0  0  0  0  0  0  0  0  0  0  0  0
    6.6853   10.5689    2.2703 C   0  0  0  0  0  0  0  0  0  0  0  0
    5.6725   10.7804    1.6319 O   0  0  0  0  0  0  0  0  0  0  0  0
    6.7721    9.4756    3.0537 N   0  0  0  0  0  0  0  0  0  0  0  0
    5.6181    8.9418    3.6419 N   0  0  0  0  0  0  0  0  0  0  0  0
    5.7231    7.9796    4.5799 C   0  0  0  0  0  0  0  0  0  0  0  0
    6.7955    7.4469    4.7863 O   0  0  0  0  0  0  0  0  0  0  0  0
    4.5310    7.5715    5.3591 C   0  0  0  0  0  0  0  0  0  0  0  0
    4.3163    6.2259    5.6554 C   0  0  0  0  0  0  0  0  0  0  0  0
    3.2523    5.8671    6.3508 N   0  0  0  0  0  0  0  0  0  0  0  0
    2.3929    6.7812    6.7652 C   0  0  0  0  0  0  0  0  0  0  0  0
    2.6036    8.1208    6.4721 C   0  0  0  0  0  0  0  0  0  0  0  0
    3.6654    8.4880    5.7830 N   0  0  0  0  0  0  0  0  0  0  0  0
    9.4262   13.5906   -4.8931 F   0  0  0  0  0  0  0  0  0  0  0  0
    7.5674   13.7670   -0.7771 H   0  0  0  0  0  0  0  0  0  0  0  0
    7.3909   13.7311   -3.2521 H   0  0  0  0  0  0  0  0  0  0  0  0
   11.6767   13.4945   -3.5583 H   0  0  0  0  0  0  0  0  0  0  0  0
   11.8578   13.5288   -1.0838 H   0  0  0  0  0  0  0  0  0  0  0  0
    7.9208   14.3485    1.0519 H   0  0  0  0  0  0  0  0  0  0  0  0
    8.8283   13.5612    2.3873 H   0  0  0  0  0  0  0  0  0  0  0  0
    6.9928   12.3697    0.4595 H   0  0  0  0  0  0  0  0  0  0  0  0
    8.6159   11.6171    0.2995 H   0  0  0  0  0  0  0  0  0  0  0  0
    8.3500   11.5484    3.0016 H   0  0  0  0  0  0  0  0  0  0  0  0
    7.6870    9.0326    3.2200 H   0  0  0  0  0  0  0  0  0  0  0  0
    4.6894    9.2847    3.3576 H   0  0  0  0  0  0  0  0  0  0  0  0
    5.0317    5.4649    5.3106 H   0  0  0  0  0  0  0  0  0  0  0  0
    1.5077    6.4792    7.3442 H   0  0  0  0  0  0  0  0  0  0  0  0
    1.8832    8.8778    6.8155 H   0  0  0  0  0  0  0  0  0  0  0  0
  1  6  2  0  0  0  0
  1  2  1  0  0  0  0
  1 24  1  0  0  0  0
  2  3  2  0  0  0  0
  2 25  1  0  0  0  0
  3  4  1  0  0  0  0
  3 23  1  0  0  0  0
  4  5  2  0  0  0  0
  4 26  1  0  0  0  0
  5  6  1  0  0  0  0
  5 27  1  0  0  0  0
  6  7  1  0  0  0  0
  7  8  1  0  0  0  0
  8  9  1  0  0  0  0
  8 28  1  0  0  0  0
  8 29  1  0  0  0  0
  9 10  1  0  0  0  0
  9 30  1  0  0  0  0
  9 31  1  0  0  0  0
 10 11  1  0  0  0  0
 10 32  1  0  0  0  0
 11 12  2  0  0  0  0
 11 13  1  0  0  0  0
 13 14  1  0  0  0  0
 13 33  1  0  0  0  0
 14 15  1  0  0  0  0
 14 34  1  0  0  0  0
 15 16  2  0  0  0  0
 15 17  1  0  0  0  0
 17 22  2  0  0  0  0
 17 18  1  0  0  0  0
 18 19  2  0  0  0  0
 18 35  1  0  0  0  0
 19 20  1  0  0  0  0
 20 21  2  0  0  0  0
 20 36  1  0  0  0  0
 21 22  1  0  0  0  0
 21 37  1  0  0  0  0
M  END
> <Name>
ZINC28996368

> <reference>
BDB5219

> <quality>
0.680

> <status>
decoy

> <atoms in reference ligand area>
21

> <score>
-38.1866

$$$$
ZINC09305196
      BALL 1.4.0 (Jan  4 2012, 23:22:29)

 43 44  0999  0  0  0  0  0  0999 V2000
    8.9170   15.0375   -3.1664 C   0  0  0  0  0  0  0  0  0  0  0  0
    9.8981   15.0441   -2.1918 C   0  0  0  0  0  0  0  0  0  0  0  0
    9.8580   14.1252   -1.1582 C   0  0  0  0  0  0  0  0  0  0  0  0
    8.8379   13.1925   -1.1087 C   0  0  0  0  0  0  0  0  0  0  0  0
    7.8507   13.1784   -2.0955 C   0  0  0  0  0  0  0  0  0  0  0  0
    7.8958   14.1062   -3.1238 C   0  0  0  0  0  0  0  0  0  0  0  0
    6.8293   12.2238   -2.0367 N   0  0  0  0  0  0  0  0  0  0  0  0
    6.6179   11.5104   -0.9146 C   0  0  0  0  0  0  0  0  0  0  0  0
    5.7555   10.6575   -0.9007 O   0  0  0  0  0  0  0  0  0  0  0  0
    7.4400   11.7581    0.3242 C   0  0  0  0  0  0  0  0  0  0  0  0
    8.7688   12.2476   -0.0722 N   0  0  0  0  0  0  0  0  0  0  0  0
    9.8845   11.8040    0.5402 C   0  0  0  0  0  0  0  0  0  0  0  0
   10.7054   12.5980    0.9576 O   0  0  0  0  0  0  0  0  0  0  0  0
   10.0903   10.4805    0.6897 N   0  0  0  0  0  0  0  0  0  0  0  0
   10.4500    9.9389    2.0026 C   0  0  0  0  0  0  0  0  0  0  0  0
   11.9727    9.9327    2.1520 C   0  0  0  0  0  0  0  0  0  0  0  0
   12.3573   10.5855    3.4811 C   0  0  0  0  0  0  0  0  0  0  0  0
   13.8244   10.3630    3.7441 C   0  0  0  0  0  0  0  0  0  0  0  0
   14.5342    9.9064    2.8730 O   0  0  0  0  0  0  0  0  0  0  0  0
   14.3479   10.6712    4.9472 N   0  0  0  0  0  0  0  0  0  0  0  0
   15.7741   10.4549    5.2027 C   0  0  0  0  0  0  0  0  0  0  0  0
   16.1588   11.1078    6.5319 C   0  0  0  0  0  0  0  0  0  0  0  0
   15.4787   10.4475    7.6013 O   0  0  0  0  0  0  0  0  0  0  0  0
    8.9494   15.7770   -3.9801 H   0  0  0  0  0  0  0  0  0  0  0  0
   10.7125   15.7820   -2.2383 H   0  0  0  0  0  0  0  0  0  0  0  0
   10.6344   14.1363   -0.3790 H   0  0  0  0  0  0  0  0  0  0  0  0
    7.1209   14.1019   -3.9045 H   0  0  0  0  0  0  0  0  0  0  0  0
    6.2325   12.0652   -2.8610 H   0  0  0  0  0  0  0  0  0  0  0  0
    7.5477   10.8202    0.8890 H   0  0  0  0  0  0  0  0  0  0  0  0
    6.9424   12.5128    0.9510 H   0  0  0  0  0  0  0  0  0  0  0  0
    9.9945    9.8498   -0.1189 H   0  0  0  0  0  0  0  0  0  0  0  0
   10.0072   10.5647    2.7914 H   0  0  0  0  0  0  0  0  0  0  0  0
   10.0693    8.9109    2.0933 H   0  0  0  0  0  0  0  0  0  0  0  0
   12.3388    8.8956    2.1340 H   0  0  0  0  0  0  0  0  0  0  0  0
   12.4259   10.4960    1.3230 H   0  0  0  0  0  0  0  0  0  0  0  0
   11.7678   10.1381    4.2949 H   0  0  0  0  0  0  0  0  0  0  0  0
   12.1539   11.6654    3.4318 H   0  0  0  0  0  0  0  0  0  0  0  0
   13.7452   11.0589    5.6870 H   0  0  0  0  0  0  0  0  0  0  0  0
   16.3653   10.9026    4.3904 H   0  0  0  0  0  0  0  0  0  0  0  0
   15.9781    9.3751    5.2527 H   0  0  0  0  0  0  0  0  0  0  0  0
   17.2453   11.0230    6.6812 H   0  0  0  0  0  0  0  0  0  0  0  0
   15.8725   12.1698    6.5164 H   0  0  0  0  0  0  0  0  0  0  0  0
   14.6079   10.8898    7.7628 H   0  0  0  0  0  0  0  0  0  0  0  0
  1  6  2  0  0  0  0
  1  2  1  0  0  0  0
  1 24  1  0  0  0  0
  2  3  2  0  0  0  0
  2 25  1  0  0  0  0
  3  4  1  0  0  0  0
  3 26  1  0  0  0  0
  4 11  1  0  0  0  0
  4  5  2  0  0  0  0
  5  6  1  0  0  0  0
  5  7  1  0  0  0  0
  6 27  1  0  0  0  0
  7  8  1  0  0  0  0
  7 28  1  0  0  0  0
  8  9  2  0  0  0  0
  8 10  1  0  0  0  0
 10 11  1  0  0  0  0
 10 29  1  0  0  0  0
 10 30  1  0  0  0  0
 11 12  1  0  0  0  0
 12 13  2  0  0  0  0
 12 14  1  0  0  0  0
 14 15  1  0  0  0  0
 14 31  1  0  0  0  0
 15 16  1  0  0  0  0
 15 32  1  0  0  0  0
 15 33  1  0  0  0  0
 16 17  1  0  0  0  0
 16 34  1  0  0  0  0
 16 35  1  0  0  0  0
 17 18  1  0  0  0  0
 17 36  1  0  0  0  0
 17 37  1  0  0  0  0
 18 19  2  0  0  0  0
 18 20  1  0  0  0  0
 20 21  1  0  0  0  0
 20 38  1  0  0  0  0
 21 22  1  0  0  0  0
 21 39  1  0  0  0  0
 21 40  1  0  0  0  0
 22 23  1  0  0  0  0
 22 41  1  0  0  0  0
 22 42  1  0  0  0  0
 23 43  1  0  0  0  0
M  END
> <Name>
ZINC09305196

> <reference>
BDB5199

> <quality>
0.746

> <status>
decoy

> <atoms in reference ligand area>
19

> <score>
-38.0234

$$$$
ZINC03978077
      BALL 1.4.0 (Jan  4 2012, 23:22:29)

 32 33  0999  0  0  0  0  0  0999 V2000
   11.3168   12.5473   -0.5141 C   0  0  0  0  0  0  0  0  0  0  0  0
   11.9614   12.7505   -1.6358 N   0  0  0  0  0  0  0  0  0  0  0  0
   11.2908   13.0140   -2.7664 C   0  0  0  0  0  0  0  0  0  0  0  0
    9.9662   13.0682   -2.7640 N   0  0  0  0  0  0  0  0  0  0  0  0
    9.2914   12.8589   -1.6301 C   0  0  0  0  0  0  0  0  0  0  0  0
    8.0731   12.9082   -1.6232 O   0  0  0  0  0  0  0  0  0  0  0  0
    9.9666   12.5933   -0.4929 N   0  0  0  0  0  0  0  0  0  0  0  0
    9.2408   12.3621    0.7584 C   0  0  0  0  0  0  0  0  0  0  0  0
    8.3114   11.1579    0.5939 C   0  0  0  0  0  0  0  0  0  0  0  0
    6.8388   11.6202    0.4525 C   0  0  0  0  0  0  0  0  0  0  0  0
    6.0594   10.3725    0.9344 C   0  0  0  0  0  0  0  0  0  0  0  0
    7.0855    9.5872    1.7741 C   0  0  0  0  0  0  0  0  0  0  0  0
    8.3000   10.3558    1.7986 O   0  0  0  0  0  0  0  0  0  0  0  0
    7.3464    8.2224    1.1338 C   0  0  0  0  0  0  0  0  0  0  0  0
    7.2820    8.3434   -0.2886 O   0  0  0  0  0  0  0  0  0  0  0  0
    4.9447   10.7595    1.7406 O   0  0  0  0  0  0  0  0  0  0  0  0
    6.5274   11.9215   -0.9093 O   0  0  0  0  0  0  0  0  0  0  0  0
   11.9801   13.2296   -3.9335 N   0  0  0  0  0  0  0  0  0  0  0  0
   11.8745   12.3392    0.4109 H   0  0  0  0  0  0  0  0  0  0  0  0
    8.6452   13.2526    1.0080 H   0  0  0  0  0  0  0  0  0  0  0  0
    9.9588   12.1626    1.5675 H   0  0  0  0  0  0  0  0  0  0  0  0
    8.6749   10.6070   -0.2861 H   0  0  0  0  0  0  0  0  0  0  0  0
    6.6045   12.5353    1.0161 H   0  0  0  0  0  0  0  0  0  0  0  0
    5.6528    9.7803    0.1014 H   0  0  0  0  0  0  0  0  0  0  0  0
    6.7087    9.4231    2.7945 H   0  0  0  0  0  0  0  0  0  0  0  0
    8.3448    7.8651    1.4259 H   0  0  0  0  0  0  0  0  0  0  0  0
    6.5858    7.5047    1.4748 H   0  0  0  0  0  0  0  0  0  0  0  0
    8.1989    8.3969   -0.6581 H   0  0  0  0  0  0  0  0  0  0  0  0
    5.2541   11.3888    2.4395 H   0  0  0  0  0  0  0  0  0  0  0  0
    6.0903   12.8089   -0.9490 H   0  0  0  0  0  0  0  0  0  0  0  0
   12.1413   14.1899   -4.2692 H   0  0  0  0  0  0  0  0  0  0  0  0
   12.3367   12.4291   -4.4746 H   0  0  0  0  0  0  0  0  0  0  0  0
  1  7  1  0  0  0  0
  1  2  2  0  0  0  0
  1 19  1  0  0  0  0
  2  3  1  0  0  0  0
  3  4  2  0  0  0  0
  3 18  1  0  0  0  0
  4  5  1  0  0  0  0
  5  6  2  0  0  0  0
  5  7  1  0  0  0  0
  7  8  1  0  0  0  0
  8  9  1  0  0  0  0
  8 20  1  0  0  0  0
  8 21  1  0  0  0  0
  9 13  1  0  0  0  0
  9 10  1  0  0  0  0
  9 22  1  0  0  0  0
 10 11  1  0  0  0  0
 10 17  1  0  0  0  0
 10 23  1  0  0  0  0
 11 12  1  0  0  0  0
 11 16  1  0  0  0  0
 11 24  1  0  0  0  0
 12 13  1  0  0  0  0
 12 14  1  0  0  0  0
 12 25  1  0  0  0  0
 14 15  1  0  0  0  0
 14 26  1  0  0  0  0
 14 27  1  0  0  0  0
 15 28  1  0  0  0  0
 16 29  1  0  0  0  0
 17 30  1  0  0  0  0
 18 31  1  0  0  0  0
 18 32  1  0  0  0  0
M  END
> <Name>
ZINC03978077

> <reference>
BDB5257

> <quality>
0.782

> <status>
decoy

> <atoms in reference ligand area>
23

> <score>
-37.95

$$$$
ZINC04372269
      BALL 1.4.0 (Jan  4 2012, 23:22:29)

 36 37  0999  0  0  0  0  0  0999 V2000
   11.8138   14.2957   -2.4101 C   0  0  0  0  0  0  0  0  0  0  0  0
   10.8889   13.2704   -2.2978 C   0  0  0  0  0  0  0  0  0  0  0  0
   10.6544   12.7262   -1.0377 C   0  0  0  0  0  0  0  0  0  0  0  0
   11.3595   13.2209    0.0517 C   0  0  0  0  0  0  0  0  0  0  0  0
   12.2348   14.1945   -0.1001 N   0  0  0  0  0  0  0  0  0  0  0  0
   12.4760   14.7344   -1.2789 C   0  0  0  0  0  0  0  0  0  0  0  0
    9.7260   11.6920   -0.8725 N   0  0  0  0  0  0  0  0  0  0  0  0
    8.7214   11.8238    0.0162 C   0  0  0  0  0  0  0  0  0  0  0  0
    8.5713   12.8700    0.6111 O   0  0  0  0  0  0  0  0  0  0  0  0
    7.7845   10.6712    0.2708 C   0  0  0  0  0  0  0  0  0  0  0  0
    7.4707   10.5897    1.7660 C   0  0  0  0  0  0  0  0  0  0  0  0
    6.0463   10.1359    1.9564 C   0  0  0  0  0  0  0  0  0  0  0  0
    5.7983    9.2242    2.7096 O   0  0  0  0  0  0  0  0  0  0  0  0
    8.5419    9.9293    3.8346 C   0  0  0  0  0  0  0  0  0  0  0  0
    9.1090   11.3176    3.9825 C   0  0  0  0  0  0  0  0  0  0  0  0
    8.5396   12.4517    3.5364 C   0  0  0  0  0  0  0  0  0  0  0  0
    9.4071   13.5114    3.8878 C   0  0  0  0  0  0  0  0  0  0  0  0
   10.4547   12.9616    4.5277 C   0  0  0  0  0  0  0  0  0  0  0  0
   10.2660   11.6332    4.5872 O   0  0  0  0  0  0  0  0  0  0  0  0
    5.0532   10.7443    1.2891 O   0  5  0  0  0  0  0  0  0  0  0  0
    8.3849    9.6215    2.4005 N   0  3  0  0  0  0  0  0  0  0  0  0
   12.0189   14.7553   -3.3883 H   0  0  0  0  0  0  0  0  0  0  0  0
   10.3529   12.8955   -3.1822 H   0  0  0  0  0  0  0  0  0  0  0  0
   11.1857   12.7960    1.0513 H   0  0  0  0  0  0  0  0  0  0  0  0
   13.2146   15.5453   -1.3630 H   0  0  0  0  0  0  0  0  0  0  0  0
    9.8105   10.8302   -1.4301 H   0  0  0  0  0  0  0  0  0  0  0  0
    8.2580    9.7333   -0.0554 H   0  0  0  0  0  0  0  0  0  0  0  0
    6.8517   10.8257   -0.2913 H   0  0  0  0  0  0  0  0  0  0  0  0
    7.6023   11.5797    2.2269 H   0  0  0  0  0  0  0  0  0  0  0  0
    9.2273    9.2015    4.2932 H   0  0  0  0  0  0  0  0  0  0  0  0
    7.5614    9.8769    4.3305 H   0  0  0  0  0  0  0  0  0  0  0  0
    7.5827   12.5380    3.0008 H   0  0  0  0  0  0  0  0  0  0  0  0
    9.2545   14.5804    3.6782 H   0  0  0  0  0  0  0  0  0  0  0  0
   11.3193   13.5073    4.9335 H   0  0  0  0  0  0  0  0  0  0  0  0
    8.0019    8.6711    2.2959 H   0  0  0  0  0  0  0  0  0  0  0  0
    9.3050    9.6669    1.9397 H   0  0  0  0  0  0  0  0  0  0  0  0
  1  6  2  0  0  0  0
  1  2  1  0  0  0  0
  1 22  1  0  0  0  0
  2  3  2  0  0  0  0
  2 23  1  0  0  0  0
  3  4  1  0  0  0  0
  3  7  1  0  0  0  0
  4  5  2  0  0  0  0
  4 24  1  0  0  0  0
  5  6  1  0  0  0  0
  6 25  1  0  0  0  0
  7  8  1  0  0  0  0
  7 26  1  0  0  0  0
  8  9  2  0  0  0  0
  8 10  1  0  0  0  0
 10 11  1  0  0  0  0
 10 27  1  0  0  0  0
 10 28  1  0  0  0  0
 11 12  1  0  0  0  0
 11 21  1  0  0  0  0
 11 29  1  0  0  0  0
 12 13  2  0  0  0  0
 12 20  1  0  0  0  0
 14 15  1  0  0  0  0
 14 21  1  0  0  0  0
 14 30  1  0  0  0  0
 14 31  1  0  0  0  0
 15 19  1  0  0  0  0
 15 16  2  0  0  0  0
 16 17  1  0  0  0  0
 16 32  1  0  0  0  0
 17 18  2  0  0  0  0
 17 33  1  0  0  0  0
 18 19  1  0  0  0  0
 18 34  1  0  0  0  0
 21 35  1  0  0  0  0
 21 36  1  0  0  0  0
M  END
> <Name>
ZINC04372269

> <reference>
BDB4995

> <quality>
0.784

> <status>
decoy

> <atoms in reference ligand area>
23

> <score>
-37.2541

$$$$
ZINC19483528
      BALL 1.4.0 (Jan  4 2012, 23:22:29)

 35 35  0999  0  0  0  0  0  0999 V2000
    9.8409   14.5278    3.5186 C   0  0  0  0  0  0  0  0  0  0  0  0
   10.4387   13.4754    4.2783 O   0  0  0  0  0  0  0  0  0  0  0  0
    9.9712   12.2165    4.0636 C   0  0  0  0  0  0  0  0  0  0  0  0
   10.7392   11.1202    4.4218 C   0  0  0  0  0  0  0  0  0  0  0  0
   10.2602    9.8412    4.2076 C   0  0  0  0  0  0  0  0  0  0  0  0
    9.0203    9.6525    3.6259 C   0  0  0  0  0  0  0  0  0  0  0  0
    8.2491   10.7420    3.2662 C   0  0  0  0  0  0  0  0  0  0  0  0
    8.7208   12.0266    3.4833 C   0  0  0  0  0  0  0  0  0  0  0  0
    7.9635   13.0995    3.1298 O   0  0  0  0  0  0  0  0  0  0  0  0
    7.9724   13.4736    1.7507 C   0  0  0  0  0  0  0  0  0  0  0  0
    8.5057    8.2560    3.3890 C   0  0  0  0  0  0  0  0  0  0  0  0
    6.7024    8.3006    3.1967 S   0  0  0  0  0  0  0  0  0  0  0  0
    6.4568    8.5356    1.4148 C   0  0  0  0  0  0  0  0  0  0  0  0
    6.4032   10.0319    1.1003 C   0  0  0  0  0  0  0  0  0  0  0  0
    5.9576   10.2298   -0.3256 C   0  0  0  0  0  0  0  0  0  0  0  0
    6.6918    9.9257   -1.2358 O   0  0  0  0  0  0  0  0  0  0  0  0
    4.7450   10.7440   -0.5847 O   0  5  0  0  0  0  0  0  0  0  0  0
    5.4519   10.6890    2.0064 N   0  3  0  0  0  0  0  0  0  0  0  0
   10.3102   15.4618    3.8614 H   0  0  0  0  0  0  0  0  0  0  0  0
    8.7806   14.5561    3.8104 H   0  0  0  0  0  0  0  0  0  0  0  0
    9.9589   14.3895    2.4337 H   0  0  0  0  0  0  0  0  0  0  0  0
   11.7298   11.2676    4.8766 H   0  0  0  0  0  0  0  0  0  0  0  0
   10.8669    8.9717    4.5005 H   0  0  0  0  0  0  0  0  0  0  0  0
    7.2610   10.5891    2.8076 H   0  0  0  0  0  0  0  0  0  0  0  0
    8.8008   12.9194    1.2853 H   0  0  0  0  0  0  0  0  0  0  0  0
    8.2244   14.5439    1.7222 H   0  0  0  0  0  0  0  0  0  0  0  0
    7.0155   13.2692    1.2481 H   0  0  0  0  0  0  0  0  0  0  0  0
    8.9613    7.8473    2.4750 H   0  0  0  0  0  0  0  0  0  0  0  0
    8.7665    7.6175    4.2459 H   0  0  0  0  0  0  0  0  0  0  0  0
    7.2916    8.0757    0.8656 H   0  0  0  0  0  0  0  0  0  0  0  0
    5.5118    8.0632    1.1084 H   0  0  0  0  0  0  0  0  0  0  0  0
    7.4025   10.4712    1.2366 H   0  0  0  0  0  0  0  0  0  0  0  0
    4.5609   10.1722    2.0038 H   0  0  0  0  0  0  0  0  0  0  0  0
    5.2882   11.6559    1.6915 H   0  0  0  0  0  0  0  0  0  0  0  0
    5.8381   10.7006    2.9611 H   0  0  0  0  0  0  0  0  0  0  0  0
  1  2  1  0  0  0  0
  1 19  1  0  0  0  0
  1 20  1  0  0  0  0
  1 21  1  0  0  0  0
  2  3  1  0  0  0  0
  3  8  2  0  0  0  0
  3  4  1  0  0  0  0
  4  5  2  0  0  0  0
  4 22  1  0  0  0  0
  5  6  1  0  0  0  0
  5 23  1  0  0  0  0
  6  7  2  0  0  0  0
  6 11  1  0  0  0  0
  7  8  1  0  0  0  0
  7 24  1  0  0  0  0
  8  9  1  0  0  0  0
  9 10  1  0  0  0  0
 10 25  1  0  0  0  0
 10 26  1  0  0  0  0
 10 27  1  0  0  0  0
 11 12  1  0  0  0  0
 11 28  1  0  0  0  0
 11 29  1  0  0  0  0
 12 13  1  0  0  0  0
 13 14  1  0  0  0  0
 13 30  1  0  0  0  0
 13 31  1  0  0  0  0
 14 15  1  0  0  0  0
 14 18  1  0  0  0  0
 14 32  1  0  0  0  0
 15 16  2  0  0  0  0
 15 17  1  0  0  0  0
 18 33  1  0  0  0  0
 18 34  1  0  0  0  0
 18 35  1  0  0  0  0
M  END
> <Name>
ZINC19483528

> <reference>
BDB5195

> <quality>
0.758

> <status>
decoy

> <atoms in reference ligand area>
18

> <score>
-37.224

$$$$
ZINC15771728
      BALL 1.4.0 (Jan  4 2012, 23:22:29)

 52 52  0999  0  0  0  0  0  0999 V2000
   12.2074   15.9842   -1.7416 C   0  0  0  0  0  0  0  0  0  0  0  0
   11.0683   15.1952   -2.0908 O   0  0  0  0  0  0  0  0  0  0  0  0
   10.5078   14.4486   -1.1019 C   0  0  0  0  0  0  0  0  0  0  0  0
   10.4349   13.0707   -1.2285 C   0  0  0  0  0  0  0  0  0  0  0  0
    9.8695   12.3129   -0.2201 C   0  0  0  0  0  0  0  0  0  0  0  0
    9.3655   12.9277    0.9111 C   0  0  0  0  0  0  0  0  0  0  0  0
    9.4350   14.3019    1.0438 C   0  0  0  0  0  0  0  0  0  0  0  0
   10.0056   15.0669    0.0392 C   0  0  0  0  0  0  0  0  0  0  0  0
   10.0744   16.4190    0.1679 O   0  0  0  0  0  0  0  0  0  0  0  0
    9.3498   17.0052    1.2512 C   0  0  0  0  0  0  0  0  0  0  0  0
    8.7445   12.0972    2.0047 C   0  0  0  0  0  0  0  0  0  0  0  0
    7.9041   10.9805    1.3821 C   0  0  0  0  0  0  0  0  0  0  0  0
    6.2997    9.2430    1.9014 C   0  0  0  0  0  0  0  0  0  0  0  0
    5.8742    8.2541    2.9886 C   0  0  0  0  0  0  0  0  0  0  0  0
    7.1179    7.6487    3.6425 C   0  0  0  0  0  0  0  0  0  0  0  0
    7.6132    8.5771    4.7532 C   0  0  0  0  0  0  0  0  0  0  0  0
    8.6953    7.8656    5.5679 C   0  0  0  0  0  0  0  0  0  0  0  0
    8.3032    6.4001    5.7666 C   0  0  0  0  0  0  0  0  0  0  0  0
    8.5277    6.0274    7.1278 O   0  0  0  0  0  0  0  0  0  0  0  0
    8.8273    8.5003    6.8414 O   0  0  0  0  0  0  0  0  0  0  0  0
    6.5215    8.9207    5.6089 O   0  0  0  0  0  0  0  0  0  0  0  0
    8.1439    7.4916    2.6603 O   0  0  0  0  0  0  0  0  0  0  0  0
    5.1006    8.9368    3.9773 O   0  0  0  0  0  0  0  0  0  0  0  0
    7.3001   10.1727    2.4587 N   0  3  0  0  0  0  0  0  0  0  0  0
   11.8169   16.9089   -1.2918 H   0  0  0  0  0  0  0  0  0  0  0  0
   12.7003   16.2515   -2.6880 H   0  0  0  0  0  0  0  0  0  0  0  0
   12.8947   15.4611   -1.0605 H   0  0  0  0  0  0  0  0  0  0  0  0
   10.8270   12.5799   -2.1314 H   0  0  0  0  0  0  0  0  0  0  0  0
    9.8205   11.2183   -0.3178 H   0  0  0  0  0  0  0  0  0  0  0  0
    9.0373   14.7881    1.9468 H   0  0  0  0  0  0  0  0  0  0  0  0
    8.6590   17.7343    0.8025 H   0  0  0  0  0  0  0  0  0  0  0  0
   10.0856   17.5620    1.8500 H   0  0  0  0  0  0  0  0  0  0  0  0
    8.8144   16.2599    1.8577 H   0  0  0  0  0  0  0  0  0  0  0  0
    9.5381   11.6555    2.6254 H   0  0  0  0  0  0  0  0  0  0  0  0
    8.1014   12.7340    2.6300 H   0  0  0  0  0  0  0  0  0  0  0  0
    7.1084   11.4208    0.7632 H   0  0  0  0  0  0  0  0  0  0  0  0
    8.5455   10.3402    0.7588 H   0  0  0  0  0  0  0  0  0  0  0  0
    6.7400    8.6933    1.0565 H   0  0  0  0  0  0  0  0  0  0  0  0
    5.4232    9.8110    1.5563 H   0  0  0  0  0  0  0  0  0  0  0  0
    5.2695    7.4528    2.5389 H   0  0  0  0  0  0  0  0  0  0  0  0
    6.8663    6.6670    4.0701 H   0  0  0  0  0  0  0  0  0  0  0  0
    8.0316    9.4915    4.3073 H   0  0  0  0  0  0  0  0  0  0  0  0
    9.6536    7.9191    5.0304 H   0  0  0  0  0  0  0  0  0  0  0  0
    8.9123    5.7639    5.1077 H   0  0  0  0  0  0  0  0  0  0  0  0
    7.2389    6.2687    5.5218 H   0  0  0  0  0  0  0  0  0  0  0  0
    7.8671    6.4816    7.7085 H   0  0  0  0  0  0  0  0  0  0  0  0
    8.1074    8.1861    7.4439 H   0  0  0  0  0  0  0  0  0  0  0  0
    6.1840    9.8201    5.3697 H   0  0  0  0  0  0  0  0  0  0  0  0
    8.9952    7.2539    3.1061 H   0  0  0  0  0  0  0  0  0  0  0  0
    4.2229    9.1887    3.5949 H   0  0  0  0  0  0  0  0  0  0  0  0
    8.0371    9.6343    2.9360 H   0  0  0  0  0  0  0  0  0  0  0  0
    6.8436   10.7963    3.1396 H   0  0  0  0  0  0  0  0  0  0  0  0
  1  2  1  0  0  0  0
  1 25  1  0  0  0  0
  1 26  1  0  0  0  0
  1 27  1  0  0  0  0
  2  3  1  0  0  0  0
  3  8  2  0  0  0  0
  3  4  1  0  0  0  0
  4  5  2  0  0  0  0
  4 28  1  0  0  0  0
  5  6  1  0  0  0  0
  5 29  1  0  0  0  0
  6  7  2  0  0  0  0
  6 11  1  0  0  0  0
  7  8  1  0  0  0  0
  7 30  1  0  0  0  0
  8  9  1  0  0  0  0
  9 10  1  0  0  0  0
 10 31  1  0  0  0  0
 10 32  1  0  0  0  0
 10 33  1  0  0  0  0
 11 12  1  0  0  0  0
 11 34  1  0  0  0  0
 11 35  1  0  0  0  0
 12 24  1  0  0  0  0
 12 36  1  0  0  0  0
 12 37  1  0  0  0  0
 13 14  1  0  0  0  0
 13 24  1  0  0  0  0
 13 38  1  0  0  0  0
 13 39  1  0  0  0  0
 14 15  1  0  0  0  0
 14 23  1  0  0  0  0
 14 40  1  0  0  0  0
 15 16  1  0  0  0  0
 15 22  1  0  0  0  0
 15 41  1  0  0  0  0
 16 17  1  0  0  0  0
 16 21  1  0  0  0  0
 16 42  1  0  0  0  0
 17 18  1  0  0  0  0
 17 20  1  0  0  0  0
 17 43  1  0  0  0  0
 18 19  1  0  0  0  0
 18 44  1  0  0  0  0
 18 45  1  0  0  0  0
 19 46  1  0  0  0  0
 20 47  1  0  0  0  0
 21 48  1  0  0  0  0
 22 49  1  0  0  0  0
 23 50  1  0  0  0  0
 24 51  1  0  0  0  0
 24 52  1  0  0  0  0
M  END
> <Name>
ZINC15771728

> <reference>
BDB4997

> <quality>
0.657

> <status>
decoy

> <atoms in reference ligand area>
15

> <score>
-36.8821

$$$$
ZINC13354670
      BALL 1.4.0 (Jan  4 2012, 23:22:29)

 43 44  0999  0  0  0  0  0  0999 V2000
    9.9762   15.8149    0.6252 C   0  0  0  0  0  0  0  0  0  0  0  0
    9.4848   16.4648    1.7494 C   0  0  0  0  0  0  0  0  0  0  0  0
    9.4105   15.8137    2.9610 C   0  0  0  0  0  0  0  0  0  0  0  0
    9.8316   14.4915    3.0620 C   0  0  0  0  0  0  0  0  0  0  0  0
   10.3287   13.8377    1.9200 C   0  0  0  0  0  0  0  0  0  0  0  0
   10.3954   14.5168    0.7019 C   0  0  0  0  0  0  0  0  0  0  0  0
   10.6809   12.4825    2.3508 C   0  0  0  0  0  0  0  0  0  0  0  0
   10.3870   12.3974    3.6577 C   0  0  0  0  0  0  0  0  0  0  0  0
    9.8834   13.5899    4.1013 N   0  0  0  0  0  0  0  0  0  0  0  0
   11.2577   11.3893    1.4886 C   0  0  0  0  0  0  0  0  0  0  0  0
   12.0251   10.4212    2.3516 C   0  0  0  0  0  0  0  0  0  0  0  0
   11.5131    9.9620    3.3507 O   0  0  0  0  0  0  0  0  0  0  0  0
   13.2802   10.0655    2.0132 N   0  0  0  0  0  0  0  0  0  0  0  0
   14.0262    9.1242    2.8521 C   0  0  0  0  0  0  0  0  0  0  0  0
   14.1730    9.7024    4.2611 C   0  0  0  0  0  0  0  0  0  0  0  0
   15.4724    9.1935    4.8884 C   0  0  0  0  0  0  0  0  0  0  0  0
   16.3735   10.3819    5.2299 C   0  0  0  0  0  0  0  0  0  0  0  0
   17.2387   10.0339    6.4429 C   0  0  0  0  0  0  0  0  0  0  0  0
   16.7086   10.7481    7.6594 C   0  0  0  0  0  0  0  0  0  0  0  0
   15.5796   10.5415    8.0371 O   0  0  0  0  0  0  0  0  0  0  0  0
   17.4925   11.6095    8.3267 O   0  5  0  0  0  0  0  0  0  0  0  0
   18.6344   10.4476    6.2152 N   0  3  0  0  0  0  0  0  0  0  0  0
   10.0285   16.3494   -0.3347 H   0  0  0  0  0  0  0  0  0  0  0  0
    9.1514   17.5102    1.6716 H   0  0  0  0  0  0  0  0  0  0  0  0
    9.0194   16.3374    3.8458 H   0  0  0  0  0  0  0  0  0  0  0  0
   10.7842   14.0086   -0.1928 H   0  0  0  0  0  0  0  0  0  0  0  0
   10.5298   11.5016    4.2800 H   0  0  0  0  0  0  0  0  0  0  0  0
    9.5874   13.7841    5.0685 H   0  0  0  0  0  0  0  0  0  0  0  0
   11.9344   11.8289    0.7410 H   0  0  0  0  0  0  0  0  0  0  0  0
   10.4423   10.8570    0.9770 H   0  0  0  0  0  0  0  0  0  0  0  0
   13.7151   10.4556    1.1649 H   0  0  0  0  0  0  0  0  0  0  0  0
   13.4836    8.1688    2.9032 H   0  0  0  0  0  0  0  0  0  0  0  0
   15.0237    8.9568    2.4196 H   0  0  0  0  0  0  0  0  0  0  0  0
   14.1986   10.8008    4.2061 H   0  0  0  0  0  0  0  0  0  0  0  0
   13.3199    9.3861    4.8792 H   0  0  0  0  0  0  0  0  0  0  0  0
   15.2417    8.6333    5.8065 H   0  0  0  0  0  0  0  0  0  0  0  0
   15.9907    8.5339    4.1768 H   0  0  0  0  0  0  0  0  0  0  0  0
   17.0219   10.6094    4.3708 H   0  0  0  0  0  0  0  0  0  0  0  0
   15.7525   11.2594    5.4630 H   0  0  0  0  0  0  0  0  0  0  0  0
   17.2053    8.9454    6.5981 H   0  0  0  0  0  0  0  0  0  0  0  0
   18.9481   10.0868    5.3029 H   0  0  0  0  0  0  0  0  0  0  0  0
   19.2283   10.0526    6.9583 H   0  0  0  0  0  0  0  0  0  0  0  0
   18.7027   11.4752    6.2248 H   0  0  0  0  0  0  0  0  0  0  0  0
  1  6  1  0  0  0  0
  1  2  2  0  0  0  0
  1 23  1  0  0  0  0
  2  3  1  0  0  0  0
  2 24  1  0  0  0  0
  3  4  2  0  0  0  0
  3 25  1  0  0  0  0
  4  9  1  0  0  0  0
  4  5  1  0  0  0  0
  5  6  2  0  0  0  0
  5  7  1  0  0  0  0
  6 26  1  0  0  0  0
  7  8  2  0  0  0  0
  7 10  1  0  0  0  0
  8  9  1  0  0  0  0
  8 27  1  0  0  0  0
  9 28  1  0  0  0  0
 10 11  1  0  0  0  0
 10 29  1  0  0  0  0
 10 30  1  0  0  0  0
 11 12  2  0  0  0  0
 11 13  1  0  0  0  0
 13 14  1  0  0  0  0
 13 31  1  0  0  0  0
 14 15  1  0  0  0  0
 14 32  1  0  0  0  0
 14 33  1  0  0  0  0
 15 16  1  0  0  0  0
 15 34  1  0  0  0  0
 15 35  1  0  0  0  0
 16 17  1  0  0  0  0
 16 36  1  0  0  0  0
 16 37  1  0  0  0  0
 17 18  1  0  0  0  0
 17 38  1  0  0  0  0
 17 39  1  0  0  0  0
 18 19  1  0  0  0  0
 18 22  1  0  0  0  0
 18 40  1  0  0  0  0
 19 20  2  0  0  0  0
 19 21  1  0  0  0  0
 22 41  1  0  0  0  0
 22 42  1  0  0  0  0
 22 43  1  0  0  0  0
M  END
> <Name>
ZINC13354670

> <reference>
BDB5021

> <quality>
0.671

> <status>
decoy

> <atoms in reference ligand area>
12

> <score>
-36.8562

$$$$
ZINC06315906
      BALL 1.4.0 (Jan  4 2012, 23:22:29)

 33 35  0999  0  0  0  0  0  0999 V2000
    4.7429    6.2983   -2.8432 C   0  0  0  0  0  0  0  0  0  0  0  0
    3.6339    6.5647   -2.0536 C   0  0  0  0  0  0  0  0  0  0  0  0
    3.6755    7.5595   -1.1031 C   0  0  0  0  0  0  0  0  0  0  0  0
    4.8441    8.3077   -0.9316 C   0  0  0  0  0  0  0  0  0  0  0  0
    5.9645    8.0333   -1.7345 C   0  0  0  0  0  0  0  0  0  0  0  0
    5.9038    7.0270   -2.6870 C   0  0  0  0  0  0  0  0  0  0  0  0
    6.9488    8.9247   -1.3433 N   0  0  0  0  0  0  0  0  0  0  0  0
    6.4237    9.6916   -0.3364 C   0  0  0  0  0  0  0  0  0  0  0  0
    5.1840    9.3255   -0.1013 N   0  0  0  0  0  0  0  0  0  0  0  0
    7.1383   10.7671    0.3705 C   0  0  0  0  0  0  0  0  0  0  0  0
    7.6706   11.9057   -0.2298 C   0  0  0  0  0  0  0  0  0  0  0  0
    8.2717   12.7157    0.6808 N   0  0  0  0  0  0  0  0  0  0  0  0
    8.1481   12.0857    2.0025 C   0  5  0  0  0  0  0  0  0  0  0  0
    7.3871   10.8007    1.7541 C   0  0  0  0  0  0  0  0  0  0  0  0
    7.0620    9.9688    2.5788 O   0  0  0  0  0  0  0  0  0  0  0  0
    8.9041   13.9355    0.4065 N   0  0  0  0  0  0  0  0  0  0  0  0
   10.2363   13.9738    0.2061 C   0  0  0  0  0  0  0  0  0  0  0  0
   10.8928   14.8857    0.6643 O   0  0  0  0  0  0  0  0  0  0  0  0
   10.9049   12.8931   -0.5804 C   0  0  0  0  0  0  0  0  0  0  0  0
   10.3551   11.8215   -0.7283 O   0  0  0  0  0  0  0  0  0  0  0  0
   12.1186   13.1088   -1.1254 N   0  0  0  0  0  0  0  0  0  0  0  0
    7.5973   12.1742   -1.5643 N   0  0  0  0  0  0  0  0  0  0  0  0
    4.6963    5.5006   -3.5991 H   0  0  0  0  0  0  0  0  0  0  0  0
    2.7142    5.9765   -2.1881 H   0  0  0  0  0  0  0  0  0  0  0  0
    2.7923    7.7652   -0.4806 H   0  0  0  0  0  0  0  0  0  0  0  0
    6.7795    6.8104   -3.3164 H   0  0  0  0  0  0  0  0  0  0  0  0
    7.8983    8.9978   -1.7358 H   0  0  0  0  0  0  0  0  0  0  0  0
    7.5760   12.7361    2.6804 H   0  0  0  0  0  0  0  0  0  0  0  0
    8.3508   14.8030    0.3580 H   0  0  0  0  0  0  0  0  0  0  0  0
   12.7738   12.3239   -1.2506 H   0  0  0  0  0  0  0  0  0  0  0  0
   12.3909   14.0585   -1.4168 H   0  0  0  0  0  0  0  0  0  0  0  0
    7.8863   11.4237   -2.2076 H   0  0  0  0  0  0  0  0  0  0  0  0
    7.2695   13.0820   -1.9239 H   0  0  0  0  0  0  0  0  0  0  0  0
  1  6  1  0  0  0  0
  1  2  2  0  0  0  0
  1 23  1  0  0  0  0
  2  3  1  0  0  0  0
  2 24  1  0  0  0  0
  3  4  2  0  0  0  0
  3 25  1  0  0  0  0
  4  9  1  0  0  0  0
  4  5  1  0  0  0  0
  5  6  2  0  0  0  0
  5  7  1  0  0  0  0
  6 26  1  0  0  0  0
  7  8  1  0  0  0  0
  7 27  1  0  0  0  0
  8  9  2  0  0  0  0
  8 10  1  0  0  0  0
 10 14  1  0  0  0  0
 10 11  2  0  0  0  0
 11 12  1  0  0  0  0
 11 22  1  0  0  0  0
 12 13  1  0  0  0  0
 12 16  1  0  0  0  0
 13 14  1  0  0  0  0
 13 28  1  0  0  0  0
 14 15  2  0  0  0  0
 16 17  1  0  0  0  0
 16 29  1  0  0  0  0
 17 18  2  0  0  0  0
 17 19  1  0  0  0  0
 19 20  2  0  0  0  0
 19 21  1  0  0  0  0
 21 30  1  0  0  0  0
 21 31  1  0  0  0  0
 22 32  1  0  0  0  0
 22 33  1  0  0  0  0
M  END
> <Name>
ZINC06315906

> <reference>
BDB5257

> <quality>
0.817

> <status>
decoy

> <atoms in reference ligand area>
15

> <score>
-36.7808

$$$$
ZINC26997465
      BALL 1.4.0 (Jan  4 2012, 23:22:29)

 47 48  0999  0  0  0  0  0  0999 V2000
    4.6402    8.1136    5.1525 C   0  0  0  0  0  0  0  0  0  0  0  0
    4.9391    8.4488    3.6899 C   0  0  0  0  0  0  0  0  0  0  0  0
    4.7176    7.2252    2.8387 C   0  0  0  0  0  0  0  0  0  0  0  0
    5.2933    6.1913    3.1019 O   0  0  0  0  0  0  0  0  0  0  0  0
    3.8793    7.2802    1.7848 N   0  0  0  0  0  0  0  0  0  0  0  0
    3.6812    6.1859    1.0234 C   0  0  0  0  0  0  0  0  0  0  0  0
    4.2637    6.0697   -0.0369 O   0  0  0  0  0  0  0  0  0  0  0  0
    2.8371    5.2205    1.4379 N   0  0  0  0  0  0  0  0  0  0  0  0
    1.4765    5.1560    0.8986 C   0  0  0  0  0  0  0  0  0  0  0  0
    0.5523    4.5710    1.9352 C   0  0  0  0  0  0  0  0  0  0  0  0
   -0.6130    5.1250    2.1613 C   0  0  0  0  0  0  0  0  0  0  0  0
    6.3195    8.8819    3.5649 O   0  0  0  0  0  0  0  0  0  0  0  0
    6.5644    9.9108    2.7308 C   0  0  0  0  0  0  0  0  0  0  0  0
    5.6900   10.3138    1.9901 O   0  0  0  0  0  0  0  0  0  0  0  0
    7.8966   10.5493    2.7167 C   0  0  0  0  0  0  0  0  0  0  0  0
    8.4895   10.9613    3.9120 C   0  0  0  0  0  0  0  0  0  0  0  0
    9.7359   11.5516    3.8921 C   0  0  0  0  0  0  0  0  0  0  0  0
   10.3936   11.7466    2.6903 C   0  0  0  0  0  0  0  0  0  0  0  0
    9.8094   11.3460    1.5019 C   0  0  0  0  0  0  0  0  0  0  0  0
    8.5658   10.7487    1.5078 C   0  0  0  0  0  0  0  0  0  0  0  0
   10.5335   11.5621    0.1980 C   0  0  0  0  0  0  0  0  0  0  0  0
   10.3643   12.9530   -0.2298 N   0  0  0  0  0  0  0  0  0  0  0  0
   11.0451   13.5211   -1.2447 C   0  0  0  0  0  0  0  0  0  0  0  0
   11.8812   12.9975   -1.9493 O   0  0  0  0  0  0  0  0  0  0  0  0
   10.5463   14.9504   -1.3235 C   0  0  0  0  0  0  0  0  0  0  0  0
    9.5546   15.0313   -0.2372 N   0  5  0  0  0  0  0  0  0  0  0  0
    9.5189   13.8178    0.3424 C   0  0  0  0  0  0  0  0  0  0  0  0
    8.7992   13.5383    1.2810 O   0  0  0  0  0  0  0  0  0  0  0  0
    3.8717    7.3280    5.2001 H   0  0  0  0  0  0  0  0  0  0  0  0
    4.2758    9.0139    5.6690 H   0  0  0  0  0  0  0  0  0  0  0  0
    5.5582    7.7572    5.6427 H   0  0  0  0  0  0  0  0  0  0  0  0
    4.2701    9.2550    3.3545 H   0  0  0  0  0  0  0  0  0  0  0  0
    3.3901    8.1587    1.5612 H   0  0  0  0  0  0  0  0  0  0  0  0
    3.1485    4.5281    2.1338 H   0  0  0  0  0  0  0  0  0  0  0  0
    1.4667    4.5217   -0.0001 H   0  0  0  0  0  0  0  0  0  0  0  0
    1.1376    6.1690    0.6360 H   0  0  0  0  0  0  0  0  0  0  0  0
    0.8562    3.6786    2.5021 H   0  0  0  0  0  0  0  0  0  0  0  0
   -0.9170    6.0173    1.5944 H   0  0  0  0  0  0  0  0  0  0  0  0
   -1.2876    4.6978    2.9180 H   0  0  0  0  0  0  0  0  0  0  0  0
    7.9637   10.8155    4.8672 H   0  0  0  0  0  0  0  0  0  0  0  0
   10.2083   11.8681    4.8338 H   0  0  0  0  0  0  0  0  0  0  0  0
   11.3853   12.2224    2.6797 H   0  0  0  0  0  0  0  0  0  0  0  0
    8.1026   10.4304    0.5622 H   0  0  0  0  0  0  0  0  0  0  0  0
   10.1193   10.8906   -0.5685 H   0  0  0  0  0  0  0  0  0  0  0  0
   11.6040   11.3483    0.3331 H   0  0  0  0  0  0  0  0  0  0  0  0
   11.3731   15.6516   -1.1368 H   0  0  0  0  0  0  0  0  0  0  0  0
   10.0622   15.1314   -2.2945 H   0  0  0  0  0  0  0  0  0  0  0  0
  1  2  1  0  0  0  0
  1 29  1  0  0  0  0
  1 30  1  0  0  0  0
  1 31  1  0  0  0  0
  2  3  1  0  0  0  0
  2 12  1  0  0  0  0
  2 32  1  0  0  0  0
  3  4  2  0  0  0  0
  3  5  1  0  0  0  0
  5  6  1  0  0  0  0
  5 33  1  0  0  0  0
  6  7  2  0  0  0  0
  6  8  1  0  0  0  0
  8  9  1  0  0  0  0
  8 34  1  0  0  0  0
  9 10  1  0  0  0  0
  9 35  1  0  0  0  0
  9 36  1  0  0  0  0
 10 11  2  0  0  0  0
 10 37  1  0  0  0  0
 11 38  1  0  0  0  0
 11 39  1  0  0  0  0
 12 13  1  0  0  0  0
 13 14  2  0  0  0  0
 13 15  1  0  0  0  0
 15 20  2  0  0  0  0
 15 16  1  0  0  0  0
 16 17  2  0  0  0  0
 16 40  1  0  0  0  0
 17 18  1  0  0  0  0
 17 41  1  0  0  0  0
 18 19  2  0  0  0  0
 18 42  1  0  0  0  0
 19 20  1  0  0  0  0
 19 21  1  0  0  0  0
 20 43  1  0  0  0  0
 21 22  1  0  0  0  0
 21 44  1  0  0  0  0
 21 45  1  0  0  0  0
 22 27  1  0  0  0  0
 22 23  1  0  0  0  0
 23 24  2  0  0  0  0
 23 25  1  0  0  0  0
 25 26  1  0  0  0  0
 25 46  1  0  0  0  0
 25 47  1  0  0  0  0
 26 27  1  0  0  0  0
 27 28  2  0  0  0  0
M  END
> <Name>
ZINC26997465

> <reference>
BDB4945

> <quality>
0.707

> <status>
decoy

> <atoms in reference ligand area>
17

> <score>
-36.7047

$$$$
ZINC04340004
      BALL 1.4.0 (Jan  4 2012, 23:22:29)

 41 42  0999  0  0  0  0  0  0999 V2000
   10.8047   14.5895   -0.0397 C   0  0  0  0  0  0  0  0  0  0  0  0
   10.8405   15.7913   -0.9876 C   0  0  0  0  0  0  0  0  0  0  0  0
   11.0560   15.3314   -2.3245 O   0  0  0  0  0  0  0  0  0  0  0  0
   12.2668   14.5885   -2.4896 C   0  0  0  0  0  0  0  0  0  0  0  0
   12.2454   13.3744   -1.5571 C   0  0  0  0  0  0  0  0  0  0  0  0
   12.0870   12.6980    0.7634 C   0  0  0  0  0  0  0  0  0  0  0  0
   10.9511   11.7455    0.3851 C   0  0  0  0  0  0  0  0  0  0  0  0
   10.4400   11.0368    1.6411 C   0  0  0  0  0  0  0  0  0  0  0  0
    8.3192    9.8706    1.7093 C   0  0  0  0  0  0  0  0  0  0  0  0
    7.4452   10.6059    0.6534 C   0  0  0  0  0  0  0  0  0  0  0  0
    5.7677   10.0095    1.1283 S   0  0  0  0  0  0  0  0  0  0  0  0
    5.1905   10.9323    2.0417 O   0  0  0  0  0  0  0  0  0  0  0  0
    5.0549    9.6506   -0.0474 O   0  0  0  0  0  0  0  0  0  0  0  0
    6.2340    8.4801    2.0370 C   0  0  0  0  0  0  0  0  0  0  0  0
    7.7722    8.4412    1.8704 C   0  0  0  0  0  0  0  0  0  0  0  0
    8.1047    7.6729    0.7123 O   0  0  0  0  0  0  0  0  0  0  0  0
   12.0766   13.8477   -0.1669 N   0  0  0  0  0  0  0  0  0  0  0  0
    9.7183    9.8126    1.2455 N   0  3  0  0  0  0  0  0  0  0  0  0
   10.6851   14.9403    0.9959 H   0  0  0  0  0  0  0  0  0  0  0  0
    9.9661   13.9308   -0.3095 H   0  0  0  0  0  0  0  0  0  0  0  0
    9.8826   16.3293   -0.9347 H   0  0  0  0  0  0  0  0  0  0  0  0
   11.6586   16.4662   -0.6958 H   0  0  0  0  0  0  0  0  0  0  0  0
   12.3498   14.2483   -3.5325 H   0  0  0  0  0  0  0  0  0  0  0  0
   13.1274   15.2267   -2.2406 H   0  0  0  0  0  0  0  0  0  0  0  0
   13.1935   12.8236   -1.6456 H   0  0  0  0  0  0  0  0  0  0  0  0
   11.4056   12.7172   -1.8268 H   0  0  0  0  0  0  0  0  0  0  0  0
   11.9396   13.0565    1.7928 H   0  0  0  0  0  0  0  0  0  0  0  0
   13.0503   12.1724    0.6873 H   0  0  0  0  0  0  0  0  0  0  0  0
   10.1301   12.3170   -0.0725 H   0  0  0  0  0  0  0  0  0  0  0  0
   11.3214   10.9979   -0.3318 H   0  0  0  0  0  0  0  0  0  0  0  0
   11.2913   10.7693    2.2843 H   0  0  0  0  0  0  0  0  0  0  0  0
    9.7582   11.7037    2.1889 H   0  0  0  0  0  0  0  0  0  0  0  0
    8.2856   10.4060    2.6696 H   0  0  0  0  0  0  0  0  0  0  0  0
    7.6901   10.2658   -0.3636 H   0  0  0  0  0  0  0  0  0  0  0  0
    7.5070   11.6962    0.7853 H   0  0  0  0  0  0  0  0  0  0  0  0
    5.7724    7.6038    1.5585 H   0  0  0  0  0  0  0  0  0  0  0  0
    5.9637    8.5784    3.0987 H   0  0  0  0  0  0  0  0  0  0  0  0
    8.2208    7.9810    2.7632 H   0  0  0  0  0  0  0  0  0  0  0  0
    8.7428    8.1797    0.1501 H   0  0  0  0  0  0  0  0  0  0  0  0
    9.7338    9.7236    0.2195 H   0  0  0  0  0  0  0  0  0  0  0  0
   10.1815    8.9924    1.6621 H   0  0  0  0  0  0  0  0  0  0  0  0
  1  2  1  0  0  0  0
  1 17  1  0  0  0  0
  1 19  1  0  0  0  0
  1 20  1  0  0  0  0
  2  3  1  0  0  0  0
  2 21  1  0  0  0  0
  2 22  1  0  0  0  0
  3  4  1  0  0  0  0
  4  5  1  0  0  0  0
  4 23  1  0  0  0  0
  4 24  1  0  0  0  0
  5 17  1  0  0  0  0
  5 25  1  0  0  0  0
  5 26  1  0  0  0  0
  6  7  1  0  0  0  0
  6 17  1  0  0  0  0
  6 27  1  0  0  0  0
  6 28  1  0  0  0  0
  7  8  1  0  0  0  0
  7 29  1  0  0  0  0
  7 30  1  0  0  0  0
  8 18  1  0  0  0  0
  8 31  1  0  0  0  0
  8 32  1  0  0  0  0
  9 15  1  0  0  0  0
  9 10  1  0  0  0  0
  9 18  1  0  0  0  0
  9 33  1  0  0  0  0
 10 11  1  0  0  0  0
 10 34  1  0  0  0  0
 10 35  1  0  0  0  0
 11 12  2  0  0  0  0
 11 13  2  0  0  0  0
 11 14  1  0  0  0  0
 14 15  1  0  0  0  0
 14 36  1  0  0  0  0
 14 37  1  0  0  0  0
 15 16  1  0  0  0  0
 15 38  1  0  0  0  0
 16 39  1  0  0  0  0
 18 40  1  0  0  0  0
 18 41  1  0  0  0  0
M  END
> <Name>
ZINC04340004

> <reference>
BDB4983

> <quality>
0.803

> <status>
decoy

> <atoms in reference ligand area>
16

> <score>
-36.6706

$$$$
ZINC05637890
      BALL 1.4.0 (Jan  4 2012, 23:22:29)

 41 42  0999  0  0  0  0  0  0999 V2000
   10.3308   11.9854    3.0798 C   0  0  0  0  0  0  0  0  0  0  0  0
    9.9199   10.7813    3.6175 C   0  0  0  0  0  0  0  0  0  0  0  0
    8.6841   10.2522    3.2681 C   0  0  0  0  0  0  0  0  0  0  0  0
    7.8630   10.9393    2.3828 C   0  0  0  0  0  0  0  0  0  0  0  0
    8.2776   12.1453    1.8533 C   0  0  0  0  0  0  0  0  0  0  0  0
    9.5087   12.6694    2.2034 C   0  0  0  0  0  0  0  0  0  0  0  0
   10.0338   14.2086    1.5254 S   0  0  0  0  0  0  0  0  0  0  0  0
    9.0313   14.6083    0.6011 O   0  0  0  0  0  0  0  0  0  0  0  0
   11.3944   14.0439    1.1497 O   0  0  0  0  0  0  0  0  0  0  0  0
   10.0132   15.3177    2.7550 N   0  0  0  0  0  0  0  0  0  0  0  0
    6.5452   10.3795    2.0079 N   0  0  0  0  0  0  0  0  0  0  0  0
    5.6475   11.1214    1.6516 O   0  0  0  0  0  0  0  0  0  0  0  0
    6.3585    9.1768    2.0559 O   0  0  0  0  0  0  0  0  0  0  0  0
    8.2677    9.0322    3.8060 N   0  0  0  0  0  0  0  0  0  0  0  0
    7.2377    9.0042    4.8473 C   0  0  0  0  0  0  0  0  0  0  0  0
    6.2904    7.8292    4.5962 C   0  0  0  0  0  0  0  0  0  0  0  0
    5.2147    7.7999    5.6837 C   0  0  0  0  0  0  0  0  0  0  0  0
    3.9226    7.4589    5.0834 N   0  0  0  0  0  0  0  0  0  0  0  0
    3.7593    6.6177    3.8919 C   0  0  0  0  0  0  0  0  0  0  0  0
    2.2754    6.1818    3.8976 C   0  0  0  0  0  0  0  0  0  0  0  0
    1.6147    7.3306    4.6943 C   0  0  0  0  0  0  0  0  0  0  0  0
    2.7346    7.8808    5.5498 C   0  0  0  0  0  0  0  0  0  0  0  0
    2.5826    8.5985    6.5156 O   0  0  0  0  0  0  0  0  0  0  0  0
   11.3132   12.4006    3.3492 H   0  0  0  0  0  0  0  0  0  0  0  0
   10.5705   10.2421    4.3216 H   0  0  0  0  0  0  0  0  0  0  0  0
    7.6279   12.6899    1.1523 H   0  0  0  0  0  0  0  0  0  0  0  0
   10.8935   15.5984    3.2102 H   0  0  0  0  0  0  0  0  0  0  0  0
    9.1201   15.7267    3.0647 H   0  0  0  0  0  0  0  0  0  0  0  0
    8.6849    8.1523    3.4704 H   0  0  0  0  0  0  0  0  0  0  0  0
    7.7142    8.8864    5.8316 H   0  0  0  0  0  0  0  0  0  0  0  0
    6.6675    9.9448    4.8261 H   0  0  0  0  0  0  0  0  0  0  0  0
    5.8132    7.9465    3.6121 H   0  0  0  0  0  0  0  0  0  0  0  0
    6.8587    6.8875    4.6182 H   0  0  0  0  0  0  0  0  0  0  0  0
    5.1469    8.7888    6.1607 H   0  0  0  0  0  0  0  0  0  0  0  0
    5.4778    7.0454    6.4397 H   0  0  0  0  0  0  0  0  0  0  0  0
    4.4097    5.7332    3.9610 H   0  0  0  0  0  0  0  0  0  0  0  0
    3.9747    7.2018    2.9850 H   0  0  0  0  0  0  0  0  0  0  0  0
    1.8809    6.1514    2.8713 H   0  0  0  0  0  0  0  0  0  0  0  0
    2.1572    5.2279    4.4325 H   0  0  0  0  0  0  0  0  0  0  0  0
    0.8101    6.9358    5.3322 H   0  0  0  0  0  0  0  0  0  0  0  0
    1.2480    8.1062    4.0058 H   0  0  0  0  0  0  0  0  0  0  0  0
  1  6  2  0  0  0  0
  1  2  1  0  0  0  0
  1 24  1  0  0  0  0
  2  3  2  0  0  0  0
  2 25  1  0  0  0  0
  3  4  1  0  0  0  0
  3 14  1  0  0  0  0
  4  5  2  0  0  0  0
  4 11  1  0  0  0  0
  5  6  1  0  0  0  0
  5 26  1  0  0  0  0
  6  7  1  0  0  0  0
  7  8  2  0  0  0  0
  7  9  2  0  0  0  0
  7 10  1  0  0  0  0
 10 27  1  0  0  0  0
 10 28  1  0  0  0  0
 11 12  2  0  0  0  0
 11 13  2  0  0  0  0
 14 15  1  0  0  0  0
 14 29  1  0  0  0  0
 15 16  1  0  0  0  0
 15 30  1  0  0  0  0
 15 31  1  0  0  0  0
 16 17  1  0  0  0  0
 16 32  1  0  0  0  0
 16 33  1  0  0  0  0
 17 18  1  0  0  0  0
 17 34  1  0  0  0  0
 17 35  1  0  0  0  0
 18 22  1  0  0  0  0
 18 19  1  0  0  0  0
 19 20  1  0  0  0  0
 19 36  1  0  0  0  0
 19 37  1  0  0  0  0
 20 21  1  0  0  0  0
 20 38  1  0  0  0  0
 20 39  1  0  0  0  0
 21 22  1  0  0  0  0
 21 40  1  0  0  0  0
 21 41  1  0  0  0  0
 22 23  2  0  0  0  0
M  END
> <Name>
ZINC05637890

> <reference>
BDB5244

> <quality>
0.665

> <status>
decoy

> <atoms in reference ligand area>
12

> <score>
-36.633

$$$$
ZINC26540596
      BALL 1.4.0 (Jan  4 2012, 23:22:29)

 37 38  0999  0  0  0  0  0  0999 V2000
   14.3096   10.1243    2.3707 C   0  0  0  0  0  0  0  0  0  0  0  0
   12.8569   10.2785    2.4790 N   0  0  0  0  0  0  0  0  0  0  0  0
   11.9260    9.3509    2.1625 C   0  0  0  0  0  0  0  0  0  0  0  0
   10.7426    9.8508    2.3906 N   0  0  0  0  0  0  0  0  0  0  0  0
   10.8728   11.1024    2.8561 C   0  0  0  0  0  0  0  0  0  0  0  0
   12.1883   11.3909    2.9141 C   0  0  0  0  0  0  0  0  0  0  0  0
   12.8980   12.8846    3.4421 Cl  0  0  0  0  0  0  0  0  0  0  0  0
    9.5551   12.1823    3.3056 S   0  0  0  0  0  0  0  0  0  0  0  0
   10.0252   12.9654    4.3942 O   0  0  0  0  0  0  0  0  0  0  0  0
    8.3850   11.3807    3.3931 O   0  0  0  0  0  0  0  0  0  0  0  0
    9.3219   13.2237    2.0394 N   0  5  0  0  0  0  0  0  0  0  0  0
    8.5560   12.8250    0.9370 C   0  0  0  0  0  0  0  0  0  0  0  0
    7.3390   12.1891    1.1294 C   0  0  0  0  0  0  0  0  0  0  0  0
    6.5841   11.7967    0.0393 C   0  0  0  0  0  0  0  0  0  0  0  0
    7.0417   12.0315   -1.2440 C   0  0  0  0  0  0  0  0  0  0  0  0
    8.2514   12.6700   -1.4450 C   0  0  0  0  0  0  0  0  0  0  0  0
    9.0150   13.0669   -0.3577 C   0  0  0  0  0  0  0  0  0  0  0  0
   10.2429   13.7090   -0.5588 N   0  0  0  0  0  0  0  0  0  0  0  0
   10.9337   13.5824   -1.8444 C   0  0  0  0  0  0  0  0  0  0  0  0
   12.3460   14.1585   -1.7235 C   0  0  0  0  0  0  0  0  0  0  0  0
   13.0300   13.5196   -0.6437 O   0  0  0  0  0  0  0  0  0  0  0  0
    5.2852   11.1181    0.2471 N   0  0  0  0  0  0  0  0  0  0  0  0
    4.8828   10.9060    1.3769 O   0  0  0  0  0  0  0  0  0  0  0  0
    4.6166   10.7762   -0.7117 O   0  0  0  0  0  0  0  0  0  0  0  0
   14.6311   11.1322    2.0693 H   0  0  0  0  0  0  0  0  0  0  0  0
   14.4132    9.4980    1.4724 H   0  0  0  0  0  0  0  0  0  0  0  0
   14.8344    9.7317    3.2541 H   0  0  0  0  0  0  0  0  0  0  0  0
   12.1321    8.3417    1.7766 H   0  0  0  0  0  0  0  0  0  0  0  0
    6.9740   11.9968    2.1491 H   0  0  0  0  0  0  0  0  0  0  0  0
    6.4415   11.7093   -2.1077 H   0  0  0  0  0  0  0  0  0  0  0  0
    8.6082   12.8632   -2.4674 H   0  0  0  0  0  0  0  0  0  0  0  0
   10.6603   14.2703    0.1971 H   0  0  0  0  0  0  0  0  0  0  0  0
   10.3781   14.1348   -2.6165 H   0  0  0  0  0  0  0  0  0  0  0  0
   10.9943   12.5206   -2.1253 H   0  0  0  0  0  0  0  0  0  0  0  0
   12.8953   13.9826   -2.6601 H   0  0  0  0  0  0  0  0  0  0  0  0
   12.2868   15.2398   -1.5305 H   0  0  0  0  0  0  0  0  0  0  0  0
   13.3692   12.6386   -0.9418 H   0  0  0  0  0  0  0  0  0  0  0  0
  1  2  1  0  0  0  0
  1 25  1  0  0  0  0
  1 26  1  0  0  0  0
  1 27  1  0  0  0  0
  2  6  1  0  0  0  0
  2  3  1  0  0  0  0
  3  4  2  0  0  0  0
  3 28  1  0  0  0  0
  4  5  1  0  0  0  0
  5  6  2  0  0  0  0
  5  8  1  0  0  0  0
  6  7  1  0  0  0  0
  8  9  2  0  0  0  0
  8 10  2  0  0  0  0
  8 11  1  0  0  0  0
 11 12  1  0  0  0  0
 12 17  2  0  0  0  0
 12 13  1  0  0  0  0
 13 14  2  0  0  0  0
 13 29  1  0  0  0  0
 14 15  1  0  0  0  0
 14 22  1  0  0  0  0
 15 16  2  0  0  0  0
 15 30  1  0  0  0  0
 16 17  1  0  0  0  0
 16 31  1  0  0  0  0
 17 18  1  0  0  0  0
 18 19  1  0  0  0  0
 18 32  1  0  0  0  0
 19 20  1  0  0  0  0
 19 33  1  0  0  0  0
 19 34  1  0  0  0  0
 20 21  1  0  0  0  0
 20 35  1  0  0  0  0
 20 36  1  0  0  0  0
 21 37  1  0  0  0  0
 22 23  2  0  0  0  0
 22 24  2  0  0  0  0
M  END
> <Name>
ZINC26540596

> <reference>
BDB4952

> <quality>
0.738

> <status>
decoy

> <atoms in reference ligand area>
22

> <score>
-36.578

$$$$
ZINC22450082
      BALL 1.4.0 (Jan  4 2012, 23:22:29)

 37 38  0999  0  0  0  0  0  0999 V2000
    2.2027    8.0551    6.2862 C   0  0  0  0  0  0  0  0  0  0  0  0
    2.9532    7.1447    5.6150 C   0  0  0  0  0  0  0  0  0  0  0  0
    1.9388    6.8865    4.1667 S   0  0  0  0  0  0  0  0  0  0  0  0
    0.6636    7.9881    4.5868 C   0  0  0  0  0  0  0  0  0  0  0  0
    1.0724    8.4566    5.7432 N   0  0  0  0  0  0  0  0  0  0  0  0
    4.2724    6.5201    5.9903 C   0  0  0  0  0  0  0  0  0  0  0  0
    5.3676    7.3380    5.4629 N   0  0  0  0  0  0  0  0  0  0  0  0
    6.0899    7.0927    4.3264 C   0  0  0  0  0  0  0  0  0  0  0  0
    6.9911    8.0872    4.2154 C   0  0  0  0  0  0  0  0  0  0  0  0
    6.8268    8.9145    5.2583 N   0  0  0  0  0  0  0  0  0  0  0  0
    5.8527    8.4747    6.0071 C   0  0  0  0  0  0  0  0  0  0  0  0
    8.0099    8.2404    3.1154 C   0  0  0  0  0  0  0  0  0  0  0  0
    7.7021    9.5027    2.3074 C   0  0  0  0  0  0  0  0  0  0  0  0
    6.2248    9.5649    2.0162 C   0  0  0  0  0  0  0  0  0  0  0  0
    5.5539    8.5620    2.0790 O   0  0  0  0  0  0  0  0  0  0  0  0
    5.6543   10.7344    1.6867 O   0  5  0  0  0  0  0  0  0  0  0  0
    8.0993   10.6874    3.0798 N   0  3  0  0  0  0  0  0  0  0  0  0
    8.3861   11.8225    2.1926 C   0  0  0  0  0  0  0  0  0  0  0  0
    8.5509   13.0938    3.0277 C   0  0  0  0  0  0  0  0  0  0  0  0
    8.3695   12.7726    4.4496 N   0  0  0  0  0  0  0  0  0  0  0  0
    2.5309    8.4478    7.2599 H   0  0  0  0  0  0  0  0  0  0  0  0
   -0.2518    8.2310    4.0274 H   0  0  0  0  0  0  0  0  0  0  0  0
    4.3528    6.4631    7.0859 H   0  0  0  0  0  0  0  0  0  0  0  0
    4.3342    5.5075    5.5650 H   0  0  0  0  0  0  0  0  0  0  0  0
    5.9595    6.2460    3.6364 H   0  0  0  0  0  0  0  0  0  0  0  0
    5.4874    8.9510    6.9288 H   0  0  0  0  0  0  0  0  0  0  0  0
    7.9705    7.3632    2.4529 H   0  0  0  0  0  0  0  0  0  0  0  0
    9.0148    8.3231    3.5551 H   0  0  0  0  0  0  0  0  0  0  0  0
    8.2618    9.4777    1.3608 H   0  0  0  0  0  0  0  0  0  0  0  0
    7.3374   10.9443    3.7236 H   0  0  0  0  0  0  0  0  0  0  0  0
    8.9406   10.4677    3.6319 H   0  0  0  0  0  0  0  0  0  0  0  0
    9.3145   11.6274    1.6358 H   0  0  0  0  0  0  0  0  0  0  0  0
    7.5549   11.9551    1.4845 H   0  0  0  0  0  0  0  0  0  0  0  0
    7.7984   13.8352    2.7211 H   0  0  0  0  0  0  0  0  0  0  0  0
    9.5581   13.5074    2.8713 H   0  0  0  0  0  0  0  0  0  0  0  0
    7.4268   12.3849    4.5975 H   0  0  0  0  0  0  0  0  0  0  0  0
    8.4806   13.6279    5.0126 H   0  0  0  0  0  0  0  0  0  0  0  0
  1  5  1  0  0  0  0
  1  2  2  0  0  0  0
  1 21  1  0  0  0  0
  2  3  1  0  0  0  0
  2  6  1  0  0  0  0
  3  4  1  0  0  0  0
  4  5  2  0  0  0  0
  4 22  1  0  0  0  0
  6  7  1  0  0  0  0
  6 23  1  0  0  0  0
  6 24  1  0  0  0  0
  7 11  1  0  0  0  0
  7  8  1  0  0  0  0
  8  9  2  0  0  0  0
  8 25  1  0  0  0  0
  9 10  1  0  0  0  0
  9 12  1  0  0  0  0
 10 11  2  0  0  0  0
 11 26  1  0  0  0  0
 12 13  1  0  0  0  0
 12 27  1  0  0  0  0
 12 28  1  0  0  0  0
 13 14  1  0  0  0  0
 13 17  1  0  0  0  0
 13 29  1  0  0  0  0
 14 15  2  0  0  0  0
 14 16  1  0  0  0  0
 17 18  1  0  0  0  0
 17 30  1  0  0  0  0
 17 31  1  0  0  0  0
 18 19  1  0  0  0  0
 18 32  1  0  0  0  0
 18 33  1  0  0  0  0
 19 20  1  0  0  0  0
 19 34  1  0  0  0  0
 19 35  1  0  0  0  0
 20 36  1  0  0  0  0
 20 37  1  0  0  0  0
M  END
> <Name>
ZINC22450082

> <reference>
BDB5021

> <quality>
0.714

> <status>
decoy

> <atoms in reference ligand area>
12

> <score>
-36.4483

$$$$
ZINC09467478
      BALL 1.4.0 (Jan  4 2012, 23:22:29)

 46 48  0999  0  0  0  0  0  0999 V2000
    9.1242   12.2842   -1.1062 C   0  0  0  0  0  0  0  0  0  0  0  0
   10.0451   12.9838   -1.8565 C   0  0  0  0  0  0  0  0  0  0  0  0
   11.3143   13.2292   -1.3491 C   0  0  0  0  0  0  0  0  0  0  0  0
   11.6592   12.7764   -0.0824 C   0  0  0  0  0  0  0  0  0  0  0  0
   10.7421   12.0813    0.6765 C   0  0  0  0  0  0  0  0  0  0  0  0
    9.4651   11.8324    0.1700 C   0  0  0  0  0  0  0  0  0  0  0  0
    8.4787   11.0875    0.9805 C   0  0  0  0  0  0  0  0  0  0  0  0
    8.3411   11.1404    2.2849 N   0  0  0  0  0  0  0  0  0  0  0  0
    7.3859   10.3657    2.6573 N   0  0  0  0  0  0  0  0  0  0  0  0
    6.8546    9.7703    1.6134 C   0  0  0  0  0  0  0  0  0  0  0  0
    7.5275   10.2122    0.5094 N   0  0  0  0  0  0  0  0  0  0  0  0
    7.3042    9.8568   -0.7905 N   0  0  0  0  0  0  0  0  0  0  0  0
    5.5185    8.6218    1.6329 S   0  0  0  0  0  0  0  0  0  0  0  0
    5.3824    8.3281    3.4138 C   0  0  0  0  0  0  0  0  0  0  0  0
    4.2695    7.3469    3.6774 C   0  0  0  0  0  0  0  0  0  0  0  0
    3.8907    7.1500    4.8126 O   0  0  0  0  0  0  0  0  0  0  0  0
    3.6950    6.6881    2.6516 N   0  0  0  0  0  0  0  0  0  0  0  0
    2.6131    5.7341    2.9077 C   0  0  0  0  0  0  0  0  0  0  0  0
    1.3593    6.4914    3.3496 C   0  0  0  0  0  0  0  0  0  0  0  0
    1.1040    6.2279    4.7679 N   0  0  0  0  0  0  0  0  0  0  0  0
    0.5128    7.1691    5.4846 C   0  0  0  0  0  0  0  0  0  0  0  0
    0.1790    8.2327    5.0082 O   0  0  0  0  0  0  0  0  0  0  0  0
    0.2766    6.8233    6.9478 C   0  0  0  0  0  0  0  0  0  0  0  0
    1.0003    5.1352    6.9930 S   0  0  0  0  0  0  0  0  0  0  0  0
    1.4880    5.0424    5.2766 C   0  0  0  0  0  0  0  0  0  0  0  0
    2.0385    4.1231    4.7023 O   0  0  0  0  0  0  0  0  0  0  0  0
   12.2212   13.9136   -2.0943 O   0  0  0  0  0  0  0  0  0  0  0  0
   11.9748   15.3063   -2.2980 C   0  0  0  0  0  0  0  0  0  0  0  0
   10.6227   15.5796   -2.0649 F   0  0  0  0  0  0  0  0  0  0  0  0
   12.7606   16.0531   -1.4137 F   0  0  0  0  0  0  0  0  0  0  0  0
    8.1221   12.0822   -1.5125 H   0  0  0  0  0  0  0  0  0  0  0  0
    9.7742   13.3481   -2.8585 H   0  0  0  0  0  0  0  0  0  0  0  0
   12.6656   12.9728    0.3158 H   0  0  0  0  0  0  0  0  0  0  0  0
   11.0160   11.7231    1.6798 H   0  0  0  0  0  0  0  0  0  0  0  0
    8.1441    9.5644   -1.3099 H   0  0  0  0  0  0  0  0  0  0  0  0
    6.3755    9.8731   -1.2356 H   0  0  0  0  0  0  0  0  0  0  0  0
    5.1637    9.2761    3.9272 H   0  0  0  0  0  0  0  0  0  0  0  0
    6.3302    7.9168    3.7911 H   0  0  0  0  0  0  0  0  0  0  0  0
    4.0168    6.8552    1.6875 H   0  0  0  0  0  0  0  0  0  0  0  0
    2.3955    5.1707    1.9884 H   0  0  0  0  0  0  0  0  0  0  0  0
    2.9181    5.0366    3.7017 H   0  0  0  0  0  0  0  0  0  0  0  0
    0.4977    6.1554    2.7541 H   0  0  0  0  0  0  0  0  0  0  0  0
    1.5104    7.5705    3.1991 H   0  0  0  0  0  0  0  0  0  0  0  0
    0.8466    7.4935    7.6080 H   0  0  0  0  0  0  0  0  0  0  0  0
   -0.7989    6.7763    7.1739 H   0  0  0  0  0  0  0  0  0  0  0  0
   12.2304   15.5762   -3.3333 H   0  0  0  0  0  0  0  0  0  0  0  0
  1  6  2  0  0  0  0
  1  2  1  0  0  0  0
  1 31  1  0  0  0  0
  2  3  2  0  0  0  0
  2 32  1  0  0  0  0
  3  4  1  0  0  0  0
  3 27  1  0  0  0  0
  4  5  2  0  0  0  0
  4 33  1  0  0  0  0
  5  6  1  0  0  0  0
  5 34  1  0  0  0  0
  6  7  1  0  0  0  0
  7 11  1  0  0  0  0
  7  8  2  0  0  0  0
  8  9  1  0  0  0  0
  9 10  2  0  0  0  0
 10 11  1  0  0  0  0
 10 13  1  0  0  0  0
 11 12  1  0  0  0  0
 12 35  1  0  0  0  0
 12 36  1  0  0  0  0
 13 14  1  0  0  0  0
 14 15  1  0  0  0  0
 14 37  1  0  0  0  0
 14 38  1  0  0  0  0
 15 16  2  0  0  0  0
 15 17  1  0  0  0  0
 17 18  1  0  0  0  0
 17 39  1  0  0  0  0
 18 19  1  0  0  0  0
 18 40  1  0  0  0  0
 18 41  1  0  0  0  0
 19 20  1  0  0  0  0
 19 42  1  0  0  0  0
 19 43  1  0  0  0  0
 20 25  1  0  0  0  0
 20 21  1  0  0  0  0
 21 22  2  0  0  0  0
 21 23  1  0  0  0  0
 23 24  1  0  0  0  0
 23 44  1  0  0  0  0
 23 45  1  0  0  0  0
 24 25  1  0  0  0  0
 25 26  2  0  0  0  0
 27 28  1  0  0  0  0
 28 29  1  0  0  0  0
 28 30  1  0  0  0  0
 28 46  1  0  0  0  0
M  END
> <Name>
ZINC09467478

> <reference>
BDB4972

> <quality>
0.665

> <status>
decoy

> <atoms in reference ligand area>
12

> <score>
-36.4462

$$$$
ZINC04650528
      BALL 1.4.0 (Jan  4 2012, 23:22:29)

 44 45  0999  0  0  0  0  0  0999 V2000
   11.2179    7.7812    4.2196 C   0  0  0  0  0  0  0  0  0  0  0  0
   10.2045    8.8608    4.4997 C   0  0  0  0  0  0  0  0  0  0  0  0
    9.6899    8.9379    5.5894 O   0  0  0  0  0  0  0  0  0  0  0  0
    9.8333    9.8442    3.4197 C   0  0  0  0  0  0  0  0  0  0  0  0
    8.4661   10.4801    3.7186 C   0  0  0  0  0  0  0  0  0  0  0  0
   10.7815   12.0535    3.2769 N   0  0  0  0  0  0  0  0  0  0  0  0
   11.4238   11.3110    2.3668 C   0  0  0  0  0  0  0  0  0  0  0  0
   12.3047   11.7242    1.6412 O   0  0  0  0  0  0  0  0  0  0  0  0
   10.9197    9.9089    2.3661 C   0  0  0  0  0  0  0  0  0  0  0  0
   11.3014    9.0032    1.6641 O   0  0  0  0  0  0  0  0  0  0  0  0
   11.0527   13.4717    3.5251 C   0  0  0  0  0  0  0  0  0  0  0  0
   10.0000   14.3245    2.8141 C   0  0  0  0  0  0  0  0  0  0  0  0
    8.9601   16.5104    2.7619 C   0  0  0  0  0  0  0  0  0  0  0  0
    9.6510   17.7381    2.1650 C   0  0  0  0  0  0  0  0  0  0  0  0
    9.3674   18.8833    2.9713 O   0  0  0  0  0  0  0  0  0  0  0  0
    7.5166   10.2211    2.5775 C   0  0  0  0  0  0  0  0  0  0  0  0
    6.5848    9.2040    2.6722 C   0  0  0  0  0  0  0  0  0  0  0  0
    5.7095    8.9683    1.6299 C   0  0  0  0  0  0  0  0  0  0  0  0
    5.7733    9.7459    0.4827 C   0  0  0  0  0  0  0  0  0  0  0  0
    6.7127   10.7623    0.3879 C   0  0  0  0  0  0  0  0  0  0  0  0
    7.5822   10.9976    1.4353 C   0  0  0  0  0  0  0  0  0  0  0  0
    4.9166    9.5127   -0.5462 O   0  0  0  0  0  0  0  0  0  0  0  0
    9.9681   15.6649    3.4289 N   0  3  0  0  0  0  0  0  0  0  0  0
   12.1698    8.1854    4.5945 H   0  0  0  0  0  0  0  0  0  0  0  0
   11.2957    7.7467    3.1229 H   0  0  0  0  0  0  0  0  0  0  0  0
   10.9707    6.8031    4.6579 H   0  0  0  0  0  0  0  0  0  0  0  0
    9.8533    9.8712    5.8764 H   0  0  0  0  0  0  0  0  0  0  0  0
    7.6997   10.5016    4.5073 H   0  0  0  0  0  0  0  0  0  0  0  0
   11.0140   13.6687    4.6066 H   0  0  0  0  0  0  0  0  0  0  0  0
   12.0512   13.7278    3.1413 H   0  0  0  0  0  0  0  0  0  0  0  0
   10.2588   14.4153    1.7488 H   0  0  0  0  0  0  0  0  0  0  0  0
    9.0123   13.8509    2.9153 H   0  0  0  0  0  0  0  0  0  0  0  0
    8.2075   16.8330    3.4965 H   0  0  0  0  0  0  0  0  0  0  0  0
    8.4719   15.9362    1.9607 H   0  0  0  0  0  0  0  0  0  0  0  0
   10.7377   17.5700    2.1369 H   0  0  0  0  0  0  0  0  0  0  0  0
    9.2798   17.9086    1.1436 H   0  0  0  0  0  0  0  0  0  0  0  0
    8.4146   19.1322    2.8694 H   0  0  0  0  0  0  0  0  0  0  0  0
    6.5405    8.5820    3.5783 H   0  0  0  0  0  0  0  0  0  0  0  0
    4.9626    8.1647    1.7094 H   0  0  0  0  0  0  0  0  0  0  0  0
    6.7653   11.3803   -0.5206 H   0  0  0  0  0  0  0  0  0  0  0  0
    8.3273   11.8034    1.3607 H   0  0  0  0  0  0  0  0  0  0  0  0
    4.0273    9.4199   -0.1210 H   0  0  0  0  0  0  0  0  0  0  0  0
    9.7322   15.5769    4.4276 H   0  0  0  0  0  0  0  0  0  0  0  0
   10.8951   16.1049    3.3390 H   0  0  0  0  0  0  0  0  0  0  0  0
  1  2  1  0  0  0  0
  1 24  1  0  0  0  0
  1 25  1  0  0  0  0
  1 26  1  0  0  0  0
  2  4  2  0  0  0  0
  2  3  1  0  0  0  0
  3 27  1  0  0  0  0
  4  5  1  0  0  0  0
  4  9  1  0  0  0  0
  5  6  1  0  0  0  0
  5 16  1  0  0  0  0
  5 28  1  0  0  0  0
  6  7  1  0  0  0  0
  6 11  1  0  0  0  0
  7  8  2  0  0  0  0
  7  9  1  0  0  0  0
  9 10  2  0  0  0  0
 11 12  1  0  0  0  0
 11 29  1  0  0  0  0
 11 30  1  0  0  0  0
 12 23  1  0  0  0  0
 12 31  1  0  0  0  0
 12 32  1  0  0  0  0
 13 14  1  0  0  0  0
 13 23  1  0  0  0  0
 13 33  1  0  0  0  0
 13 34  1  0  0  0  0
 14 15  1  0  0  0  0
 14 35  1  0  0  0  0
 14 36  1  0  0  0  0
 15 37  1  0  0  0  0
 16 21  2  0  0  0  0
 16 17  1  0  0  0  0
 17 18  2  0  0  0  0
 17 38  1  0  0  0  0
 18 19  1  0  0  0  0
 18 39  1  0  0  0  0
 19 20  2  0  0  0  0
 19 22  1  0  0  0  0
 20 21  1  0  0  0  0
 20 40  1  0  0  0  0
 21 41  1  0  0  0  0
 22 42  1  0  0  0  0
 23 43  1  0  0  0  0
 23 44  1  0  0  0  0
M  END
> <Name>
ZINC04650528

> <reference>
BDB5200

> <quality>
0.817

> <status>
decoy

> <atoms in reference ligand area>
14

> <score>
-36.2862

$$$$
ZINC01818846
      BALL 1.4.0 (Jan  4 2012, 23:22:29)

 34 34  0999  0  0  0  0  0  0999 V2000
   15.4720    9.4113    3.6629 C   0  0  0  0  0  0  0  0  0  0  0  0
   14.2586    9.2645    2.7427 C   0  0  0  0  0  0  0  0  0  0  0  0
   13.4258   10.5473    2.7881 C   0  0  0  0  0  0  0  0  0  0  0  0
   12.5448   10.6176    1.5676 C   0  0  0  0  0  0  0  0  0  0  0  0
   12.2969    9.6100    0.9396 O   0  0  0  0  0  0  0  0  0  0  0  0
   12.0324   11.8003    1.1736 N   0  0  0  0  0  0  0  0  0  0  0  0
   10.9126   11.8332    0.3323 N   0  0  0  0  0  0  0  0  0  0  0  0
   10.9960   12.4394   -0.9021 C   0  0  0  0  0  0  0  0  0  0  0  0
    9.7621   12.8733   -1.5996 C   0  0  0  0  0  0  0  0  0  0  0  0
    8.4184   13.1298   -1.0325 C   0  0  0  0  0  0  0  0  0  0  0  0
    7.7236   13.4771   -2.0909 N   0  0  0  0  0  0  0  0  0  0  0  0
    8.4374   13.4562   -3.0657 O   0  0  0  0  0  0  0  0  0  0  0  0
    9.5853   13.1275   -2.8774 N   0  0  0  0  0  0  0  0  0  0  0  0
    7.9975   13.0237    0.2866 N   0  0  0  0  0  0  0  0  0  0  0  0
   14.9980    9.6611    5.0961 C   0  0  0  0  0  0  0  0  0  0  0  0
   15.5367   11.0075    5.5839 C   0  0  0  0  0  0  0  0  0  0  0  0
   15.5082   11.0425    7.0123 O   0  0  0  0  0  0  0  0  0  0  0  0
   12.1456   12.6630   -1.5177 N   0  0  0  0  0  0  0  0  0  0  0  0
   16.0706    8.4889    3.6308 H   0  0  0  0  0  0  0  0  0  0  0  0
   16.0872   10.2595    3.3280 H   0  0  0  0  0  0  0  0  0  0  0  0
   14.5994    9.0855    1.7122 H   0  0  0  0  0  0  0  0  0  0  0  0
   13.6432    8.4167    3.0780 H   0  0  0  0  0  0  0  0  0  0  0  0
   14.0953   11.4200    2.8070 H   0  0  0  0  0  0  0  0  0  0  0  0
   12.7994   10.5461    3.6923 H   0  0  0  0  0  0  0  0  0  0  0  0
   12.4641   12.6799    1.4909 H   0  0  0  0  0  0  0  0  0  0  0  0
   10.0270   11.4043    0.6366 H   0  0  0  0  0  0  0  0  0  0  0  0
    7.1367   13.5525    0.4870 H   0  0  0  0  0  0  0  0  0  0  0  0
    8.4795   12.4767    1.0141 H   0  0  0  0  0  0  0  0  0  0  0  0
   13.8984    9.6758    5.1214 H   0  0  0  0  0  0  0  0  0  0  0  0
   15.3692    8.8593    5.7512 H   0  0  0  0  0  0  0  0  0  0  0  0
   14.9114   11.8200    5.1854 H   0  0  0  0  0  0  0  0  0  0  0  0
   16.5719   11.1365    5.2350 H   0  0  0  0  0  0  0  0  0  0  0  0
   14.6388   11.4048    7.3172 H   0  0  0  0  0  0  0  0  0  0  0  0
   13.0106   12.3665   -1.0438 H   0  0  0  0  0  0  0  0  0  0  0  0
  1  2  1  0  0  0  0
  1 15  1  0  0  0  0
  1 19  1  0  0  0  0
  1 20  1  0  0  0  0
  2  3  1  0  0  0  0
  2 21  1  0  0  0  0
  2 22  1  0  0  0  0
  3  4  1  0  0  0  0
  3 23  1  0  0  0  0
  3 24  1  0  0  0  0
  4  5  2  0  0  0  0
  4  6  1  0  0  0  0
  6  7  1  0  0  0  0
  6 25  1  0  0  0  0
  7  8  1  0  0  0  0
  7 26  1  0  0  0  0
  8  9  1  0  0  0  0
  8 18  2  0  0  0  0
  9 13  2  0  0  0  0
  9 10  1  0  0  0  0
 10 11  2  0  0  0  0
 10 14  1  0  0  0  0
 11 12  1  0  0  0  0
 12 13  1  0  0  0  0
 14 27  1  0  0  0  0
 14 28  1  0  0  0  0
 15 16  1  0  0  0  0
 15 29  1  0  0  0  0
 15 30  1  0  0  0  0
 16 17  1  0  0  0  0
 16 31  1  0  0  0  0
 16 32  1  0  0  0  0
 17 33  1  0  0  0  0
 18 34  1  0  0  0  0
M  END
> <Name>
ZINC01818846

> <reference>
BDB5021

> <quality>
0.695

> <status>
decoy

> <atoms in reference ligand area>
13

> <score>
-35.9866

$$$$
ZINC04189752
      BALL 1.4.0 (Jan  4 2012, 23:22:29)

 43 44  0999  0  0  0  0  0  0999 V2000
    6.2079    7.7458   -5.4880 C   0  0  0  0  0  0  0  0  0  0  0  0
    6.2153    7.8254   -4.0612 O   0  0  0  0  0  0  0  0  0  0  0  0
    5.1203    7.3493   -3.4106 C   0  0  0  0  0  0  0  0  0  0  0  0
    4.0624    6.8169   -4.1295 C   0  0  0  0  0  0  0  0  0  0  0  0
    2.9499    6.3328   -3.4665 C   0  0  0  0  0  0  0  0  0  0  0  0
    2.8892    6.3782   -2.0858 C   0  0  0  0  0  0  0  0  0  0  0  0
    3.9427    6.9024   -1.3612 C   0  0  0  0  0  0  0  0  0  0  0  0
    5.0597    7.3953   -2.0198 C   0  0  0  0  0  0  0  0  0  0  0  0
    6.1268    7.9327   -1.2874 N   0  0  0  0  0  0  0  0  0  0  0  0
    6.3341    7.5428   -0.0141 C   0  0  0  0  0  0  0  0  0  0  0  0
    5.5410    6.8046    0.5310 O   0  0  0  0  0  0  0  0  0  0  0  0
    7.5515    8.0242    0.7326 C   0  0  0  0  0  0  0  0  0  0  0  0
    7.1243    9.0067    1.8250 C   0  0  0  0  0  0  0  0  0  0  0  0
    6.1202    9.9789    1.2615 C   0  0  0  0  0  0  0  0  0  0  0  0
    5.7904   10.9472    1.9045 O   0  0  0  0  0  0  0  0  0  0  0  0
    7.9474   10.6137    3.4383 C   0  0  0  0  0  0  0  0  0  0  0  0
    8.8473   11.8226    3.4405 C   0  0  0  0  0  0  0  0  0  0  0  0
   10.2027   11.6648    3.6607 C   0  0  0  0  0  0  0  0  0  0  0  0
   11.0218   12.7832    3.6603 C   0  0  0  0  0  0  0  0  0  0  0  0
   10.4443   14.0242    3.4375 C   0  0  0  0  0  0  0  0  0  0  0  0
    9.0805   14.1047    3.2305 C   0  0  0  0  0  0  0  0  0  0  0  0
    8.3325   13.0184    3.2321 N   0  0  0  0  0  0  0  0  0  0  0  0
    5.5923    9.7690    0.0455 O   0  5  0  0  0  0  0  0  0  0  0  0
    8.3091    9.7440    2.3031 N   0  3  0  0  0  0  0  0  0  0  0  0
    5.3699    7.0858   -5.7565 H   0  0  0  0  0  0  0  0  0  0  0  0
    7.1414    7.2394   -5.7744 H   0  0  0  0  0  0  0  0  0  0  0  0
    6.1177    8.7312   -5.9686 H   0  0  0  0  0  0  0  0  0  0  0  0
    4.1075    6.7793   -5.2278 H   0  0  0  0  0  0  0  0  0  0  0  0
    2.1109    5.9105   -4.0390 H   0  0  0  0  0  0  0  0  0  0  0  0
    2.0001    5.9960   -1.5629 H   0  0  0  0  0  0  0  0  0  0  0  0
    3.8956    6.9289   -0.2625 H   0  0  0  0  0  0  0  0  0  0  0  0
    6.7527    8.6256   -1.7223 H   0  0  0  0  0  0  0  0  0  0  0  0
    8.0633    7.1657    1.1921 H   0  0  0  0  0  0  0  0  0  0  0  0
    8.2357    8.5283    0.0343 H   0  0  0  0  0  0  0  0  0  0  0  0
    6.6688    8.4560    2.6613 H   0  0  0  0  0  0  0  0  0  0  0  0
    8.0738   10.0595    4.3800 H   0  0  0  0  0  0  0  0  0  0  0  0
    6.9001   10.9340    3.3358 H   0  0  0  0  0  0  0  0  0  0  0  0
   10.6261   10.6644    3.8340 H   0  0  0  0  0  0  0  0  0  0  0  0
   12.1041   12.6886    3.8325 H   0  0  0  0  0  0  0  0  0  0  0  0
   11.0641   14.9329    3.4258 H   0  0  0  0  0  0  0  0  0  0  0  0
    8.6132   15.0862    3.0625 H   0  0  0  0  0  0  0  0  0  0  0  0
    9.0303    9.0731    2.6041 H   0  0  0  0  0  0  0  0  0  0  0  0
    8.6847   10.3217    1.5376 H   0  0  0  0  0  0  0  0  0  0  0  0
  1  2  1  0  0  0  0
  1 25  1  0  0  0  0
  1 26  1  0  0  0  0
  1 27  1  0  0  0  0
  2  3  1  0  0  0  0
  3  8  2  0  0  0  0
  3  4  1  0  0  0  0
  4  5  2  0  0  0  0
  4 28  1  0  0  0  0
  5  6  1  0  0  0  0
  5 29  1  0  0  0  0
  6  7  2  0  0  0  0
  6 30  1  0  0  0  0
  7  8  1  0  0  0  0
  7 31  1  0  0  0  0
  8  9  1  0  0  0  0
  9 10  1  0  0  0  0
  9 32  1  0  0  0  0
 10 11  2  0  0  0  0
 10 12  1  0  0  0  0
 12 13  1  0  0  0  0
 12 33  1  0  0  0  0
 12 34  1  0  0  0  0
 13 14  1  0  0  0  0
 13 24  1  0  0  0  0
 13 35  1  0  0  0  0
 14 15  2  0  0  0  0
 14 23  1  0  0  0  0
 16 17  1  0  0  0  0
 16 24  1  0  0  0  0
 16 36  1  0  0  0  0
 16 37  1  0  0  0  0
 17 22  2  0  0  0  0
 17 18  1  0  0  0  0
 18 19  2  0  0  0  0
 18 38  1  0  0  0  0
 19 20  1  0  0  0  0
 19 39  1  0  0  0  0
 20 21  2  0  0  0  0
 20 40  1  0  0  0  0
 21 22  1  0  0  0  0
 21 41  1  0  0  0  0
 24 42  1  0  0  0  0
 24 43  1  0  0  0  0
M  END
> <Name>
ZINC04189752

> <reference>
BDB5013

> <quality>
0.734

> <status>
decoy

> <atoms in reference ligand area>
12

> <score>
-35.9377

$$$$
ZINC09915296
      BALL 1.4.0 (Jan  4 2012, 23:22:29)

 40 41  0999  0  0  0  0  0  0999 V2000
   16.8729   11.1612    7.6290 C   0  0  0  0  0  0  0  0  0  0  0  0
   15.5968   11.9786    5.7400 C   0  0  0  0  0  0  0  0  0  0  0  0
   14.3438   11.7315    4.8965 C   0  0  0  0  0  0  0  0  0  0  0  0
   14.4379   10.4106    4.2594 N   0  0  0  0  0  0  0  0  0  0  0  0
   14.5629    9.3498    5.2688 C   0  0  0  0  0  0  0  0  0  0  0  0
   15.8159    9.5969    6.1122 C   0  0  0  0  0  0  0  0  0  0  0  0
   13.3675   10.1843    3.4414 N   0  0  0  0  0  0  0  0  0  0  0  0
   12.8841   11.1806    2.6731 C   0  0  0  0  0  0  0  0  0  0  0  0
   13.5785   12.1433    2.4200 O   0  0  0  0  0  0  0  0  0  0  0  0
   11.4940   11.0999    2.1332 C   0  0  0  0  0  0  0  0  0  0  0  0
   10.7387   10.2358    2.5284 O   0  0  0  0  0  0  0  0  0  0  0  0
   11.0800   11.9832    1.2033 N   0  0  0  0  0  0  0  0  0  0  0  0
    9.8153   11.8462    0.6232 C   0  0  0  0  0  0  0  0  0  0  0  0
    9.6205   12.1871   -0.7095 C   0  0  0  0  0  0  0  0  0  0  0  0
    8.3719   12.0456   -1.2818 C   0  0  0  0  0  0  0  0  0  0  0  0
    7.3115   11.5751   -0.5252 C   0  0  0  0  0  0  0  0  0  0  0  0
    7.5019   11.2401    0.8048 C   0  0  0  0  0  0  0  0  0  0  0  0
    8.7503   11.3746    1.3799 C   0  0  0  0  0  0  0  0  0  0  0  0
    6.3668   10.7370    1.6106 N   0  0  0  0  0  0  0  0  0  0  0  0
    5.2321   11.1003    1.3578 O   0  0  0  0  0  0  0  0  0  0  0  0
    6.5674    9.9595    2.5266 O   0  0  0  0  0  0  0  0  0  0  0  0
    6.0895   11.4423   -1.0859 F   0  0  0  0  0  0  0  0  0  0  0  0
   15.6983   10.9181    6.7645 N   0  3  0  0  0  0  0  0  0  0  0  0
   17.1730   12.2162    7.5464 H   0  0  0  0  0  0  0  0  0  0  0  0
   17.7042   10.5196    7.3016 H   0  0  0  0  0  0  0  0  0  0  0  0
   16.6189   10.9308    8.6743 H   0  0  0  0  0  0  0  0  0  0  0  0
   16.4868   11.9524    5.0939 H   0  0  0  0  0  0  0  0  0  0  0  0
   15.5231   12.9596    6.2322 H   0  0  0  0  0  0  0  0  0  0  0  0
   14.2634   12.5073    4.1209 H   0  0  0  0  0  0  0  0  0  0  0  0
   13.4542   11.7642    5.5426 H   0  0  0  0  0  0  0  0  0  0  0  0
   14.6448    8.3736    4.7687 H   0  0  0  0  0  0  0  0  0  0  0  0
   13.6761    9.3560    5.9196 H   0  0  0  0  0  0  0  0  0  0  0  0
   16.7052    9.5842    5.4649 H   0  0  0  0  0  0  0  0  0  0  0  0
   15.9033    8.8140    6.8800 H   0  0  0  0  0  0  0  0  0  0  0  0
   12.9299    9.2524    3.4118 H   0  0  0  0  0  0  0  0  0  0  0  0
   11.6953   12.7591    0.9199 H   0  0  0  0  0  0  0  0  0  0  0  0
   10.4603   12.5695   -1.3083 H   0  0  0  0  0  0  0  0  0  0  0  0
    8.2194   12.3068   -2.3394 H   0  0  0  0  0  0  0  0  0  0  0  0
    8.9011   11.1084    2.4365 H   0  0  0  0  0  0  0  0  0  0  0  0
   14.8477   10.9308    7.3451 H   0  0  0  0  0  0  0  0  0  0  0  0
  1 23  1  0  0  0  0
  1 24  1  0  0  0  0
  1 25  1  0  0  0  0
  1 26  1  0  0  0  0
  2  3  1  0  0  0  0
  2 23  1  0  0  0  0
  2 27  1  0  0  0  0
  2 28  1  0  0  0  0
  3  4  1  0  0  0  0
  3 29  1  0  0  0  0
  3 30  1  0  0  0  0
  4  5  1  0  0  0  0
  4  7  1  0  0  0  0
  5  6  1  0  0  0  0
  5 31  1  0  0  0  0
  5 32  1  0  0  0  0
  6 23  1  0  0  0  0
  6 33  1  0  0  0  0
  6 34  1  0  0  0  0
  7  8  1  0  0  0  0
  7 35  1  0  0  0  0
  8  9  2  0  0  0  0
  8 10  1  0  0  0  0
 10 11  2  0  0  0  0
 10 12  1  0  0  0  0
 12 13  1  0  0  0  0
 12 36  1  0  0  0  0
 13 18  2  0  0  0  0
 13 14  1  0  0  0  0
 14 15  2  0  0  0  0
 14 37  1  0  0  0  0
 15 16  1  0  0  0  0
 15 38  1  0  0  0  0
 16 17  2  0  0  0  0
 16 22  1  0  0  0  0
 17 18  1  0  0  0  0
 17 19  1  0  0  0  0
 18 39  1  0  0  0  0
 19 20  2  0  0  0  0
 19 21  2  0  0  0  0
 23 40  1  0  0  0  0
M  END
> <Name>
ZINC09915296

> <reference>
BDB4977

> <quality>
0.669

> <status>
decoy

> <atoms in reference ligand area>
15

> <score>
-35.7584

$$$$
ZINC05758200
      BALL 1.4.0 (Jan  4 2012, 23:22:29)

 20 20  0999  0  0  0  0  0  0999 V2000
    7.9059   12.5939   -0.9176 C   0  0  0  0  0  0  0  0  0  0  0  0
    9.2628   12.3426   -0.8596 C   0  0  0  0  0  0  0  0  0  0  0  0
    9.7579   11.6040    0.2171 C   0  0  0  0  0  0  0  0  0  0  0  0
    8.9125   11.1786    1.1506 N   0  0  0  0  0  0  0  0  0  0  0  0
    7.6178   11.4410    1.0580 C   0  0  0  0  0  0  0  0  0  0  0  0
    7.1199   12.1349    0.0450 N   0  0  0  0  0  0  0  0  0  0  0  0
    6.7634   10.9784    2.0436 N   0  0  0  0  0  0  0  0  0  0  0  0
    5.4110   11.0576    1.8675 N   0  0  0  0  0  0  0  0  0  0  0  0
   11.1110   11.3229    0.3136 N   0  0  0  0  0  0  0  0  0  0  0  0
   11.5244   10.0938    0.7430 N   0  0  0  0  0  0  0  0  0  0  0  0
   10.1707   12.8395   -1.9178 N   0  0  0  0  0  0  0  0  0  0  0  0
   11.3536   12.5501   -1.8907 O   0  0  0  0  0  0  0  0  0  0  0  0
    9.7341   13.5338   -2.8182 O   0  0  0  0  0  0  0  0  0  0  0  0
    7.4824   13.1691   -1.7541 H   0  0  0  0  0  0  0  0  0  0  0  0
    7.1471   10.5745    2.9099 H   0  0  0  0  0  0  0  0  0  0  0  0
    5.2843   11.6914    1.0655 H   0  0  0  0  0  0  0  0  0  0  0  0
    5.0632   11.5518    2.7015 H   0  0  0  0  0  0  0  0  0  0  0  0
   11.8054   12.0407    0.0615 H   0  0  0  0  0  0  0  0  0  0  0  0
   12.4729    9.9830    0.3574 H   0  0  0  0  0  0  0  0  0  0  0  0
   10.9176    9.4228    0.2507 H   0  0  0  0  0  0  0  0  0  0  0  0
  1  6  2  0  0  0  0
  1  2  1  0  0  0  0
  1 14  1  0  0  0  0
  2  3  2  0  0  0  0
  2 11  1  0  0  0  0
  3  4  1  0  0  0  0
  3  9  1  0  0  0  0
  4  5  2  0  0  0  0
  5  6  1  0  0  0  0
  5  7  1  0  0  0  0
  7  8  1  0  0  0  0
  7 15  1  0  0  0  0
  8 16  1  0  0  0  0
  8 17  1  0  0  0  0
  9 10  1  0  0  0  0
  9 18  1  0  0  0  0
 10 19  1  0  0  0  0
 10 20  1  0  0  0  0
 11 12  2  0  0  0  0
 11 13  2  0  0  0  0
M  END
> <Name>
ZINC05758200

> <reference>
BDB5008

> <quality>
0.697

> <status>
decoy

> <atoms in reference ligand area>
17

> <score>
-35.6284

$$$$
ZINC24628488
      BALL 1.4.0 (Jan  4 2012, 23:22:29)

 36 37  0999  0  0  0  0  0  0999 V2000
   10.7838   12.7398   -2.5139 C   0  0  0  0  0  0  0  0  0  0  0  0
   11.2173   12.1991   -1.3163 C   0  0  0  0  0  0  0  0  0  0  0  0
   10.2559   11.7803   -0.3895 C   0  0  0  0  0  0  0  0  0  0  0  0
    8.8979   11.9163   -0.7158 C   0  0  0  0  0  0  0  0  0  0  0  0
    8.5377   12.4354   -1.8772 N   0  0  0  0  0  0  0  0  0  0  0  0
    9.4271   12.8410   -2.7630 C   0  0  0  0  0  0  0  0  0  0  0  0
    7.9506   11.5130    0.1639 O   0  0  0  0  0  0  0  0  0  0  0  0
    7.5063   10.1586    0.0633 C   0  0  0  0  0  0  0  0  0  0  0  0
    5.9927   10.1010    0.2791 C   0  0  0  0  0  0  0  0  0  0  0  0
    5.5578    8.7749    0.1807 F   0  0  0  0  0  0  0  0  0  0  0  0
    5.6834   10.6001    1.5489 F   0  0  0  0  0  0  0  0  0  0  0  0
    5.3530   10.8751   -0.6949 F   0  0  0  0  0  0  0  0  0  0  0  0
   10.6627   11.2017    0.9052 C   0  0  0  0  0  0  0  0  0  0  0  0
   10.3177   11.7322    1.9434 O   0  0  0  0  0  0  0  0  0  0  0  0
   11.4167   10.0850    0.9371 N   0  0  0  0  0  0  0  0  0  0  0  0
   12.1473    9.7658    2.0891 N   0  0  0  0  0  0  0  0  0  0  0  0
   12.9378   10.6935    2.6643 C   0  0  0  0  0  0  0  0  0  0  0  0
   13.0169   11.8085    2.1831 O   0  0  0  0  0  0  0  0  0  0  0  0
   13.7027   10.3594    3.8704 C   0  0  0  0  0  0  0  0  0  0  0  0
   14.3964   11.2454    4.6670 C   0  0  0  0  0  0  0  0  0  0  0  0
   14.9727   10.5027    5.7022 C   0  0  0  0  0  0  0  0  0  0  0  0
   14.6355    9.2037    5.5193 C   0  0  0  0  0  0  0  0  0  0  0  0
   13.8639    9.1031    4.4095 N   0  0  0  0  0  0  0  0  0  0  0  0
   15.8077   11.0400    6.8000 N   0  0  0  0  0  0  0  0  0  0  0  0
   15.6786   10.6073    7.9312 O   0  0  0  0  0  0  0  0  0  0  0  0
   16.6240   11.9148    6.5721 O   0  0  0  0  0  0  0  0  0  0  0  0
   11.5122   13.0863   -3.2619 H   0  0  0  0  0  0  0  0  0  0  0  0
   12.2910   12.1008   -1.0980 H   0  0  0  0  0  0  0  0  0  0  0  0
    9.0834   13.2674   -3.7170 H   0  0  0  0  0  0  0  0  0  0  0  0
    8.0086    9.5489    0.8289 H   0  0  0  0  0  0  0  0  0  0  0  0
    7.7490    9.7661   -0.9352 H   0  0  0  0  0  0  0  0  0  0  0  0
   11.4557    9.4663    0.1145 H   0  0  0  0  0  0  0  0  0  0  0  0
   12.0803    8.8222    2.4964 H   0  0  0  0  0  0  0  0  0  0  0  0
   14.4806   12.3318    4.5166 H   0  0  0  0  0  0  0  0  0  0  0  0
   14.9385    8.3670    6.1659 H   0  0  0  0  0  0  0  0  0  0  0  0
   13.4646    8.2318    4.0324 H   0  0  0  0  0  0  0  0  0  0  0  0
  1  6  2  0  0  0  0
  1  2  1  0  0  0  0
  1 27  1  0  0  0  0
  2  3  2  0  0  0  0
  2 28  1  0  0  0  0
  3  4  1  0  0  0  0
  3 13  1  0  0  0  0
  4  5  2  0  0  0  0
  4  7  1  0  0  0  0
  5  6  1  0  0  0  0
  6 29  1  0  0  0  0
  7  8  1  0  0  0  0
  8  9  1  0  0  0  0
  8 30  1  0  0  0  0
  8 31  1  0  0  0  0
  9 10  1  0  0  0  0
  9 11  1  0  0  0  0
  9 12  1  0  0  0  0
 13 14  2  0  0  0  0
 13 15  1  0  0  0  0
 15 16  1  0  0  0  0
 15 32  1  0  0  0  0
 16 17  1  0  0  0  0
 16 33  1  0  0  0  0
 17 18  2  0  0  0  0
 17 19  1  0  0  0  0
 19 23  1  0  0  0  0
 19 20  2  0  0  0  0
 20 21  1  0  0  0  0
 20 34  1  0  0  0  0
 21 22  2  0  0  0  0
 21 24  1  0  0  0  0
 22 23  1  0  0  0  0
 22 35  1  0  0  0  0
 23 36  1  0  0  0  0
 24 25  2  0  0  0  0
 24 26  2  0  0  0  0
M  END
> <Name>
ZINC24628488

> <reference>
BDB4952

> <quality>
0.715

> <status>
decoy

> <atoms in reference ligand area>
13

> <score>
-35.6043

$$$$
ZINC15690560
      BALL 1.4.0 (Jan  4 2012, 23:22:29)

 30 31  0999  0  0  0  0  0  0999 V2000
    4.4549    7.9457   -0.4340 C   0  0  0  0  0  0  0  0  0  0  0  0
    4.0835    7.1360   -1.6996 C   0  0  0  0  0  0  0  0  0  0  0  0
    5.7150    6.8829   -2.5099 S   0  0  0  0  0  0  0  0  0  0  0  0
    5.7090    7.5319   -3.7739 O   0  0  0  0  0  0  0  0  0  0  0  0
    6.0626    5.5072   -2.4318 O   0  0  0  0  0  0  0  0  0  0  0  0
    6.7829    7.8376   -1.3509 C   0  0  0  0  0  0  0  0  0  0  0  0
    5.7262    8.7708   -0.6936 C   0  0  0  0  0  0  0  0  0  0  0  0
    6.2410    9.2866    0.5622 O   0  0  0  0  0  0  0  0  0  0  0  0
    6.1641   10.6130    0.7536 C   0  0  0  0  0  0  0  0  0  0  0  0
    5.5351   11.0534    1.6865 O   0  0  0  0  0  0  0  0  0  0  0  0
    6.8622   11.5529   -0.1953 C   0  0  0  0  0  0  0  0  0  0  0  0
    8.6569   11.4176    0.0308 S   0  0  0  0  0  0  0  0  0  0  0  0
    9.3267   12.3296   -1.3198 C   0  0  0  0  0  0  0  0  0  0  0  0
    8.9773   12.1924   -2.6340 N   0  0  0  0  0  0  0  0  0  0  0  0
    9.7239   13.0737   -3.3635 C   0  0  0  0  0  0  0  0  0  0  0  0
   10.4950   13.7344   -2.5354 N   0  0  0  0  0  0  0  0  0  0  0  0
   10.2436   13.2631   -1.2402 N   0  0  0  0  0  0  0  0  0  0  0  0
    9.6706   13.2439   -4.7410 N   0  0  0  0  0  0  0  0  0  0  0  0
    3.6256    8.6212   -0.1769 H   0  0  0  0  0  0  0  0  0  0  0  0
    4.6323    7.2541    0.4028 H   0  0  0  0  0  0  0  0  0  0  0  0
    3.6492    6.1641   -1.4225 H   0  0  0  0  0  0  0  0  0  0  0  0
    3.4273    7.7248   -2.3573 H   0  0  0  0  0  0  0  0  0  0  0  0
    7.5230    8.4231   -1.9161 H   0  0  0  0  0  0  0  0  0  0  0  0
    7.2254    7.1618   -0.6043 H   0  0  0  0  0  0  0  0  0  0  0  0
    5.5014    9.6189   -1.3571 H   0  0  0  0  0  0  0  0  0  0  0  0
    6.6027   11.2882   -1.2310 H   0  0  0  0  0  0  0  0  0  0  0  0
    6.5444   12.5858    0.0099 H   0  0  0  0  0  0  0  0  0  0  0  0
    8.2746   11.5392   -3.0087 H   0  0  0  0  0  0  0  0  0  0  0  0
   10.0413   14.1368   -5.0963 H   0  0  0  0  0  0  0  0  0  0  0  0
    9.2879   12.5321   -5.3796 H   0  0  0  0  0  0  0  0  0  0  0  0
  1  7  1  0  0  0  0
  1  2  1  0  0  0  0
  1 19  1  0  0  0  0
  1 20  1  0  0  0  0
  2  3  1  0  0  0  0
  2 21  1  0  0  0  0
  2 22  1  0  0  0  0
  3  4  2  0  0  0  0
  3  5  2  0  0  0  0
  3  6  1  0  0  0  0
  6  7  1  0  0  0  0
  6 23  1  0  0  0  0
  6 24  1  0  0  0  0
  7  8  1  0  0  0  0
  7 25  1  0  0  0  0
  8  9  1  0  0  0  0
  9 10  2  0  0  0  0
  9 11  1  0  0  0  0
 11 12  1  0  0  0  0
 11 26  1  0  0  0  0
 11 27  1  0  0  0  0
 12 13  1  0  0  0  0
 13 17  2  0  0  0  0
 13 14  1  0  0  0  0
 14 15  1  0  0  0  0
 14 28  1  0  0  0  0
 15 16  2  0  0  0  0
 15 18  1  0  0  0  0
 16 17  1  0  0  0  0
 18 29  1  0  0  0  0
 18 30  1  0  0  0  0
M  END
> <Name>
ZINC15690560

> <reference>
BDB4937

> <quality>
0.737

> <status>
decoy

> <atoms in reference ligand area>
13

> <score>
-35.5022

$$$$
ZINC05114539
      BALL 1.4.0 (Jan  4 2012, 23:22:29)

 40 42  0999  0  0  0  0  0  0999 V2000
    9.2652   12.5861   -4.0822 C   0  0  0  0  0  0  0  0  0  0  0  0
    8.9634   13.7426   -3.1270 C   0  0  0  0  0  0  0  0  0  0  0  0
    8.0512   13.2584   -2.0136 C   0  0  0  0  0  0  0  0  0  0  0  0
    6.8574   13.4756   -2.0351 O   0  0  0  0  0  0  0  0  0  0  0  0
    8.6725   12.5189   -0.9121 C   0  0  0  0  0  0  0  0  0  0  0  0
   10.0606   12.5476   -0.6828 C   0  0  0  0  0  0  0  0  0  0  0  0
   10.3062   11.7501    0.4295 C   0  0  0  0  0  0  0  0  0  0  0  0
    9.1073   11.2532    0.8452 C   0  0  0  0  0  0  0  0  0  0  0  0
    8.1163   11.7223    0.0420 N   0  0  0  0  0  0  0  0  0  0  0  0
    6.8055   11.2087    0.4801 C   0  0  0  0  0  0  0  0  0  0  0  0
    7.1168    9.9940    1.3838 C   0  0  0  0  0  0  0  0  0  0  0  0
    8.5242   10.3483    1.9120 C   0  0  0  0  0  0  0  0  0  0  0  0
    8.4332   11.0401    3.1590 O   0  0  0  0  0  0  0  0  0  0  0  0
   11.6503   11.4800    1.0554 C   0  0  0  0  0  0  0  0  0  0  0  0
   11.6431   11.9376    2.4334 O   0  0  0  0  0  0  0  0  0  0  0  0
   12.3888   13.0209    2.7216 C   0  0  0  0  0  0  0  0  0  0  0  0
   13.1663   13.4601    1.8974 O   0  0  0  0  0  0  0  0  0  0  0  0
   12.2770   13.6149    3.9263 N   0  0  0  0  0  0  0  0  0  0  0  0
   10.9643   13.3295   -1.5575 C   0  0  0  0  0  0  0  0  0  0  0  0
   12.1744   13.2372   -1.5060 O   0  0  0  0  0  0  0  0  0  0  0  0
   10.2565   14.2467   -2.5144 C   0  0  0  0  0  0  0  0  0  0  0  0
   10.7247   15.4036   -2.8007 N   0  0  0  0  0  0  0  0  0  0  0  0
    6.1504    9.9285    2.4943 N   0  3  0  0  0  0  0  0  0  0  0  0
   10.3518   12.5118   -4.2364 H   0  0  0  0  0  0  0  0  0  0  0  0
    8.7706   12.7692   -5.0476 H   0  0  0  0  0  0  0  0  0  0  0  0
    8.8911   11.6456   -3.6515 H   0  0  0  0  0  0  0  0  0  0  0  0
    8.4734   14.5529   -3.6868 H   0  0  0  0  0  0  0  0  0  0  0  0
    6.2160   10.8859   -0.3906 H   0  0  0  0  0  0  0  0  0  0  0  0
    6.2731   11.9785    1.0579 H   0  0  0  0  0  0  0  0  0  0  0  0
    7.0626    9.0217    0.8721 H   0  0  0  0  0  0  0  0  0  0  0  0
    9.1422    9.4565    2.0933 H   0  0  0  0  0  0  0  0  0  0  0  0
    7.4804   11.2137    3.3640 H   0  0  0  0  0  0  0  0  0  0  0  0
   11.8566   10.3998    1.0293 H   0  0  0  0  0  0  0  0  0  0  0  0
   12.4310   12.0162    0.4958 H   0  0  0  0  0  0  0  0  0  0  0  0
   12.0250   13.0566    4.7544 H   0  0  0  0  0  0  0  0  0  0  0  0
   12.4435   14.6271    4.0187 H   0  0  0  0  0  0  0  0  0  0  0  0
   10.2070   15.9996   -3.4621 H   0  0  0  0  0  0  0  0  0  0  0  0
    6.3669    9.1131    3.0852 H   0  0  0  0  0  0  0  0  0  0  0  0
    5.1994    9.8283    2.1115 H   0  0  0  0  0  0  0  0  0  0  0  0
    6.2075   10.7888    3.0577 H   0  0  0  0  0  0  0  0  0  0  0  0
  1  2  1  0  0  0  0
  1 24  1  0  0  0  0
  1 25  1  0  0  0  0
  1 26  1  0  0  0  0
  2 21  1  0  0  0  0
  2  3  1  0  0  0  0
  2 27  1  0  0  0  0
  3  4  2  0  0  0  0
  3  5  1  0  0  0  0
  5  9  1  0  0  0  0
  5  6  2  0  0  0  0
  6  7  1  0  0  0  0
  6 19  1  0  0  0  0
  7  8  2  0  0  0  0
  7 14  1  0  0  0  0
  8 12  1  0  0  0  0
  8  9  1  0  0  0  0
  9 10  1  0  0  0  0
 10 11  1  0  0  0  0
 10 28  1  0  0  0  0
 10 29  1  0  0  0  0
 11 12  1  0  0  0  0
 11 23  1  0  0  0  0
 11 30  1  0  0  0  0
 12 13  1  0  0  0  0
 12 31  1  0  0  0  0
 13 32  1  0  0  0  0
 14 15  1  0  0  0  0
 14 33  1  0  0  0  0
 14 34  1  0  0  0  0
 15 16  1  0  0  0  0
 16 17  2  0  0  0  0
 16 18  1  0  0  0  0
 18 35  1  0  0  0  0
 18 36  1  0  0  0  0
 19 20  2  0  0  0  0
 19 21  1  0  0  0  0
 21 22  2  0  0  0  0
 22 37  1  0  0  0  0
 23 38  1  0  0  0  0
 23 39  1  0  0  0  0
 23 40  1  0  0  0  0
M  END
> <Name>
ZINC05114539

> <reference>
BDB4977

> <quality>
0.711

> <status>
decoy

> <atoms in reference ligand area>
25

> <score>
-35.3562

$$$$
ZINC03365459
      BALL 1.4.0 (Jan  4 2012, 23:22:29)

 45 46  0999  0  0  0  0  0  0999 V2000
   13.4146    7.2720   -3.1907 C   0  0  0  0  0  0  0  0  0  0  0  0
   12.6764    7.0073   -1.9961 O   0  0  0  0  0  0  0  0  0  0  0  0
   13.4006    6.2560   -1.0198 C   0  0  0  0  0  0  0  0  0  0  0  0
   13.3057    6.9457    0.3167 C   0  0  0  0  0  0  0  0  0  0  0  0
   12.3997    6.6746    1.0761 O   0  0  0  0  0  0  0  0  0  0  0  0
   14.2277    7.8637    0.6683 N   0  0  0  0  0  0  0  0  0  0  0  0
   14.4060    8.1964    2.0175 N   0  0  0  0  0  0  0  0  0  0  0  0
   13.3803    8.7076    2.7267 C   0  0  0  0  0  0  0  0  0  0  0  0
   12.7373    7.9907    3.4684 O   0  0  0  0  0  0  0  0  0  0  0  0
   13.0372   10.1402    2.6026 C   0  0  0  0  0  0  0  0  0  0  0  0
   13.8917   11.1135    3.1232 C   0  0  0  0  0  0  0  0  0  0  0  0
   13.5659   12.4484    3.0038 C   0  0  0  0  0  0  0  0  0  0  0  0
   12.3973   12.8240    2.3648 C   0  0  0  0  0  0  0  0  0  0  0  0
   11.5434   11.8644    1.8512 C   0  0  0  0  0  0  0  0  0  0  0  0
   11.8575   10.5256    1.9640 C   0  0  0  0  0  0  0  0  0  0  0  0
   10.0549   12.3532    1.0449 S   0  0  0  0  0  0  0  0  0  0  0  0
    9.2517   12.9922    2.0276 O   0  0  0  0  0  0  0  0  0  0  0  0
    9.6034   11.2256    0.3075 O   0  0  0  0  0  0  0  0  0  0  0  0
   10.4578   13.5142   -0.0651 N   0  5  0  0  0  0  0  0  0  0  0  0
    9.8395   13.5265   -1.3208 C   0  0  0  0  0  0  0  0  0  0  0  0
    8.4797   13.7810   -1.4239 C   0  0  0  0  0  0  0  0  0  0  0  0
    7.8704   13.7874   -2.6647 C   0  0  0  0  0  0  0  0  0  0  0  0
    8.6139   13.5453   -3.8048 C   0  0  0  0  0  0  0  0  0  0  0  0
    9.9708   13.2960   -3.7101 C   0  0  0  0  0  0  0  0  0  0  0  0
   10.5890   13.2884   -2.4707 C   0  0  0  0  0  0  0  0  0  0  0  0
   11.9235   13.0433   -2.3761 O   0  0  0  0  0  0  0  0  0  0  0  0
   12.6609   13.8228   -1.4325 C   0  0  0  0  0  0  0  0  0  0  0  0
   12.9861    6.6493   -3.9899 H   0  0  0  0  0  0  0  0  0  0  0  0
   14.4522    6.9504   -3.0174 H   0  0  0  0  0  0  0  0  0  0  0  0
   13.3758    8.3372   -3.4622 H   0  0  0  0  0  0  0  0  0  0  0  0
   14.4563    6.1838   -1.3201 H   0  0  0  0  0  0  0  0  0  0  0  0
   12.9716    5.2461   -0.9418 H   0  0  0  0  0  0  0  0  0  0  0  0
   14.8013    8.3207   -0.0550 H   0  0  0  0  0  0  0  0  0  0  0  0
   15.3210    8.0504    2.4674 H   0  0  0  0  0  0  0  0  0  0  0  0
   14.8231   10.8165    3.6277 H   0  0  0  0  0  0  0  0  0  0  0  0
   14.2365   13.2161    3.4173 H   0  0  0  0  0  0  0  0  0  0  0  0
   12.1463   13.8904    2.2647 H   0  0  0  0  0  0  0  0  0  0  0  0
   11.1798    9.7637    1.5516 H   0  0  0  0  0  0  0  0  0  0  0  0
    7.8866   13.9777   -0.5188 H   0  0  0  0  0  0  0  0  0  0  0  0
    6.7914   13.9855   -2.7451 H   0  0  0  0  0  0  0  0  0  0  0  0
    8.1248   13.5511   -4.7901 H   0  0  0  0  0  0  0  0  0  0  0  0
   10.5593   13.1037   -4.6193 H   0  0  0  0  0  0  0  0  0  0  0  0
   13.3325   14.4659   -2.0202 H   0  0  0  0  0  0  0  0  0  0  0  0
   13.2829   13.1147   -0.8653 H   0  0  0  0  0  0  0  0  0  0  0  0
   12.0121   14.4137   -0.7692 H   0  0  0  0  0  0  0  0  0  0  0  0
  1  2  1  0  0  0  0
  1 28  1  0  0  0  0
  1 29  1  0  0  0  0
  1 30  1  0  0  0  0
  2  3  1  0  0  0  0
  3  4  1  0  0  0  0
  3 31  1  0  0  0  0
  3 32  1  0  0  0  0
  4  5  2  0  0  0  0
  4  6  1  0  0  0  0
  6  7  1  0  0  0  0
  6 33  1  0  0  0  0
  7  8  1  0  0  0  0
  7 34  1  0  0  0  0
  8  9  2  0  0  0  0
  8 10  1  0  0  0  0
 10 15  2  0  0  0  0
 10 11  1  0  0  0  0
 11 12  2  0  0  0  0
 11 35  1  0  0  0  0
 12 13  1  0  0  0  0
 12 36  1  0  0  0  0
 13 14  2  0  0  0  0
 13 37  1  0  0  0  0
 14 15  1  0  0  0  0
 14 16  1  0  0  0  0
 15 38  1  0  0  0  0
 16 17  2  0  0  0  0
 16 18  2  0  0  0  0
 16 19  1  0  0  0  0
 19 20  1  0  0  0  0
 20 25  2  0  0  0  0
 20 21  1  0  0  0  0
 21 22  2  0  0  0  0
 21 39  1  0  0  0  0
 22 23  1  0  0  0  0
 22 40  1  0  0  0  0
 23 24  2  0  0  0  0
 23 41  1  0  0  0  0
 24 25  1  0  0  0  0
 24 42  1  0  0  0  0
 25 26  1  0  0  0  0
 26 27  1  0  0  0  0
 27 43  1  0  0  0  0
 27 44  1  0  0  0  0
 27 45  1  0  0  0  0
M  END
> <Name>
ZINC03365459

> <reference>
BDB4945

> <quality>
0.723

> <status>
decoy

> <atoms in reference ligand area>
18

> <score>
-35.2626

$$$$
ZINC04748240
      BALL 1.4.0 (Jan  4 2012, 23:22:29)

 32 31  0999  0  0  0  0  0  0999 V2000
    9.4251   13.4489    3.5393 C   0  0  0  0  0  0  0  0  0  0  0  0
   10.7932   13.9243    3.4346 O   0  0  0  0  0  0  0  0  0  0  0  0
   11.7575   12.9937    3.3591 C   0  0  0  0  0  0  0  0  0  0  0  0
   12.9150   13.3289    3.2705 O   0  0  0  0  0  0  0  0  0  0  0  0
   11.3965   11.5308    3.3850 C   0  0  0  0  0  0  0  0  0  0  0  0
   11.4078   10.9775    1.9586 C   0  0  0  0  0  0  0  0  0  0  0  0
   10.0383   11.1323    1.3489 C   0  0  0  0  0  0  0  0  0  0  0  0
    9.0042   10.7313    1.9880 N   0  0  0  0  0  0  0  0  0  0  0  0
    7.7245   10.9691    1.4695 N   0  0  0  0  0  0  0  0  0  0  0  0
    6.6411   10.4609    2.0895 C   0  0  0  0  0  0  0  0  0  0  0  0
    6.7623    9.5239    2.8548 O   0  0  0  0  0  0  0  0  0  0  0  0
    5.4233   10.9914    1.8612 N   0  0  0  0  0  0  0  0  0  0  0  0
    9.8864   11.7590   -0.0131 C   0  0  0  0  0  0  0  0  0  0  0  0
   10.9271   12.8345   -0.1901 C   0  0  0  0  0  0  0  0  0  0  0  0
   10.8995   13.8222    0.5054 O   0  0  0  0  0  0  0  0  0  0  0  0
   11.8847   12.6952   -1.1204 O   0  0  0  0  0  0  0  0  0  0  0  0
   11.9487   13.7095   -2.1575 C   0  0  0  0  0  0  0  0  0  0  0  0
    9.0463   13.8056    4.5085 H   0  0  0  0  0  0  0  0  0  0  0  0
    9.4807   12.3511    3.5811 H   0  0  0  0  0  0  0  0  0  0  0  0
    8.7930   13.7911    2.7067 H   0  0  0  0  0  0  0  0  0  0  0  0
   12.1289   10.9829    3.9960 H   0  0  0  0  0  0  0  0  0  0  0  0
   10.3926   11.4073    3.8175 H   0  0  0  0  0  0  0  0  0  0  0  0
   11.6808    9.9121    1.9794 H   0  0  0  0  0  0  0  0  0  0  0  0
   12.1418   11.5324    1.3557 H   0  0  0  0  0  0  0  0  0  0  0  0
    7.6117   11.5322    0.6145 H   0  0  0  0  0  0  0  0  0  0  0  0
    4.5836   10.3981    1.9215 H   0  0  0  0  0  0  0  0  0  0  0  0
    5.3325   11.9902    1.6265 H   0  0  0  0  0  0  0  0  0  0  0  0
   10.0196   10.9896   -0.7879 H   0  0  0  0  0  0  0  0  0  0  0  0
    8.8836   12.2016   -0.1045 H   0  0  0  0  0  0  0  0  0  0  0  0
   11.3387   13.3369   -2.9935 H   0  0  0  0  0  0  0  0  0  0  0  0
   12.9959   13.7450   -2.4922 H   0  0  0  0  0  0  0  0  0  0  0  0
   11.6012   14.6934   -1.8095 H   0  0  0  0  0  0  0  0  0  0  0  0
  1  2  1  0  0  0  0
  1 18  1  0  0  0  0
  1 19  1  0  0  0  0
  1 20  1  0  0  0  0
  2  3  1  0  0  0  0
  3  4  2  0  0  0  0
  3  5  1  0  0  0  0
  5  6  1  0  0  0  0
  5 21  1  0  0  0  0
  5 22  1  0  0  0  0
  6  7  1  0  0  0  0
  6 23  1  0  0  0  0
  6 24  1  0  0  0  0
  7  8  2  0  0  0  0
  7 13  1  0  0  0  0
  8  9  1  0  0  0  0
  9 10  1  0  0  0  0
  9 25  1  0  0  0  0
 10 11  2  0  0  0  0
 10 12  1  0  0  0  0
 12 26  1  0  0  0  0
 12 27  1  0  0  0  0
 13 14  1  0  0  0  0
 13 28  1  0  0  0  0
 13 29  1  0  0  0  0
 14 15  2  0  0  0  0
 14 16  1  0  0  0  0
 16 17  1  0  0  0  0
 17 30  1  0  0  0  0
 17 31  1  0  0  0  0
 17 32  1  0  0  0  0
M  END
> <Name>
ZINC04748240

> <reference>
BDB4986

> <quality>
0.721

> <status>
decoy

> <atoms in reference ligand area>
27

> <score>
-35.0411

$$$$
ZINC19925920
      BALL 1.4.0 (Jan  4 2012, 23:22:29)

 56 59  0999  0  0  0  0  0  0999 V2000
   16.3188   13.5470    4.2761 C   0  0  0  0  0  0  0  0  0  0  0  0
   15.1324   13.3013    5.0337 O   0  0  0  0  0  0  0  0  0  0  0  0
   14.4454   12.1616    4.7529 C   0  0  0  0  0  0  0  0  0  0  0  0
   14.8725   10.9491    5.2718 C   0  0  0  0  0  0  0  0  0  0  0  0
   14.1786    9.7851    4.9903 C   0  0  0  0  0  0  0  0  0  0  0  0
   13.0556    9.8201    4.1907 C   0  0  0  0  0  0  0  0  0  0  0  0
   12.6135   11.0351    3.6603 C   0  0  0  0  0  0  0  0  0  0  0  0
   13.3193   12.2116    3.9405 C   0  0  0  0  0  0  0  0  0  0  0  0
   12.9014   13.3977    3.4249 O   0  0  0  0  0  0  0  0  0  0  0  0
   12.6353   13.4372    2.0214 C   0  0  0  0  0  0  0  0  0  0  0  0
   11.4139   11.0770    2.8053 C   0  0  0  0  0  0  0  0  0  0  0  0
   11.2973   10.2522    1.8096 N   0  0  0  0  0  0  0  0  0  0  0  0
   10.1543   10.2881    1.0002 N   0  0  0  0  0  0  0  0  0  0  0  0
    9.0917   11.0314    1.3674 C   0  0  0  0  0  0  0  0  0  0  0  0
    9.0940   11.6088    2.4384 O   0  0  0  0  0  0  0  0  0  0  0  0
    7.9292   11.1447    0.4732 C   0  0  0  0  0  0  0  0  0  0  0  0
    7.6234   12.1886   -0.3609 C   0  0  0  0  0  0  0  0  0  0  0  0
    6.4866   11.8586   -0.9748 N   0  0  0  0  0  0  0  0  0  0  0  0
    6.0991   10.7030   -0.5679 N   0  0  0  0  0  0  0  0  0  0  0  0
    6.9256   10.2242    0.2948 N   0  0  0  0  0  0  0  0  0  0  0  0
    6.8190    8.9876    0.9386 C   0  0  0  0  0  0  0  0  0  0  0  0
    7.1032    7.6807    0.3387 C   0  0  0  0  0  0  0  0  0  0  0  0
    6.8934    6.7612    1.2404 N   0  0  0  0  0  0  0  0  0  0  0  0
    6.4764    7.4074    2.4302 O   0  0  0  0  0  0  0  0  0  0  0  0
    6.4555    8.8009    2.1760 N   0  0  0  0  0  0  0  0  0  0  0  0
    7.5239    7.4589   -0.9676 N   0  0  0  0  0  0  0  0  0  0  0  0
    8.4154   13.4570   -0.5477 C   0  0  0  0  0  0  0  0  0  0  0  0
    9.6701   13.1522   -1.2480 N   0  0  0  0  0  0  0  0  0  0  0  0
   10.7563   14.0303   -0.7893 C   0  0  0  0  0  0  0  0  0  0  0  0
   12.0553   13.6398   -1.4993 C   0  0  0  0  0  0  0  0  0  0  0  0
   11.8601   13.7140   -2.9141 O   0  0  0  0  0  0  0  0  0  0  0  0
   10.8101   12.8708   -3.3954 C   0  0  0  0  0  0  0  0  0  0  0  0
    9.4984   13.2535   -2.7046 C   0  0  0  0  0  0  0  0  0  0  0  0
   16.0784   14.3657    3.5819 H   0  0  0  0  0  0  0  0  0  0  0  0
   16.4979   12.6405    3.6793 H   0  0  0  0  0  0  0  0  0  0  0  0
   17.1843   13.7932    4.9087 H   0  0  0  0  0  0  0  0  0  0  0  0
   15.7675   10.9119    5.9103 H   0  0  0  0  0  0  0  0  0  0  0  0
   14.5244    8.8274    5.4065 H   0  0  0  0  0  0  0  0  0  0  0  0
   12.5080    8.8920    3.9704 H   0  0  0  0  0  0  0  0  0  0  0  0
   13.3408   12.7352    1.5530 H   0  0  0  0  0  0  0  0  0  0  0  0
   12.8960   14.4518    1.6857 H   0  0  0  0  0  0  0  0  0  0  0  0
   11.5923   13.1857    1.7789 H   0  0  0  0  0  0  0  0  0  0  0  0
   10.6173   11.8072    3.0109 H   0  0  0  0  0  0  0  0  0  0  0  0
   10.1260    9.7465    0.1246 H   0  0  0  0  0  0  0  0  0  0  0  0
    7.1047    6.6445   -1.4389 H   0  0  0  0  0  0  0  0  0  0  0  0
    8.2089    8.0597   -1.4478 H   0  0  0  0  0  0  0  0  0  0  0  0
    8.6422   13.8970    0.4347 H   0  0  0  0  0  0  0  0  0  0  0  0
    7.8281   14.1718   -1.1429 H   0  0  0  0  0  0  0  0  0  0  0  0
   10.8852   13.9197    0.2975 H   0  0  0  0  0  0  0  0  0  0  0  0
   10.5088   15.0754   -1.0264 H   0  0  0  0  0  0  0  0  0  0  0  0
   12.8579   14.3312   -1.2030 H   0  0  0  0  0  0  0  0  0  0  0  0
   12.3326   12.6125   -1.2209 H   0  0  0  0  0  0  0  0  0  0  0  0
   10.7034   13.0009   -4.4825 H   0  0  0  0  0  0  0  0  0  0  0  0
   11.0491   11.8206   -3.1718 H   0  0  0  0  0  0  0  0  0  0  0  0
    8.7001   12.5697   -3.0289 H   0  0  0  0  0  0  0  0  0  0  0  0
    9.2307   14.2861   -2.9731 H   0  0  0  0  0  0  0  0  0  0  0  0
  1  2  1  0  0  0  0
  1 34  1  0  0  0  0
  1 35  1  0  0  0  0
  1 36  1  0  0  0  0
  2  3  1  0  0  0  0
  3  8  2  0  0  0  0
  3  4  1  0  0  0  0
  4  5  2  0  0  0  0
  4 37  1  0  0  0  0
  5  6  1  0  0  0  0
  5 38  1  0  0  0  0
  6  7  2  0  0  0  0
  6 39  1  0  0  0  0
  7  8  1  0  0  0  0
  7 11  1  0  0  0  0
  8  9  1  0  0  0  0
  9 10  1  0  0  0  0
 10 40  1  0  0  0  0
 10 41  1  0  0  0  0
 10 42  1  0  0  0  0
 11 12  2  0  0  0  0
 11 43  1  0  0  0  0
 12 13  1  0  0  0  0
 13 14  1  0  0  0  0
 13 44  1  0  0  0  0
 14 15  2  0  0  0  0
 14 16  1  0  0  0  0
 16 20  1  0  0  0  0
 16 17  2  0  0  0  0
 17 18  1  0  0  0  0
 17 27  1  0  0  0  0
 18 19  2  0  0  0  0
 19 20  1  0  0  0  0
 20 21  1  0  0  0  0
 21 25  2  0  0  0  0
 21 22  1  0  0  0  0
 22 23  2  0  0  0  0
 22 26  1  0  0  0  0
 23 24  1  0  0  0  0
 24 25  1  0  0  0  0
 26 45  1  0  0  0  0
 26 46  1  0  0  0  0
 27 28  1  0  0  0  0
 27 47  1  0  0  0  0
 27 48  1  0  0  0  0
 28 33  1  0  0  0  0
 28 29  1  0  0  0  0
 29 30  1  0  0  0  0
 29 49  1  0  0  0  0
 29 50  1  0  0  0  0
 30 31  1  0  0  0  0
 30 51  1  0  0  0  0
 30 52  1  0  0  0  0
 31 32  1  0  0  0  0
 32 33  1  0  0  0  0
 32 53  1  0  0  0  0
 32 54  1  0  0  0  0
 33 55  1  0  0  0  0
 33 56  1  0  0  0  0
M  END
> <Name>
ZINC19925920

> <reference>
BDB4968

> <quality>
0.786

> <status>
decoy

> <atoms in reference ligand area>
23

> <score>
-35.0247

$$$$
ZINC20185343
      BALL 1.4.0 (Jan  4 2012, 23:22:29)

 38 39  0999  0  0  0  0  0  0999 V2000
    8.4224   13.5142    3.5470 C   0  0  0  0  0  0  0  0  0  0  0  0
    9.6238   13.5465    2.6001 C   0  0  0  0  0  0  0  0  0  0  0  0
    9.2931   12.8282    1.3668 N   0  0  0  0  0  0  0  0  0  0  0  0
    8.7456   11.5565    1.4311 C   0  0  0  0  0  0  0  0  0  0  0  0
    7.5829   11.1305    0.9755 N   0  0  0  0  0  0  0  0  0  0  0  0
    7.2133    9.8715    1.1185 C   0  0  0  0  0  0  0  0  0  0  0  0
    8.0519    9.0207    1.7566 C   0  0  0  0  0  0  0  0  0  0  0  0
    9.4104   10.1168    2.1386 S   0  0  0  0  0  0  0  0  0  0  0  0
    5.8857    9.3930    0.5898 C   0  0  0  0  0  0  0  0  0  0  0  0
    5.6751    9.9351   -0.8254 C   0  0  0  0  0  0  0  0  0  0  0  0
    4.4625   10.7638   -0.8569 N   0  3  0  0  0  0  0  0  0  0  0  0
    9.5410   13.4541    0.0657 C   0  0  0  0  0  0  0  0  0  0  0  0
   10.3707   14.7335    0.2645 C   0  0  0  0  0  0  0  0  0  0  0  0
   10.8818   15.2001   -1.1285 C   0  0  0  0  0  0  0  0  0  0  0  0
   11.3366   13.5809   -1.8806 S   0  0  0  0  0  0  0  0  0  0  0  0
   12.7090   13.3195   -1.6214 O   0  0  0  0  0  0  0  0  0  0  0  0
   10.8577   13.5408   -3.2179 O   0  0  0  0  0  0  0  0  0  0  0  0
   10.3082   12.4636   -0.8431 C   0  0  0  0  0  0  0  0  0  0  0  0
    7.9850   14.5209    3.6204 H   0  0  0  0  0  0  0  0  0  0  0  0
    8.7487   13.1833    4.5440 H   0  0  0  0  0  0  0  0  0  0  0  0
    7.6673   12.8149    3.1586 H   0  0  0  0  0  0  0  0  0  0  0  0
    9.8736   14.5905    2.3599 H   0  0  0  0  0  0  0  0  0  0  0  0
   10.4864   13.0650    3.0839 H   0  0  0  0  0  0  0  0  0  0  0  0
    7.9303    7.9502    1.9786 H   0  0  0  0  0  0  0  0  0  0  0  0
    5.8752    8.2934    0.5660 H   0  0  0  0  0  0  0  0  0  0  0  0
    5.0779    9.7534    1.2436 H   0  0  0  0  0  0  0  0  0  0  0  0
    6.5428   10.5446   -1.1177 H   0  0  0  0  0  0  0  0  0  0  0  0
    5.5632    9.0960   -1.5278 H   0  0  0  0  0  0  0  0  0  0  0  0
    4.1301   10.8508   -1.8279 H   0  0  0  0  0  0  0  0  0  0  0  0
    4.6751   11.6994   -0.4822 H   0  0  0  0  0  0  0  0  0  0  0  0
    3.7298   10.3233   -0.2825 H   0  0  0  0  0  0  0  0  0  0  0  0
    8.5838   13.7142   -0.4099 H   0  0  0  0  0  0  0  0  0  0  0  0
    9.7403   15.5180    0.7084 H   0  0  0  0  0  0  0  0  0  0  0  0
   11.2281   14.5216    0.9203 H   0  0  0  0  0  0  0  0  0  0  0  0
   10.0708   15.6676   -1.7062 H   0  0  0  0  0  0  0  0  0  0  0  0
   11.7772   15.8309   -1.0265 H   0  0  0  0  0  0  0  0  0  0  0  0
    9.6091   11.9013   -1.4796 H   0  0  0  0  0  0  0  0  0  0  0  0
   10.9570   11.8104   -0.2411 H   0  0  0  0  0  0  0  0  0  0  0  0
  1  2  1  0  0  0  0
  1 19  1  0  0  0  0
  1 20  1  0  0  0  0
  1 21  1  0  0  0  0
  2  3  1  0  0  0  0
  2 22  1  0  0  0  0
  2 23  1  0  0  0  0
  3  4  1  0  0  0  0
  3 12  1  0  0  0  0
  4  8  1  0  0  0  0
  4  5  2  0  0  0  0
  5  6  1  0  0  0  0
  6  7  2  0  0  0  0
  6  9  1  0  0  0  0
  7  8  1  0  0  0  0
  7 24  1  0  0  0  0
  9 10  1  0  0  0  0
  9 25  1  0  0  0  0
  9 26  1  0  0  0  0
 10 11  1  0  0  0  0
 10 27  1  0  0  0  0
 10 28  1  0  0  0  0
 11 29  1  0  0  0  0
 11 30  1  0  0  0  0
 11 31  1  0  0  0  0
 12 18  1  0  0  0  0
 12 13  1  0  0  0  0
 12 32  1  0  0  0  0
 13 14  1  0  0  0  0
 13 33  1  0  0  0  0
 13 34  1  0  0  0  0
 14 15  1  0  0  0  0
 14 35  1  0  0  0  0
 14 36  1  0  0  0  0
 15 16  2  0  0  0  0
 15 17  2  0  0  0  0
 15 18  1  0  0  0  0
 18 37  1  0  0  0  0
 18 38  1  0  0  0  0
M  END
> <Name>
ZINC20185343

> <reference>
BDB5233

> <quality>
0.724

> <status>
decoy

> <atoms in reference ligand area>
20

> <score>
-34.3116

$$$$
ZINC19328598
      BALL 1.4.0 (Jan  4 2012, 23:22:29)

 39 39  0999  0  0  0  0  0  0999 V2000
    5.0647    8.2876    0.7909 C   0  0  0  0  0  0  0  0  0  0  0  0
    5.6630    9.5671    0.2030 C   0  0  0  0  0  0  0  0  0  0  0  0
    4.5800   10.4760   -0.1955 N   0  3  0  0  0  0  0  0  0  0  0  0
    6.5056   10.2222    1.2123 N   0  0  0  0  0  0  0  0  0  0  0  0
    7.6682   10.8683    0.5886 C   0  0  0  0  0  0  0  0  0  0  0  0
    8.2331   11.9274    1.5372 C   0  0  0  0  0  0  0  0  0  0  0  0
    8.4283   11.3160    2.9261 C   0  0  0  0  0  0  0  0  0  0  0  0
    9.8340   10.7205    3.0283 C   0  0  0  0  0  0  0  0  0  0  0  0
   10.0291   10.1092    4.4172 C   0  0  0  0  0  0  0  0  0  0  0  0
    8.8114    9.3017    4.7862 C   0  0  0  0  0  0  0  0  0  0  0  0
    8.7635    8.7305    5.8551 O   0  0  0  0  0  0  0  0  0  0  0  0
    7.7755    9.2141    3.9284 N   0  0  0  0  0  0  0  0  0  0  0  0
    6.6450    8.4646    4.2710 C   0  0  0  0  0  0  0  0  0  0  0  0
    5.4102    8.6934    3.8759 N   0  5  0  0  0  0  0  0  0  0  0  0
    4.6251    7.6861    4.4611 N   0  0  0  0  0  0  0  0  0  0  0  0
    5.4178    6.9475    5.1602 N   0  0  0  0  0  0  0  0  0  0  0  0
    6.6213    7.3877    5.0575 N   0  0  0  0  0  0  0  0  0  0  0  0
   10.2219   11.1821    5.4018 N   0  3  0  0  0  0  0  0  0  0  0  0
    4.3165    8.5484    1.5540 H   0  0  0  0  0  0  0  0  0  0  0  0
    5.8626    7.6862    1.2510 H   0  0  0  0  0  0  0  0  0  0  0  0
    4.5835    7.7058   -0.0091 H   0  0  0  0  0  0  0  0  0  0  0  0
    6.2732    9.3158   -0.6771 H   0  0  0  0  0  0  0  0  0  0  0  0
    4.4288   10.4067   -1.2120 H   0  0  0  0  0  0  0  0  0  0  0  0
    4.8355   11.4437    0.0477 H   0  0  0  0  0  0  0  0  0  0  0  0
    3.7140   10.2164    0.2979 H   0  0  0  0  0  0  0  0  0  0  0  0
    5.9497   10.9322    1.7101 H   0  0  0  0  0  0  0  0  0  0  0  0
    8.4405   10.1128    0.3816 H   0  0  0  0  0  0  0  0  0  0  0  0
    7.3618   11.3468   -0.3533 H   0  0  0  0  0  0  0  0  0  0  0  0
    9.2010   12.2837    1.1547 H   0  0  0  0  0  0  0  0  0  0  0  0
    7.5320   12.7723    1.6047 H   0  0  0  0  0  0  0  0  0  0  0  0
    8.3050   12.0967    3.6912 H   0  0  0  0  0  0  0  0  0  0  0  0
    7.6826   10.5236    3.0873 H   0  0  0  0  0  0  0  0  0  0  0  0
    9.9579    9.9395    2.2637 H   0  0  0  0  0  0  0  0  0  0  0  0
   10.5811   11.5119    2.8686 H   0  0  0  0  0  0  0  0  0  0  0  0
   10.9138    9.4556    4.4091 H   0  0  0  0  0  0  0  0  0  0  0  0
    7.8161    9.6991    3.0206 H   0  0  0  0  0  0  0  0  0  0  0  0
    9.3960   11.2395    6.0146 H   0  0  0  0  0  0  0  0  0  0  0  0
   10.3489   12.0796    4.9126 H   0  0  0  0  0  0  0  0  0  0  0  0
   11.0568   10.9811    5.9706 H   0  0  0  0  0  0  0  0  0  0  0  0
  1  2  1  0  0  0  0
  1 19  1  0  0  0  0
  1 20  1  0  0  0  0
  1 21  1  0  0  0  0
  2  3  1  0  0  0  0
  2  4  1  0  0  0  0
  2 22  1  0  0  0  0
  3 23  1  0  0  0  0
  3 24  1  0  0  0  0
  3 25  1  0  0  0  0
  4  5  1  0  0  0  0
  4 26  1  0  0  0  0
  5  6  1  0  0  0  0
  5 27  1  0  0  0  0
  5 28  1  0  0  0  0
  6  7  1  0  0  0  0
  6 29  1  0  0  0  0
  6 30  1  0  0  0  0
  7  8  1  0  0  0  0
  7 31  1  0  0  0  0
  7 32  1  0  0  0  0
  8  9  1  0  0  0  0
  8 33  1  0  0  0  0
  8 34  1  0  0  0  0
  9 10  1  0  0  0  0
  9 18  1  0  0  0  0
  9 35  1  0  0  0  0
 10 11  2  0  0  0  0
 10 12  1  0  0  0  0
 12 13  1  0  0  0  0
 12 36  1  0  0  0  0
 13 14  1  0  0  0  0
 13 17  2  0  0  0  0
 14 15  1  0  0  0  0
 15 16  2  0  0  0  0
 16 17  1  0  0  0  0
 18 37  1  0  0  0  0
 18 38  1  0  0  0  0
 18 39  1  0  0  0  0
M  END
> <Name>
ZINC19328598

> <reference>
BDB4986

> <quality>
0.714

> <status>
decoy

> <atoms in reference ligand area>
12

> <score>
-34.2928

$$$$
ZINC24983764
      BALL 1.4.0 (Jan  4 2012, 23:22:29)

 42 43  0999  0  0  0  0  0  0999 V2000
    6.7769   10.3906   -0.4713 C   0  0  0  0  0  0  0  0  0  0  0  0
    5.6756    9.9694    0.9072 S   0  0  0  0  0  0  0  0  0  0  0  0
    5.1287    8.6716    0.7177 O   0  0  0  0  0  0  0  0  0  0  0  0
    4.8342   11.0720    1.2162 O   0  0  0  0  0  0  0  0  0  0  0  0
    6.6745    9.8194    2.2195 N   0  0  0  0  0  0  0  0  0  0  0  0
    7.5999   10.8162    2.5061 C   0  0  0  0  0  0  0  0  0  0  0  0
    7.4832   12.0677    1.9142 C   0  0  0  0  0  0  0  0  0  0  0  0
    8.4024   13.0562    2.1995 C   0  0  0  0  0  0  0  0  0  0  0  0
    9.4489   12.8100    3.0771 C   0  0  0  0  0  0  0  0  0  0  0  0
    9.5775   11.5749    3.6777 C   0  0  0  0  0  0  0  0  0  0  0  0
    8.6563   10.5629    3.3939 C   0  0  0  0  0  0  0  0  0  0  0  0
    8.7904    9.2389    4.0285 C   0  0  0  0  0  0  0  0  0  0  0  0
    7.9838    8.3625    3.7829 O   0  0  0  0  0  0  0  0  0  0  0  0
    9.8066    8.9999    4.8809 N   0  0  0  0  0  0  0  0  0  0  0  0
    9.9398    7.6843    5.5114 C   0  0  0  0  0  0  0  0  0  0  0  0
    9.3848    7.7429    6.9360 C   0  0  0  0  0  0  0  0  0  0  0  0
   10.4877    7.6367    7.8945 N   0  0  0  0  0  0  0  0  0  0  0  0
   10.2604    7.8722    9.2412 C   0  0  0  0  0  0  0  0  0  0  0  0
   10.3085    6.8101   10.1420 C   0  0  0  0  0  0  0  0  0  0  0  0
   10.0831    7.0461   11.4714 C   0  0  0  0  0  0  0  0  0  0  0  0
    9.8096    8.3604   11.8810 C   0  0  0  0  0  0  0  0  0  0  0  0
    9.7720    9.3747   10.9229 C   0  0  0  0  0  0  0  0  0  0  0  0
   10.0000    9.1047    9.6540 N   0  0  0  0  0  0  0  0  0  0  0  0
    9.5669    8.6555   13.2611 C   0  0  0  0  0  0  0  0  0  0  0  0
    9.3744    8.8897   14.3559 N   0  0  0  0  0  0  0  0  0  0  0  0
   10.3428   13.7859    3.3482 F   0  0  0  0  0  0  0  0  0  0  0  0
    6.3081   11.1755   -1.0832 H   0  0  0  0  0  0  0  0  0  0  0  0
    6.9415    9.4963   -1.0903 H   0  0  0  0  0  0  0  0  0  0  0  0
    7.7394   10.7521   -0.0803 H   0  0  0  0  0  0  0  0  0  0  0  0
    6.6102    8.9874    2.8233 H   0  0  0  0  0  0  0  0  0  0  0  0
    6.6568   12.2707    1.2172 H   0  0  0  0  0  0  0  0  0  0  0  0
    8.3052   14.0455    1.7284 H   0  0  0  0  0  0  0  0  0  0  0  0
   10.4039   11.3868    4.3789 H   0  0  0  0  0  0  0  0  0  0  0  0
   10.4897    9.7422    5.0890 H   0  0  0  0  0  0  0  0  0  0  0  0
    9.3766    6.9399    4.9294 H   0  0  0  0  0  0  0  0  0  0  0  0
   11.0013    7.3977    5.5438 H   0  0  0  0  0  0  0  0  0  0  0  0
    8.8599    8.6979    7.0861 H   0  0  0  0  0  0  0  0  0  0  0  0
    8.6830    6.9103    7.0919 H   0  0  0  0  0  0  0  0  0  0  0  0
   11.4319    7.3869    7.5676 H   0  0  0  0  0  0  0  0  0  0  0  0
   10.5257    5.7915    9.7881 H   0  0  0  0  0  0  0  0  0  0  0  0
   10.1155    6.2245   12.2021 H   0  0  0  0  0  0  0  0  0  0  0  0
    9.5503   10.4074   11.2299 H   0  0  0  0  0  0  0  0  0  0  0  0
  1  2  1  0  0  0  0
  1 27  1  0  0  0  0
  1 28  1  0  0  0  0
  1 29  1  0  0  0  0
  2  3  2  0  0  0  0
  2  4  2  0  0  0  0
  2  5  1  0  0  0  0
  5  6  1  0  0  0  0
  5 30  1  0  0  0  0
  6 11  2  0  0  0  0
  6  7  1  0  0  0  0
  7  8  2  0  0  0  0
  7 31  1  0  0  0  0
  8  9  1  0  0  0  0
  8 32  1  0  0  0  0
  9 10  2  0  0  0  0
  9 26  1  0  0  0  0
 10 11  1  0  0  0  0
 10 33  1  0  0  0  0
 11 12  1  0  0  0  0
 12 13  2  0  0  0  0
 12 14  1  0  0  0  0
 14 15  1  0  0  0  0
 14 34  1  0  0  0  0
 15 16  1  0  0  0  0
 15 35  1  0  0  0  0
 15 36  1  0  0  0  0
 16 17  1  0  0  0  0
 16 37  1  0  0  0  0
 16 38  1  0  0  0  0
 17 18  1  0  0  0  0
 17 39  1  0  0  0  0
 18 23  2  0  0  0  0
 18 19  1  0  0  0  0
 19 20  2  0  0  0  0
 19 40  1  0  0  0  0
 20 21  1  0  0  0  0
 20 41  1  0  0  0  0
 21 22  2  0  0  0  0
 21 24  1  0  0  0  0
 22 23  1  0  0  0  0
 22 42  1  0  0  0  0
 24 25  3  0  0  0  0
M  END
> <Name>
ZINC24983764

> <reference>
BDB4952

> <quality>
0.720

> <status>
decoy

> <atoms in reference ligand area>
14

> <score>
-34.1211

$$$$
ZINC05521415
      BALL 1.4.0 (Jan  4 2012, 23:22:29)

 30 31  0999  0  0  0  0  0  0999 V2000
   12.4054   11.1647    1.8016 C   0  0  0  0  0  0  0  0  0  0  0  0
   11.4132   11.9903    1.3943 C   0  0  0  0  0  0  0  0  0  0  0  0
   10.2824   11.2471    1.3900 N   0  0  0  0  0  0  0  0  0  0  0  0
   10.5833   10.0526    1.7633 N   0  0  0  0  0  0  0  0  0  0  0  0
   11.8419    9.9705    2.0162 N   0  0  0  0  0  0  0  0  0  0  0  0
    8.9464   11.7193    1.0183 C   0  0  0  0  0  0  0  0  0  0  0  0
    8.0460   11.8319    2.2685 C   0  0  0  0  0  0  0  0  0  0  0  0
    6.6543   11.3820    1.7707 C   0  0  0  0  0  0  0  0  0  0  0  0
    6.8784   11.0508    0.2785 C   0  0  0  0  0  0  0  0  0  0  0  0
    8.2871   10.7498    0.1749 O   0  0  0  0  0  0  0  0  0  0  0  0
    6.0427    9.8365   -0.1314 C   0  0  0  0  0  0  0  0  0  0  0  0
    4.6785   10.2298   -0.2935 O   0  0  0  0  0  0  0  0  0  0  0  0
    6.2194   10.2210    2.4813 O   0  0  0  0  0  0  0  0  0  0  0  0
    8.5132   10.9625    3.3020 O   0  0  0  0  0  0  0  0  0  0  0  0
   11.5415   13.4451    1.0230 C   0  0  0  0  0  0  0  0  0  0  0  0
   12.5564   13.5945   -0.0230 N   0  0  0  0  0  0  0  0  0  0  0  0
   12.3527   13.2162   -1.0616 N   0  3  0  0  0  0  0  0  0  0  0  0
   12.1491   12.8380   -2.1003 N   0  5  0  0  0  0  0  0  0  0  0  0
   13.4664   11.4245    1.9309 H   0  0  0  0  0  0  0  0  0  0  0  0
    9.0803   12.6879    0.5143 H   0  0  0  0  0  0  0  0  0  0  0  0
    8.0366   12.8461    2.6944 H   0  0  0  0  0  0  0  0  0  0  0  0
    5.8810   12.1493    1.9233 H   0  0  0  0  0  0  0  0  0  0  0  0
    6.5794   11.8794   -0.3803 H   0  0  0  0  0  0  0  0  0  0  0  0
    6.4229    9.4334   -1.0817 H   0  0  0  0  0  0  0  0  0  0  0  0
    6.1105    9.0633    0.6482 H   0  0  0  0  0  0  0  0  0  0  0  0
    4.4377   10.2012   -1.2533 H   0  0  0  0  0  0  0  0  0  0  0  0
    5.8650   10.4962    3.3639 H   0  0  0  0  0  0  0  0  0  0  0  0
    7.7799   10.8055    3.9482 H   0  0  0  0  0  0  0  0  0  0  0  0
   11.8403   14.0257    1.9083 H   0  0  0  0  0  0  0  0  0  0  0  0
   10.5748   13.8153    0.6508 H   0  0  0  0  0  0  0  0  0  0  0  0
  1  5  1  0  0  0  0
  1  2  2  0  0  0  0
  1 19  1  0  0  0  0
  2  3  1  0  0  0  0
  2 15  1  0  0  0  0
  3  4  1  0  0  0  0
  3  6  1  0  0  0  0
  4  5  2  0  0  0  0
  6 10  1  0  0  0  0
  6  7  1  0  0  0  0
  6 20  1  0  0  0  0
  7  8  1  0  0  0  0
  7 14  1  0  0  0  0
  7 21  1  0  0  0  0
  8  9  1  0  0  0  0
  8 13  1  0  0  0  0
  8 22  1  0  0  0  0
  9 10  1  0  0  0  0
  9 11  1  0  0  0  0
  9 23  1  0  0  0  0
 11 12  1  0  0  0  0
 11 24  1  0  0  0  0
 11 25  1  0  0  0  0
 12 26  1  0  0  0  0
 13 27  1  0  0  0  0
 14 28  1  0  0  0  0
 15 16  1  0  0  0  0
 15 29  1  0  0  0  0
 15 30  1  0  0  0  0
 16 17  2  0  0  0  0
 17 18  2  0  0  0  0
M  END
> <Name>
ZINC05521415

> <reference>
BDB5233

> <quality>
0.733

> <status>
decoy

> <atoms in reference ligand area>
18

> <score>
-34.0213

$$$$
ZINC10186482
      BALL 1.4.0 (Jan  4 2012, 23:22:29)

 43 43  0999  0  0  0  0  0  0999 V2000
    7.8789   15.1136   -2.0599 C   0  0  0  0  0  0  0  0  0  0  0  0
    9.3178   14.6860   -1.9264 C   0  0  0  0  0  0  0  0  0  0  0  0
   10.3327   15.5841   -2.1922 C   0  0  0  0  0  0  0  0  0  0  0  0
   11.6571   15.1891   -2.0750 C   0  0  0  0  0  0  0  0  0  0  0  0
   11.9632   13.8933   -1.6850 C   0  0  0  0  0  0  0  0  0  0  0  0
   10.9496   12.9959   -1.4140 C   0  0  0  0  0  0  0  0  0  0  0  0
    9.6234   13.3908   -1.5311 C   0  0  0  0  0  0  0  0  0  0  0  0
    8.5943   12.4806   -1.2561 N   0  0  0  0  0  0  0  0  0  0  0  0
    8.7475   11.5650   -0.2790 C   0  0  0  0  0  0  0  0  0  0  0  0
    9.8114   11.4624    0.2944 O   0  0  0  0  0  0  0  0  0  0  0  0
    7.5972   10.6687    0.1009 C   0  0  0  0  0  0  0  0  0  0  0  0
    7.4068   10.6991    1.6187 C   0  0  0  0  0  0  0  0  0  0  0  0
    5.9793   10.3500    1.9530 C   0  0  0  0  0  0  0  0  0  0  0  0
    5.7384    9.3874    2.6422 O   0  0  0  0  0  0  0  0  0  0  0  0
    8.7983   10.2153    3.5402 C   0  0  0  0  0  0  0  0  0  0  0  0
    9.5536   11.5279    3.3220 C   0  0  0  0  0  0  0  0  0  0  0  0
    8.5596   12.6907    3.3004 C   0  0  0  0  0  0  0  0  0  0  0  0
   10.5559   11.7347    4.4593 C   0  0  0  0  0  0  0  0  0  0  0  0
   12.6560   16.0720   -2.3427 O   0  0  0  0  0  0  0  0  0  0  0  0
    4.9757   11.1085    1.4849 O   0  5  0  0  0  0  0  0  0  0  0  0
    8.3128    9.7150    2.2402 N   0  3  0  0  0  0  0  0  0  0  0  0
    7.8336   16.1112   -1.5987 H   0  0  0  0  0  0  0  0  0  0  0  0
    7.3160   14.4287   -1.4086 H   0  0  0  0  0  0  0  0  0  0  0  0
    7.5075   15.1108   -3.0953 H   0  0  0  0  0  0  0  0  0  0  0  0
   10.0908   16.6130   -2.4969 H   0  0  0  0  0  0  0  0  0  0  0  0
   13.0138   13.5808   -1.5919 H   0  0  0  0  0  0  0  0  0  0  0  0
   11.1925   11.9684   -1.1052 H   0  0  0  0  0  0  0  0  0  0  0  0
    7.7205   12.5113   -1.8006 H   0  0  0  0  0  0  0  0  0  0  0  0
    7.8117    9.6388   -0.2205 H   0  0  0  0  0  0  0  0  0  0  0  0
    6.6788   11.0224   -0.3905 H   0  0  0  0  0  0  0  0  0  0  0  0
    7.6350   11.7051    2.0008 H   0  0  0  0  0  0  0  0  0  0  0  0
    9.4738    9.4728    3.9902 H   0  0  0  0  0  0  0  0  0  0  0  0
    7.9424   10.3893    4.2091 H   0  0  0  0  0  0  0  0  0  0  0  0
   10.0907   11.4868    2.3630 H   0  0  0  0  0  0  0  0  0  0  0  0
    7.5397   12.3054    3.4472 H   0  0  0  0  0  0  0  0  0  0  0  0
    8.6196   13.2078    2.3315 H   0  0  0  0  0  0  0  0  0  0  0  0
    8.8031   13.3972    4.1076 H   0  0  0  0  0  0  0  0  0  0  0  0
   10.3734   10.9919    5.2499 H   0  0  0  0  0  0  0  0  0  0  0  0
   10.4381   12.7468    4.8736 H   0  0  0  0  0  0  0  0  0  0  0  0
   11.5790   11.6143    4.0737 H   0  0  0  0  0  0  0  0  0  0  0  0
   12.2208   16.9612   -2.3292 H   0  0  0  0  0  0  0  0  0  0  0  0
    7.8080    8.8287    2.3830 H   0  0  0  0  0  0  0  0  0  0  0  0
    9.1164    9.5487    1.6177 H   0  0  0  0  0  0  0  0  0  0  0  0
  1  2  1  0  0  0  0
  1 22  1  0  0  0  0
  1 23  1  0  0  0  0
  1 24  1  0  0  0  0
  2  7  2  0  0  0  0
  2  3  1  0  0  0  0
  3  4  2  0  0  0  0
  3 25  1  0  0  0  0
  4  5  1  0  0  0  0
  4 19  1  0  0  0  0
  5  6  2  0  0  0  0
  5 26  1  0  0  0  0
  6  7  1  0  0  0  0
  6 27  1  0  0  0  0
  7  8  1  0  0  0  0
  8  9  1  0  0  0  0
  8 28  1  0  0  0  0
  9 10  2  0  0  0  0
  9 11  1  0  0  0  0
 11 12  1  0  0  0  0
 11 29  1  0  0  0  0
 11 30  1  0  0  0  0
 12 13  1  0  0  0  0
 12 21  1  0  0  0  0
 12 31  1  0  0  0  0
 13 14  2  0  0  0  0
 13 20  1  0  0  0  0
 15 16  1  0  0  0  0
 15 21  1  0  0  0  0
 15 32  1  0  0  0  0
 15 33  1  0  0  0  0
 16 17  1  0  0  0  0
 16 18  1  0  0  0  0
 16 34  1  0  0  0  0
 17 35  1  0  0  0  0
 17 36  1  0  0  0  0
 17 37  1  0  0  0  0
 18 38  1  0  0  0  0
 18 39  1  0  0  0  0
 18 40  1  0  0  0  0
 19 41  1  0  0  0  0
 21 42  1  0  0  0  0
 21 43  1  0  0  0  0
M  END
> <Name>
ZINC10186482

> <reference>
BDB4986

> <quality>
0.724

> <status>
decoy

> <atoms in reference ligand area>
25

> <score>
-34.0129

$$$$
ZINC26764321
      BALL 1.4.0 (Jan  4 2012, 23:22:29)

 41 41  0999  0  0  0  0  0  0999 V2000
    5.1345    7.7730   -0.2676 C   0  0  0  0  0  0  0  0  0  0  0  0
    6.4637    7.9523    0.4197 C   0  0  0  0  0  0  0  0  0  0  0  0
    7.3754    6.9169    0.4427 C   0  0  0  0  0  0  0  0  0  0  0  0
    8.5980    7.0816    1.0686 C   0  0  0  0  0  0  0  0  0  0  0  0
    8.9106    8.2803    1.6852 C   0  0  0  0  0  0  0  0  0  0  0  0
    8.0081    9.3233    1.6695 C   0  0  0  0  0  0  0  0  0  0  0  0
    6.7749    9.1657    1.0347 C   0  0  0  0  0  0  0  0  0  0  0  0
    5.8026   10.2793    1.0143 C   0  0  0  0  0  0  0  0  0  0  0  0
    5.5660   10.8982    2.0333 O   0  0  0  0  0  0  0  0  0  0  0  0
    5.1787   10.6082   -0.1342 N   0  0  0  0  0  0  0  0  0  0  0  0
   10.4678    8.4772    2.4859 S   0  0  0  0  0  0  0  0  0  0  0  0
   11.3664    7.5762    1.8536 O   0  0  0  0  0  0  0  0  0  0  0  0
   10.2130    8.4437    3.8835 O   0  0  0  0  0  0  0  0  0  0  0  0
   11.0068   10.0043    2.1396 N   0  0  0  0  0  0  0  0  0  0  0  0
   10.3909   10.7694    1.0525 C   0  0  0  0  0  0  0  0  0  0  0  0
   11.2761   11.9355    0.6949 C   0  0  0  0  0  0  0  0  0  0  0  0
   12.2210   12.2183    1.4006 O   0  0  0  0  0  0  0  0  0  0  0  0
   11.0175   12.6642   -0.4091 N   0  0  0  0  0  0  0  0  0  0  0  0
   11.8779   13.7977   -0.7567 C   0  0  0  0  0  0  0  0  0  0  0  0
   11.5273   14.2922   -2.1615 C   0  0  0  0  0  0  0  0  0  0  0  0
   10.3943   13.5718   -2.6510 O   0  0  0  0  0  0  0  0  0  0  0  0
   10.6456   12.8400   -3.8524 C   0  0  0  0  0  0  0  0  0  0  0  0
    5.1034    6.7116   -0.5548 H   0  0  0  0  0  0  0  0  0  0  0  0
    5.2129    8.3579   -1.1960 H   0  0  0  0  0  0  0  0  0  0  0  0
    4.2709    8.0693    0.3460 H   0  0  0  0  0  0  0  0  0  0  0  0
    7.1296    5.9583   -0.0377 H   0  0  0  0  0  0  0  0  0  0  0  0
    9.3248    6.2560    1.0762 H   0  0  0  0  0  0  0  0  0  0  0  0
    8.2597   10.2773    2.1560 H   0  0  0  0  0  0  0  0  0  0  0  0
    5.1278    9.9278   -0.9058 H   0  0  0  0  0  0  0  0  0  0  0  0
    4.7527   11.5400   -0.2404 H   0  0  0  0  0  0  0  0  0  0  0  0
   11.7749   10.4162    2.6883 H   0  0  0  0  0  0  0  0  0  0  0  0
    9.4078   11.1420    1.3761 H   0  0  0  0  0  0  0  0  0  0  0  0
   10.2661   10.1212    0.1726 H   0  0  0  0  0  0  0  0  0  0  0  0
   10.2149   12.4240   -1.0083 H   0  0  0  0  0  0  0  0  0  0  0  0
   12.9311   13.4810   -0.7325 H   0  0  0  0  0  0  0  0  0  0  0  0
   11.7229   14.6114   -0.0328 H   0  0  0  0  0  0  0  0  0  0  0  0
   11.2904   15.3657   -2.1241 H   0  0  0  0  0  0  0  0  0  0  0  0
   12.3829   14.1286   -2.8332 H   0  0  0  0  0  0  0  0  0  0  0  0
   10.5650   13.5449   -4.6931 H   0  0  0  0  0  0  0  0  0  0  0  0
    9.8513   12.0857   -3.9535 H   0  0  0  0  0  0  0  0  0  0  0  0
   11.6369   12.3636   -3.8356 H   0  0  0  0  0  0  0  0  0  0  0  0
  1  2  1  0  0  0  0
  1 23  1  0  0  0  0
  1 24  1  0  0  0  0
  1 25  1  0  0  0  0
  2  7  2  0  0  0  0
  2  3  1  0  0  0  0
  3  4  2  0  0  0  0
  3 26  1  0  0  0  0
  4  5  1  0  0  0  0
  4 27  1  0  0  0  0
  5  6  2  0  0  0  0
  5 11  1  0  0  0  0
  6  7  1  0  0  0  0
  6 28  1  0  0  0  0
  7  8  1  0  0  0  0
  8  9  2  0  0  0  0
  8 10  1  0  0  0  0
 10 29  1  0  0  0  0
 10 30  1  0  0  0  0
 11 12  2  0  0  0  0
 11 13  2  0  0  0  0
 11 14  1  0  0  0  0
 14 15  1  0  0  0  0
 14 31  1  0  0  0  0
 15 16  1  0  0  0  0
 15 32  1  0  0  0  0
 15 33  1  0  0  0  0
 16 17  2  0  0  0  0
 16 18  1  0  0  0  0
 18 19  1  0  0  0  0
 18 34  1  0  0  0  0
 19 20  1  0  0  0  0
 19 35  1  0  0  0  0
 19 36  1  0  0  0  0
 20 21  1  0  0  0  0
 20 37  1  0  0  0  0
 20 38  1  0  0  0  0
 21 22  1  0  0  0  0
 22 39  1  0  0  0  0
 22 40  1  0  0  0  0
 22 41  1  0  0  0  0
M  END
> <Name>
ZINC26764321

> <reference>
BDB5024

> <quality>
0.665

> <status>
decoy

> <atoms in reference ligand area>
16

> <score>
-33.8566

$$$$
ZINC06380326
      BALL 1.4.0 (Jan  4 2012, 23:22:29)

 44 45  0999  0  0  0  0  0  0999 V2000
   11.8991   11.7043    3.8509 C   0  0  0  0  0  0  0  0  0  0  0  0
   10.9335   10.6912    3.5627 O   0  0  0  0  0  0  0  0  0  0  0  0
   10.9453   10.2463    2.2048 C   0  0  0  0  0  0  0  0  0  0  0  0
   10.8982   11.4580    1.2702 C   0  0  0  0  0  0  0  0  0  0  0  0
    9.5886   12.2187    1.4987 C   0  0  0  0  0  0  0  0  0  0  0  0
    8.4111   11.2651    1.2739 C   0  0  0  0  0  0  0  0  0  0  0  0
    8.5541   10.0609    2.2083 C   0  0  0  0  0  0  0  0  0  0  0  0
    9.8065    9.4170    1.9650 O   0  0  0  0  0  0  0  0  0  0  0  0
    7.4141    9.0743    1.9478 C   0  0  0  0  0  0  0  0  0  0  0  0
    6.1695    9.6805    2.3020 O   0  0  0  0  0  0  0  0  0  0  0  0
    7.1858   11.9446    1.5548 O   0  0  0  0  0  0  0  0  0  0  0  0
    9.5026   13.3094    0.5795 O   0  0  0  0  0  0  0  0  0  0  0  0
    9.8483   14.5751    1.1454 C   0  0  0  0  0  0  0  0  0  0  0  0
    9.8418   15.6435    0.0490 C   0  0  0  0  0  0  0  0  0  0  0  0
   10.1541   17.0069    0.6736 C   0  0  0  0  0  0  0  0  0  0  0  0
    9.1303   17.2981    1.7751 C   0  0  0  0  0  0  0  0  0  0  0  0
    9.1643   16.1658    2.8049 C   0  0  0  0  0  0  0  0  0  0  0  0
    8.8965   14.9226    2.1531 O   0  0  0  0  0  0  0  0  0  0  0  0
    9.4540   18.5352    2.4130 O   0  0  0  0  0  0  0  0  0  0  0  0
   10.0780   18.0213   -0.3300 O   0  0  0  0  0  0  0  0  0  0  0  0
   10.8335   15.3287   -0.9305 O   0  0  0  0  0  0  0  0  0  0  0  0
   10.9637   11.0167   -0.0874 O   0  0  0  0  0  0  0  0  0  0  0  0
   11.4780   12.3502    4.6354 H   0  0  0  0  0  0  0  0  0  0  0  0
   12.0313   12.3054    2.9392 H   0  0  0  0  0  0  0  0  0  0  0  0
   12.8565   11.2699    4.1746 H   0  0  0  0  0  0  0  0  0  0  0  0
   11.8643    9.6721    2.0157 H   0  0  0  0  0  0  0  0  0  0  0  0
   11.7518   12.1198    1.4789 H   0  0  0  0  0  0  0  0  0  0  0  0
    9.5599   12.6084    2.5270 H   0  0  0  0  0  0  0  0  0  0  0  0
    8.4060   10.9235    0.2283 H   0  0  0  0  0  0  0  0  0  0  0  0
    8.5126   10.4004    3.2538 H   0  0  0  0  0  0  0  0  0  0  0  0
    7.3994    8.8041    0.8816 H   0  0  0  0  0  0  0  0  0  0  0  0
    7.5658    8.1688    2.5536 H   0  0  0  0  0  0  0  0  0  0  0  0
    6.3144   10.3300    3.0349 H   0  0  0  0  0  0  0  0  0  0  0  0
    6.8503   12.3762    0.7294 H   0  0  0  0  0  0  0  0  0  0  0  0
   10.8513   14.5144    1.5929 H   0  0  0  0  0  0  0  0  0  0  0  0
    8.8529   15.6745   -0.4317 H   0  0  0  0  0  0  0  0  0  0  0  0
   11.1674   16.9961    1.1016 H   0  0  0  0  0  0  0  0  0  0  0  0
    8.1241   17.3683    1.3363 H   0  0  0  0  0  0  0  0  0  0  0  0
    8.4009   16.3468    3.5760 H   0  0  0  0  0  0  0  0  0  0  0  0
   10.1582   16.1266    3.2745 H   0  0  0  0  0  0  0  0  0  0  0  0
    8.6246   18.9647    2.7414 H   0  0  0  0  0  0  0  0  0  0  0  0
    9.5075   18.7632   -0.0072 H   0  0  0  0  0  0  0  0  0  0  0  0
   10.9420   16.0940   -1.5490 H   0  0  0  0  0  0  0  0  0  0  0  0
   10.4153   10.1997   -0.1962 H   0  0  0  0  0  0  0  0  0  0  0  0
  1  2  1  0  0  0  0
  1 23  1  0  0  0  0
  1 24  1  0  0  0  0
  1 25  1  0  0  0  0
  2  3  1  0  0  0  0
  3  8  1  0  0  0  0
  3  4  1  0  0  0  0
  3 26  1  0  0  0  0
  4  5  1  0  0  0  0
  4 22  1  0  0  0  0
  4 27  1  0  0  0  0
  5  6  1  0  0  0  0
  5 12  1  0  0  0  0
  5 28  1  0  0  0  0
  6  7  1  0  0  0  0
  6 11  1  0  0  0  0
  6 29  1  0  0  0  0
  7  8  1  0  0  0  0
  7  9  1  0  0  0  0
  7 30  1  0  0  0  0
  9 10  1  0  0  0  0
  9 31  1  0  0  0  0
  9 32  1  0  0  0  0
 10 33  1  0  0  0  0
 11 34  1  0  0  0  0
 12 13  1  0  0  0  0
 13 18  1  0  0  0  0
 13 14  1  0  0  0  0
 13 35  1  0  0  0  0
 14 15  1  0  0  0  0
 14 21  1  0  0  0  0
 14 36  1  0  0  0  0
 15 16  1  0  0  0  0
 15 20  1  0  0  0  0
 15 37  1  0  0  0  0
 16 17  1  0  0  0  0
 16 19  1  0  0  0  0
 16 38  1  0  0  0  0
 17 18  1  0  0  0  0
 17 39  1  0  0  0  0
 17 40  1  0  0  0  0
 19 41  1  0  0  0  0
 20 42  1  0  0  0  0
 21 43  1  0  0  0  0
 22 44  1  0  0  0  0
M  END
> <Name>
ZINC06380326

> <reference>
BDB4932

> <quality>
0.692

> <status>
decoy

> <atoms in reference ligand area>
17

> <score>
-33.6762

$$$$
ZINC06088021
      BALL 1.4.0 (Jan  4 2012, 23:22:29)

 38 39  0999  0  0  0  0  0  0999 V2000
   10.8829   13.1702    1.5696 C   0  0  0  0  0  0  0  0  0  0  0  0
   11.7543   13.6499    0.6158 C   0  0  0  0  0  0  0  0  0  0  0  0
   11.4268   14.7753   -0.1234 C   0  0  0  0  0  0  0  0  0  0  0  0
   10.2196   15.4226    0.0857 C   0  0  0  0  0  0  0  0  0  0  0  0
    9.3357   14.9507    1.0317 C   0  0  0  0  0  0  0  0  0  0  0  0
    9.6598   13.8153    1.7821 C   0  0  0  0  0  0  0  0  0  0  0  0
    8.7216   13.3058    2.7940 C   0  0  0  0  0  0  0  0  0  0  0  0
    7.9805   14.0708    3.3735 O   0  0  0  0  0  0  0  0  0  0  0  0
    8.6817   11.8329    3.1106 C   0  0  0  0  0  0  0  0  0  0  0  0
    8.5718   11.0346    1.8100 C   0  0  0  0  0  0  0  0  0  0  0  0
    7.5110   11.2854   -0.3519 C   0  0  0  0  0  0  0  0  0  0  0  0
    7.1364   12.3011   -1.4331 C   0  0  0  0  0  0  0  0  0  0  0  0
    8.3861   12.7837   -2.1235 C   0  0  0  0  0  0  0  0  0  0  0  0
    9.5377   13.1545   -1.5321 C   0  0  0  0  0  0  0  0  0  0  0  0
   10.3984   13.5210   -2.4933 N   0  0  0  0  0  0  0  0  0  0  0  0
    9.8267   13.3835   -3.6583 C   0  0  0  0  0  0  0  0  0  0  0  0
    8.5688   12.9288   -3.4723 N   0  0  0  0  0  0  0  0  0  0  0  0
    6.2563   10.7117    0.2546 C   0  0  0  0  0  0  0  0  0  0  0  0
    5.3823   10.2810   -0.4599 O   0  0  0  0  0  0  0  0  0  0  0  0
   12.5341   15.3766   -1.3177 Cl  0  0  0  0  0  0  0  0  0  0  0  0
    8.2995   11.9615    0.6954 N   0  3  0  0  0  0  0  0  0  0  0  0
    6.1097   10.6793    1.5884 O   0  5  0  0  0  0  0  0  0  0  0  0
   11.1483   12.2824    2.1623 H   0  0  0  0  0  0  0  0  0  0  0  0
   12.7121   13.1381    0.4408 H   0  0  0  0  0  0  0  0  0  0  0  0
    9.9662   16.3153   -0.5049 H   0  0  0  0  0  0  0  0  0  0  0  0
    8.3776   15.4654    1.1964 H   0  0  0  0  0  0  0  0  0  0  0  0
    9.6025   11.5462    3.6395 H   0  0  0  0  0  0  0  0  0  0  0  0
    7.8109   11.6171    3.7471 H   0  0  0  0  0  0  0  0  0  0  0  0
    9.5171   10.5039    1.6235 H   0  0  0  0  0  0  0  0  0  0  0  0
    7.7501   10.3079    1.8919 H   0  0  0  0  0  0  0  0  0  0  0  0
    8.1053   10.4733   -0.7963 H   0  0  0  0  0  0  0  0  0  0  0  0
    6.4720   11.8251   -2.1692 H   0  0  0  0  0  0  0  0  0  0  0  0
    6.6201   13.1558   -0.9717 H   0  0  0  0  0  0  0  0  0  0  0  0
    9.7375   13.1565   -0.4504 H   0  0  0  0  0  0  0  0  0  0  0  0
   10.2922   13.6019   -4.6308 H   0  0  0  0  0  0  0  0  0  0  0  0
    7.8763   12.7285   -4.2080 H   0  0  0  0  0  0  0  0  0  0  0  0
    7.7728   12.7737    1.0475 H   0  0  0  0  0  0  0  0  0  0  0  0
    9.1910   12.2860    0.2944 H   0  0  0  0  0  0  0  0  0  0  0  0
  1  6  2  0  0  0  0
  1  2  1  0  0  0  0
  1 23  1  0  0  0  0
  2  3  2  0  0  0  0
  2 24  1  0  0  0  0
  3  4  1  0  0  0  0
  3 20  1  0  0  0  0
  4  5  2  0  0  0  0
  4 25  1  0  0  0  0
  5  6  1  0  0  0  0
  5 26  1  0  0  0  0
  6  7  1  0  0  0  0
  7  8  2  0  0  0  0
  7  9  1  0  0  0  0
  9 10  1  0  0  0  0
  9 27  1  0  0  0  0
  9 28  1  0  0  0  0
 10 21  1  0  0  0  0
 10 29  1  0  0  0  0
 10 30  1  0  0  0  0
 11 12  1  0  0  0  0
 11 18  1  0  0  0  0
 11 21  1  0  0  0  0
 11 31  1  0  0  0  0
 12 13  1  0  0  0  0
 12 32  1  0  0  0  0
 12 33  1  0  0  0  0
 13 17  1  0  0  0  0
 13 14  2  0  0  0  0
 14 15  1  0  0  0  0
 14 34  1  0  0  0  0
 15 16  2  0  0  0  0
 16 17  1  0  0  0  0
 16 35  1  0  0  0  0
 17 36  1  0  0  0  0
 18 19  2  0  0  0  0
 18 22  1  0  0  0  0
 21 37  1  0  0  0  0
 21 38  1  0  0  0  0
M  END
> <Name>
ZINC06088021

> <reference>
BDB5023

> <quality>
0.735

> <status>
decoy

> <atoms in reference ligand area>
31

> <score>
-33.6675

$$$$
ZINC01646936
      BALL 1.4.0 (Jan  4 2012, 23:22:29)

 34 35  0999  0  0  0  0  0  0999 V2000
   10.3528   10.3430    1.1043 C   0  0  0  0  0  0  0  0  0  0  0  0
    9.6280    9.6428    1.9371 N   0  0  0  0  0  0  0  0  0  0  0  0
    9.1149   10.4447    2.8774 C   0  0  0  0  0  0  0  0  0  0  0  0
    9.5601   11.7305    2.6138 C   0  0  0  0  0  0  0  0  0  0  0  0
   10.3480   11.6352    1.4764 N   0  0  0  0  0  0  0  0  0  0  0  0
   11.0450   12.7359    0.8064 C   0  0  0  0  0  0  0  0  0  0  0  0
   10.1005   13.9336    0.6752 C   0  0  0  0  0  0  0  0  0  0  0  0
   10.8163   15.0583   -0.0792 C   0  0  0  0  0  0  0  0  0  0  0  0
   11.2788   14.5308   -1.4409 C   0  0  0  0  0  0  0  0  0  0  0  0
   12.1778   13.3101   -1.2281 C   0  0  0  0  0  0  0  0  0  0  0  0
   11.4615   12.3149   -0.4942 O   0  0  0  0  0  0  0  0  0  0  0  0
   10.1407   14.1559   -2.2194 O   0  0  0  0  0  0  0  0  0  0  0  0
    9.9179   16.1528   -0.2706 O   0  0  0  0  0  0  0  0  0  0  0  0
    8.9312   13.5429   -0.0472 O   0  0  0  0  0  0  0  0  0  0  0  0
    9.2610   12.9392    3.3783 C   0  0  0  0  0  0  0  0  0  0  0  0
    9.8135   13.9879    3.0998 O   0  0  0  0  0  0  0  0  0  0  0  0
    8.3736   12.8933    4.3916 N   0  0  0  0  0  0  0  0  0  0  0  0
    8.2906   10.0576    3.9303 N   0  0  0  0  0  0  0  0  0  0  0  0
    8.7244    9.1501    4.8274 C   0  0  0  0  0  0  0  0  0  0  0  0
    8.3214    9.1870    5.9707 O   0  0  0  0  0  0  0  0  0  0  0  0
   10.8855    9.9368    0.2318 H   0  0  0  0  0  0  0  0  0  0  0  0
   11.9258   13.0257    1.3982 H   0  0  0  0  0  0  0  0  0  0  0  0
    9.8090   14.2862    1.6756 H   0  0  0  0  0  0  0  0  0  0  0  0
   11.6857   15.4004    0.5014 H   0  0  0  0  0  0  0  0  0  0  0  0
   11.8392   15.3152   -1.9707 H   0  0  0  0  0  0  0  0  0  0  0  0
   12.4775   12.9006   -2.2041 H   0  0  0  0  0  0  0  0  0  0  0  0
   13.0739   13.6071   -0.6636 H   0  0  0  0  0  0  0  0  0  0  0  0
   10.1194   14.6904   -3.0525 H   0  0  0  0  0  0  0  0  0  0  0  0
    9.9301   16.4279   -1.2215 H   0  0  0  0  0  0  0  0  0  0  0  0
    8.1588   14.0820    0.2577 H   0  0  0  0  0  0  0  0  0  0  0  0
    7.5939   12.2208    4.3633 H   0  0  0  0  0  0  0  0  0  0  0  0
    8.4751   13.5306    5.1943 H   0  0  0  0  0  0  0  0  0  0  0  0
    7.3491   10.4647    4.0237 H   0  0  0  0  0  0  0  0  0  0  0  0
    9.4439    8.3759    4.5226 H   0  0  0  0  0  0  0  0  0  0  0  0
  1  5  1  0  0  0  0
  1  2  2  0  0  0  0
  1 21  1  0  0  0  0
  2  3  1  0  0  0  0
  3  4  2  0  0  0  0
  3 18  1  0  0  0  0
  4  5  1  0  0  0  0
  4 15  1  0  0  0  0
  5  6  1  0  0  0  0
  6 11  1  0  0  0  0
  6  7  1  0  0  0  0
  6 22  1  0  0  0  0
  7  8  1  0  0  0  0
  7 14  1  0  0  0  0
  7 23  1  0  0  0  0
  8  9  1  0  0  0  0
  8 13  1  0  0  0  0
  8 24  1  0  0  0  0
  9 10  1  0  0  0  0
  9 12  1  0  0  0  0
  9 25  1  0  0  0  0
 10 11  1  0  0  0  0
 10 26  1  0  0  0  0
 10 27  1  0  0  0  0
 12 28  1  0  0  0  0
 13 29  1  0  0  0  0
 14 30  1  0  0  0  0
 15 16  2  0  0  0  0
 15 17  1  0  0  0  0
 17 31  1  0  0  0  0
 17 32  1  0  0  0  0
 18 19  1  0  0  0  0
 18 33  1  0  0  0  0
 19 20  2  0  0  0  0
 19 34  1  0  0  0  0
M  END
> <Name>
ZINC01646936

> <reference>
BDB5008

> <quality>
0.705

> <status>
decoy

> <atoms in reference ligand area>
20

> <score>
-33.614

$$$$
ZINC31904736
      BALL 1.4.0 (Jan  4 2012, 23:22:29)

 45 46  0999  0  0  0  0  0  0999 V2000
   10.9829   10.0690    4.7595 C   0  0  0  0  0  0  0  0  0  0  0  0
    9.7955   10.4094    3.8962 C   0  0  0  0  0  0  0  0  0  0  0  0
    9.7037   11.6200    3.3057 C   0  0  0  0  0  0  0  0  0  0  0  0
    8.6189   11.9125    2.5246 N   0  0  0  0  0  0  0  0  0  0  0  0
    7.6405   11.0069    2.3438 C   0  0  0  0  0  0  0  0  0  0  0  0
    6.6832   11.2893    1.6495 O   0  0  0  0  0  0  0  0  0  0  0  0
    7.7092    9.7907    2.9165 N   0  0  0  0  0  0  0  0  0  0  0  0
    8.7616    9.4637    3.6933 C   0  0  0  0  0  0  0  0  0  0  0  0
    8.8224    8.3651    4.2152 O   0  0  0  0  0  0  0  0  0  0  0  0
    6.6333    8.8203    2.6993 C   0  0  0  0  0  0  0  0  0  0  0  0
    5.5642    8.9938    3.7799 C   0  0  0  0  0  0  0  0  0  0  0  0
    4.4406    7.9804    3.5532 C   0  0  0  0  0  0  0  0  0  0  0  0
    3.3714    8.1539    4.6338 C   0  0  0  0  0  0  0  0  0  0  0  0
    3.9814    8.6299    5.8352 O   0  0  0  0  0  0  0  0  0  0  0  0
    8.5189   13.2263    1.8841 C   0  0  0  0  0  0  0  0  0  0  0  0
    7.9613   13.0844    0.4504 C   0  0  0  0  0  0  0  0  0  0  0  0
    9.2233   13.0251   -0.4392 C   0  0  0  0  0  0  0  0  0  0  0  0
   10.3940   13.1381    0.5623 C   0  0  0  0  0  0  0  0  0  0  0  0
    9.8316   13.8040    1.7140 O   0  0  0  0  0  0  0  0  0  0  0  0
   11.5275   13.9740   -0.0354 C   0  0  0  0  0  0  0  0  0  0  0  0
   12.2258   13.2001   -1.0129 O   0  0  0  0  0  0  0  0  0  0  0  0
    9.2419   14.1484   -1.3794 N   0  0  0  0  0  0  0  0  0  0  0  0
    8.3163   14.4097   -1.9610 N   0  3  0  0  0  0  0  0  0  0  0  0
    7.3907   14.6712   -2.5426 N   0  5  0  0  0  0  0  0  0  0  0  0
   10.6858    9.1577    5.2991 H   0  0  0  0  0  0  0  0  0  0  0  0
   11.0328   10.8800    5.5010 H   0  0  0  0  0  0  0  0  0  0  0  0
   11.9237    9.9447    4.2031 H   0  0  0  0  0  0  0  0  0  0  0  0
   10.4972   12.3677    3.4517 H   0  0  0  0  0  0  0  0  0  0  0  0
    6.1835    8.9867    1.7093 H   0  0  0  0  0  0  0  0  0  0  0  0
    7.0422    7.8003    2.7496 H   0  0  0  0  0  0  0  0  0  0  0  0
    6.0132    8.8272    4.7702 H   0  0  0  0  0  0  0  0  0  0  0  0
    5.1532   10.0130    3.7304 H   0  0  0  0  0  0  0  0  0  0  0  0
    3.9909    8.1468    2.5632 H   0  0  0  0  0  0  0  0  0  0  0  0
    4.8495    6.9605    3.6035 H   0  0  0  0  0  0  0  0  0  0  0  0
    2.6193    8.8804    4.2923 H   0  0  0  0  0  0  0  0  0  0  0  0
    2.8851    7.1867    4.8286 H   0  0  0  0  0  0  0  0  0  0  0  0
    3.5864    9.5031    6.0834 H   0  0  0  0  0  0  0  0  0  0  0  0
    7.8716   13.8446    2.5233 H   0  0  0  0  0  0  0  0  0  0  0  0
    7.3559   13.9650    0.1894 H   0  0  0  0  0  0  0  0  0  0  0  0
    7.3887   12.1498    0.3573 H   0  0  0  0  0  0  0  0  0  0  0  0
    9.2715   12.1091   -1.0463 H   0  0  0  0  0  0  0  0  0  0  0  0
   10.8210   12.1566    0.8162 H   0  0  0  0  0  0  0  0  0  0  0  0
   11.1086   14.8731   -0.5111 H   0  0  0  0  0  0  0  0  0  0  0  0
   12.2246   14.2719    0.7617 H   0  0  0  0  0  0  0  0  0  0  0  0
   12.7361   12.4810   -0.5628 H   0  0  0  0  0  0  0  0  0  0  0  0
  1  2  1  0  0  0  0
  1 25  1  0  0  0  0
  1 26  1  0  0  0  0
  1 27  1  0  0  0  0
  2  8  1  0  0  0  0
  2  3  2  0  0  0  0
  3  4  1  0  0  0  0
  3 28  1  0  0  0  0
  4  5  1  0  0  0  0
  4 15  1  0  0  0  0
  5  6  2  0  0  0  0
  5  7  1  0  0  0  0
  7  8  1  0  0  0  0
  7 10  1  0  0  0  0
  8  9  2  0  0  0  0
 10 11  1  0  0  0  0
 10 29  1  0  0  0  0
 10 30  1  0  0  0  0
 11 12  1  0  0  0  0
 11 31  1  0  0  0  0
 11 32  1  0  0  0  0
 12 13  1  0  0  0  0
 12 33  1  0  0  0  0
 12 34  1  0  0  0  0
 13 14  1  0  0  0  0
 13 35  1  0  0  0  0
 13 36  1  0  0  0  0
 14 37  1  0  0  0  0
 15 19  1  0  0  0  0
 15 16  1  0  0  0  0
 15 38  1  0  0  0  0
 16 17  1  0  0  0  0
 16 39  1  0  0  0  0
 16 40  1  0  0  0  0
 17 18  1  0  0  0  0
 17 22  1  0  0  0  0
 17 41  1  0  0  0  0
 18 19  1  0  0  0  0
 18 20  1  0  0  0  0
 18 42  1  0  0  0  0
 20 21  1  0  0  0  0
 20 43  1  0  0  0  0
 20 44  1  0  0  0  0
 21 45  1  0  0  0  0
 22 23  2  0  0  0  0
 23 24  2  0  0  0  0
M  END
> <Name>
ZINC31904736

> <reference>
BDB5009

> <quality>
0.830

> <status>
decoy

> <atoms in reference ligand area>
20

> <score>
-33.5475

$$$$
ZINC12398420
      BALL 1.4.0 (Jan  4 2012, 23:22:29)

 39 40  0999  0  0  0  0  0  0999 V2000
    9.4010   15.0151    2.7746 C   0  0  0  0  0  0  0  0  0  0  0  0
    9.9250   14.4416    1.4832 C   0  0  0  0  0  0  0  0  0  0  0  0
   10.4528   15.1443    0.4542 C   0  0  0  0  0  0  0  0  0  0  0  0
   10.8142   14.2364   -0.5464 C   0  0  0  0  0  0  0  0  0  0  0  0
   10.5194   13.0313   -0.1308 N   0  0  0  0  0  0  0  0  0  0  0  0
    9.9516   13.1353    1.1457 N   0  0  0  0  0  0  0  0  0  0  0  0
    9.4765   12.0220    1.9710 C   0  0  0  0  0  0  0  0  0  0  0  0
    8.1802   12.4267    2.6758 C   0  0  0  0  0  0  0  0  0  0  0  0
    7.1378   11.3595    2.4618 C   0  0  0  0  0  0  0  0  0  0  0  0
    7.1436   10.1287    2.9944 N   0  0  0  0  0  0  0  0  0  0  0  0
    6.0528    9.5421    2.5440 C   0  0  0  0  0  0  0  0  0  0  0  0
    5.4304   10.4348    1.7595 O   0  0  0  0  0  0  0  0  0  0  0  0
    6.0691   11.4658    1.7277 N   0  0  0  0  0  0  0  0  0  0  0  0
    5.6013    8.1626    2.8454 C   0  0  0  0  0  0  0  0  0  0  0  0
    6.3434    7.3931    3.4226 O   0  0  0  0  0  0  0  0  0  0  0  0
    4.3675    7.7622    2.4792 N   0  0  0  0  0  0  0  0  0  0  0  0
    3.9213    6.3990    2.7772 C   0  0  0  0  0  0  0  0  0  0  0  0
    2.7500    6.0346    1.8628 C   0  0  0  0  0  0  0  0  0  0  0  0
   11.4409   14.5853   -1.8718 C   0  0  0  0  0  0  0  0  0  0  0  0
   12.2139   15.7428   -1.7318 F   0  0  0  0  0  0  0  0  0  0  0  0
   12.2551   13.5293   -2.2950 F   0  0  0  0  0  0  0  0  0  0  0  0
   10.4355   14.8075   -2.8189 F   0  0  0  0  0  0  0  0  0  0  0  0
    3.0227    6.5441    0.5072 N   0  3  0  0  0  0  0  0  0  0  0  0
   10.1954   14.7582    3.4907 H   0  0  0  0  0  0  0  0  0  0  0  0
    8.5578   14.3485    3.0082 H   0  0  0  0  0  0  0  0  0  0  0  0
    9.1373   16.0830    2.7628 H   0  0  0  0  0  0  0  0  0  0  0  0
   10.5758   16.2366    0.4122 H   0  0  0  0  0  0  0  0  0  0  0  0
    9.2881   11.1464    1.3325 H   0  0  0  0  0  0  0  0  0  0  0  0
   10.2386   11.7703    2.7232 H   0  0  0  0  0  0  0  0  0  0  0  0
    8.3693   12.5430    3.7531 H   0  0  0  0  0  0  0  0  0  0  0  0
    7.8185   13.3795    2.2620 H   0  0  0  0  0  0  0  0  0  0  0  0
    3.7384    8.4147    1.9899 H   0  0  0  0  0  0  0  0  0  0  0  0
    4.7504    5.6963    2.6078 H   0  0  0  0  0  0  0  0  0  0  0  0
    3.5984    6.3389    3.8270 H   0  0  0  0  0  0  0  0  0  0  0  0
    1.8259    6.4908    2.2474 H   0  0  0  0  0  0  0  0  0  0  0  0
    2.6366    4.9410    1.8283 H   0  0  0  0  0  0  0  0  0  0  0  0
    2.5691    5.9370   -0.1903 H   0  0  0  0  0  0  0  0  0  0  0  0
    4.0389    6.5615    0.3401 H   0  0  0  0  0  0  0  0  0  0  0  0
    2.6480    7.4996    0.4209 H   0  0  0  0  0  0  0  0  0  0  0  0
  1  2  1  0  0  0  0
  1 24  1  0  0  0  0
  1 25  1  0  0  0  0
  1 26  1  0  0  0  0
  2  6  1  0  0  0  0
  2  3  2  0  0  0  0
  3  4  1  0  0  0  0
  3 27  1  0  0  0  0
  4  5  2  0  0  0  0
  4 19  1  0  0  0  0
  5  6  1  0  0  0  0
  6  7  1  0  0  0  0
  7  8  1  0  0  0  0
  7 28  1  0  0  0  0
  7 29  1  0  0  0  0
  8  9  1  0  0  0  0
  8 30  1  0  0  0  0
  8 31  1  0  0  0  0
  9 13  2  0  0  0  0
  9 10  1  0  0  0  0
 10 11  2  0  0  0  0
 11 12  1  0  0  0  0
 11 14  1  0  0  0  0
 12 13  1  0  0  0  0
 14 15  2  0  0  0  0
 14 16  1  0  0  0  0
 16 17  1  0  0  0  0
 16 32  1  0  0  0  0
 17 18  1  0  0  0  0
 17 33  1  0  0  0  0
 17 34  1  0  0  0  0
 18 23  1  0  0  0  0
 18 35  1  0  0  0  0
 18 36  1  0  0  0  0
 19 20  1  0  0  0  0
 19 21  1  0  0  0  0
 19 22  1  0  0  0  0
 23 37  1  0  0  0  0
 23 38  1  0  0  0  0
 23 39  1  0  0  0  0
M  END
> <Name>
ZINC12398420

> <reference>
BDB5025

> <quality>
0.738

> <status>
decoy

> <atoms in reference ligand area>
17

> <score>
-33.1043

$$$$
ZINC20423296
      BALL 1.4.0 (Jan  4 2012, 23:22:29)

 37 37  0999  0  0  0  0  0  0999 V2000
    9.9971   19.2167    2.8380 C   0  0  0  0  0  0  0  0  0  0  0  0
    8.9536   18.3691    2.3535 O   0  0  0  0  0  0  0  0  0  0  0  0
    9.3298   17.2634    1.6570 C   0  0  0  0  0  0  0  0  0  0  0  0
    9.4835   17.3302    0.2799 C   0  0  0  0  0  0  0  0  0  0  0  0
    9.8654   16.2072   -0.4275 C   0  0  0  0  0  0  0  0  0  0  0  0
   10.0954   15.0125    0.2389 C   0  0  0  0  0  0  0  0  0  0  0  0
    9.9421   14.9459    1.6156 C   0  0  0  0  0  0  0  0  0  0  0  0
    9.5553   16.0680    2.3227 C   0  0  0  0  0  0  0  0  0  0  0  0
   10.1912   13.6479    2.3395 C   0  0  0  0  0  0  0  0  0  0  0  0
    8.9668   12.7416    2.1977 C   0  0  0  0  0  0  0  0  0  0  0  0
    9.3946   11.3942    1.6123 C   0  0  0  0  0  0  0  0  0  0  0  0
    8.2294   10.4067    1.7009 C   0  0  0  0  0  0  0  0  0  0  0  0
    6.9423   11.1171    1.3694 C   0  0  0  0  0  0  0  0  0  0  0  0
    6.9485   12.0530    0.6051 O   0  0  0  0  0  0  0  0  0  0  0  0
    5.7893   10.7103    1.9230 O   0  5  0  0  0  0  0  0  0  0  0  0
   10.4369   13.9200    3.7621 N   0  3  0  0  0  0  0  0  0  0  0  0
   10.4714   13.9068   -0.4576 O   0  0  0  0  0  0  0  0  0  0  0  0
   11.8737   13.6997   -0.6383 C   0  0  0  0  0  0  0  0  0  0  0  0
    9.5126   19.9679    3.4792 H   0  0  0  0  0  0  0  0  0  0  0  0
   10.4064   19.7366    1.9593 H   0  0  0  0  0  0  0  0  0  0  0  0
   10.7773   18.6632    3.3811 H   0  0  0  0  0  0  0  0  0  0  0  0
    9.3012   18.2775   -0.2486 H   0  0  0  0  0  0  0  0  0  0  0  0
    9.9872   16.2601   -1.5194 H   0  0  0  0  0  0  0  0  0  0  0  0
    9.4264   16.0131    3.4137 H   0  0  0  0  0  0  0  0  0  0  0  0
   11.0695   13.1483    1.9047 H   0  0  0  0  0  0  0  0  0  0  0  0
    8.5112   12.5832    3.1863 H   0  0  0  0  0  0  0  0  0  0  0  0
    8.2341   13.2155    1.5278 H   0  0  0  0  0  0  0  0  0  0  0  0
    9.6829   11.5268    0.5591 H   0  0  0  0  0  0  0  0  0  0  0  0
   10.2509   11.0017    2.1803 H   0  0  0  0  0  0  0  0  0  0  0  0
    8.1698    9.9986    2.7207 H   0  0  0  0  0  0  0  0  0  0  0  0
    8.3891    9.5859    0.9862 H   0  0  0  0  0  0  0  0  0  0  0  0
   10.7709   13.0622    4.2241 H   0  0  0  0  0  0  0  0  0  0  0  0
    9.5628   14.2319    4.2089 H   0  0  0  0  0  0  0  0  0  0  0  0
   11.1500   14.6577    3.8531 H   0  0  0  0  0  0  0  0  0  0  0  0
   12.1850   12.9916    0.1438 H   0  0  0  0  0  0  0  0  0  0  0  0
   12.3581   14.6653   -0.4313 H   0  0  0  0  0  0  0  0  0  0  0  0
   12.1230   13.3285   -1.6433 H   0  0  0  0  0  0  0  0  0  0  0  0
  1  2  1  0  0  0  0
  1 19  1  0  0  0  0
  1 20  1  0  0  0  0
  1 21  1  0  0  0  0
  2  3  1  0  0  0  0
  3  8  2  0  0  0  0
  3  4  1  0  0  0  0
  4  5  2  0  0  0  0
  4 22  1  0  0  0  0
  5  6  1  0  0  0  0
  5 23  1  0  0  0  0
  6  7  2  0  0  0  0
  6 17  1  0  0  0  0
  7  8  1  0  0  0  0
  7  9  1  0  0  0  0
  8 24  1  0  0  0  0
  9 10  1  0  0  0  0
  9 16  1  0  0  0  0
  9 25  1  0  0  0  0
 10 11  1  0  0  0  0
 10 26  1  0  0  0  0
 10 27  1  0  0  0  0
 11 12  1  0  0  0  0
 11 28  1  0  0  0  0
 11 29  1  0  0  0  0
 12 13  1  0  0  0  0
 12 30  1  0  0  0  0
 12 31  1  0  0  0  0
 13 14  2  0  0  0  0
 13 15  1  0  0  0  0
 16 32  1  0  0  0  0
 16 33  1  0  0  0  0
 16 34  1  0  0  0  0
 17 18  1  0  0  0  0
 18 35  1  0  0  0  0
 18 36  1  0  0  0  0
 18 37  1  0  0  0  0
M  END
> <Name>
ZINC20423296

> <reference>
BDB4995

> <quality>
0.786

> <status>
decoy

> <atoms in reference ligand area>
20

> <score>
-33.0067

$$$$
ZINC02267985
      BALL 1.4.0 (Jan  4 2012, 23:22:29)

 48 49  0999  0  0  0  0  0  0999 V2000
   11.9237    9.6293    1.1808 C   0  0  0  0  0  0  0  0  0  0  0  0
   11.3333   10.6882    2.1142 C   0  0  0  0  0  0  0  0  0  0  0  0
   10.3040   10.0384    3.0473 C   0  0  0  0  0  0  0  0  0  0  0  0
    9.7099   11.1181    3.9568 C   0  0  0  0  0  0  0  0  0  0  0  0
   10.0207   12.8040    2.2407 C   0  0  0  0  0  0  0  0  0  0  0  0
   10.6223   11.7669    1.2876 C   0  0  0  0  0  0  0  0  0  0  0  0
    9.4954   11.1115    0.4835 C   0  0  0  0  0  0  0  0  0  0  0  0
    9.1853    9.4254    2.1995 C   0  0  0  0  0  0  0  0  0  0  0  0
    7.3793    9.9516    0.6759 C   0  0  0  0  0  0  0  0  0  0  0  0
    6.2416    9.6620    1.6568 C   0  0  0  0  0  0  0  0  0  0  0  0
    5.3973   10.8103    1.7596 O   0  0  0  0  0  0  0  0  0  0  0  0
   11.5648   12.4206    0.3763 N   0  0  0  0  0  0  0  0  0  0  0  0
   11.4818   12.2315   -0.8241 O   0  0  0  0  0  0  0  0  0  0  0  0
   12.4314   13.1531    0.8189 O   0  0  0  0  0  0  0  0  0  0  0  0
    8.3651   13.1309    3.9764 C   0  0  0  0  0  0  0  0  0  0  0  0
    7.9314   14.3115    3.1053 C   0  0  0  0  0  0  0  0  0  0  0  0
    8.7828   15.4303    3.3610 O   0  0  0  0  0  0  0  0  0  0  0  0
   10.9344    8.9971    3.8622 N   0  0  0  0  0  0  0  0  0  0  0  0
   11.3057    7.9594    3.3437 O   0  0  0  0  0  0  0  0  0  0  0  0
   11.0873    9.1688    5.0583 O   0  0  0  0  0  0  0  0  0  0  0  0
   12.4500   11.3263    2.9428 C   0  0  0  0  0  0  0  0  0  0  0  0
    9.0368   12.1336    3.1184 N   0  3  0  0  0  0  0  0  0  0  0  0
    8.5302   10.4998    1.4222 N   0  0  0  0  0  0  0  0  0  0  0  0
   11.2149    9.4244    0.3650 H   0  0  0  0  0  0  0  0  0  0  0  0
   12.1068    8.7039    1.7465 H   0  0  0  0  0  0  0  0  0  0  0  0
   12.8716    9.9956    0.7598 H   0  0  0  0  0  0  0  0  0  0  0  0
    8.9784   10.6622    4.6402 H   0  0  0  0  0  0  0  0  0  0  0  0
   10.5135   11.5949    4.5373 H   0  0  0  0  0  0  0  0  0  0  0  0
    9.5184   13.5915    1.6599 H   0  0  0  0  0  0  0  0  0  0  0  0
   10.8190   13.2468    2.8543 H   0  0  0  0  0  0  0  0  0  0  0  0
    8.9853   11.8736   -0.1238 H   0  0  0  0  0  0  0  0  0  0  0  0
    9.9139   10.3334   -0.1719 H   0  0  0  0  0  0  0  0  0  0  0  0
    8.4459    8.9438    2.8564 H   0  0  0  0  0  0  0  0  0  0  0  0
    9.6111    8.6807    1.5109 H   0  0  0  0  0  0  0  0  0  0  0  0
    7.0437   10.6850   -0.0720 H   0  0  0  0  0  0  0  0  0  0  0  0
    7.6777    9.0198    0.1730 H   0  0  0  0  0  0  0  0  0  0  0  0
    6.6603    9.4259    2.6462 H   0  0  0  0  0  0  0  0  0  0  0  0
    5.6534    8.8062    1.2939 H   0  0  0  0  0  0  0  0  0  0  0  0
    5.3847   11.1291    2.6968 H   0  0  0  0  0  0  0  0  0  0  0  0
    9.0637   13.4809    4.7506 H   0  0  0  0  0  0  0  0  0  0  0  0
    7.4821   12.6755    4.4483 H   0  0  0  0  0  0  0  0  0  0  0  0
    8.0046   14.0308    2.0442 H   0  0  0  0  0  0  0  0  0  0  0  0
    6.8917   14.5811    3.3424 H   0  0  0  0  0  0  0  0  0  0  0  0
    9.1045   15.3943    4.2966 H   0  0  0  0  0  0  0  0  0  0  0  0
   12.3717   12.4216    2.8801 H   0  0  0  0  0  0  0  0  0  0  0  0
   13.4261   11.0069    2.5487 H   0  0  0  0  0  0  0  0  0  0  0  0
   12.3570   11.0112    3.9926 H   0  0  0  0  0  0  0  0  0  0  0  0
    8.3318   11.6657    2.5311 H   0  0  0  0  0  0  0  0  0  0  0  0
  1  2  1  0  0  0  0
  1 24  1  0  0  0  0
  1 25  1  0  0  0  0
  1 26  1  0  0  0  0
  2  6  1  0  0  0  0
  2  3  1  0  0  0  0
  2 21  1  0  0  0  0
  3  8  1  0  0  0  0
  3  4  1  0  0  0  0
  3 18  1  0  0  0  0
  4 22  1  0  0  0  0
  4 27  1  0  0  0  0
  4 28  1  0  0  0  0
  5  6  1  0  0  0  0
  5 22  1  0  0  0  0
  5 29  1  0  0  0  0
  5 30  1  0  0  0  0
  6  7  1  0  0  0  0
  6 12  1  0  0  0  0
  7 23  1  0  0  0  0
  7 31  1  0  0  0  0
  7 32  1  0  0  0  0
  8 23  1  0  0  0  0
  8 33  1  0  0  0  0
  8 34  1  0  0  0  0
  9 10  1  0  0  0  0
  9 23  1  0  0  0  0
  9 35  1  0  0  0  0
  9 36  1  0  0  0  0
 10 11  1  0  0  0  0
 10 37  1  0  0  0  0
 10 38  1  0  0  0  0
 11 39  1  0  0  0  0
 12 13  2  0  0  0  0
 12 14  2  0  0  0  0
 15 16  1  0  0  0  0
 15 22  1  0  0  0  0
 15 40  1  0  0  0  0
 15 41  1  0  0  0  0
 16 17  1  0  0  0  0
 16 42  1  0  0  0  0
 16 43  1  0  0  0  0
 17 44  1  0  0  0  0
 18 19  2  0  0  0  0
 18 20  2  0  0  0  0
 21 45  1  0  0  0  0
 21 46  1  0  0  0  0
 21 47  1  0  0  0  0
 22 48  1  0  0  0  0
M  END
> <Name>
ZINC02267985

> <reference>
BDB4934

> <quality>
0.724

> <status>
decoy

> <atoms in reference ligand area>
23

> <score>
-32.9285

$$$$
ZINC05677679
      BALL 1.4.0 (Jan  4 2012, 23:22:29)

 46 47  0999  0  0  0  0  0  0999 V2000
    7.8236   15.0177   -2.2724 C   0  0  0  0  0  0  0  0  0  0  0  0
    8.7105   13.9613   -1.6103 C   0  0  0  0  0  0  0  0  0  0  0  0
    9.0280   12.8752   -2.6371 C   0  0  0  0  0  0  0  0  0  0  0  0
   10.3265   13.2219   -3.4102 C   0  0  0  0  0  0  0  0  0  0  0  0
   11.3354   13.9062   -2.0230 S   0  0  0  0  0  0  0  0  0  0  0  0
   12.1734   14.9404   -2.5206 O   0  0  0  0  0  0  0  0  0  0  0  0
   11.9044   12.8332   -1.2854 O   0  0  0  0  0  0  0  0  0  0  0  0
    9.9661   14.6540   -1.0455 C   0  0  0  0  0  0  0  0  0  0  0  0
    7.9691   13.3563   -0.5010 N   0  0  0  0  0  0  0  0  0  0  0  0
    8.3900   12.1942    0.0364 C   0  0  0  0  0  0  0  0  0  0  0  0
   10.0653   11.8597    0.1479 S   0  0  0  0  0  0  0  0  0  0  0  0
    7.4920   11.2953    0.4860 N   0  0  0  0  0  0  0  0  0  0  0  0
    6.8084   10.4078   -0.4580 C   0  0  0  0  0  0  0  0  0  0  0  0
    5.8493    9.4924    0.3057 C   0  0  0  0  0  0  0  0  0  0  0  0
    4.4190    7.5493    0.1034 C   0  0  0  0  0  0  0  0  0  0  0  0
    4.0078    6.3976   -0.8289 C   0  0  0  0  0  0  0  0  0  0  0  0
    3.3053    5.2846   -0.0145 C   0  0  0  0  0  0  0  0  0  0  0  0
    4.0578    5.4686    1.6535 S   0  0  0  0  0  0  0  0  0  0  0  0
    3.0422    5.8223    2.5824 O   0  0  0  0  0  0  0  0  0  0  0  0
    4.8838    4.3422    1.9148 O   0  0  0  0  0  0  0  0  0  0  0  0
    5.1268    6.9374    1.3460 C   0  0  0  0  0  0  0  0  0  0  0  0
    5.3477    8.4482   -0.6075 N   0  3  0  0  0  0  0  0  0  0  0  0
    7.8262   14.8779   -3.3635 H   0  0  0  0  0  0  0  0  0  0  0  0
    8.1947   16.0241   -2.0281 H   0  0  0  0  0  0  0  0  0  0  0  0
    6.7949   14.9119   -1.8976 H   0  0  0  0  0  0  0  0  0  0  0  0
    8.1933   12.7899   -3.3484 H   0  0  0  0  0  0  0  0  0  0  0  0
    9.1584   11.9127   -2.1206 H   0  0  0  0  0  0  0  0  0  0  0  0
   10.8023   12.3134   -3.8082 H   0  0  0  0  0  0  0  0  0  0  0  0
   10.1417   14.0040   -4.1613 H   0  0  0  0  0  0  0  0  0  0  0  0
   10.0937   14.4127    0.0200 H   0  0  0  0  0  0  0  0  0  0  0  0
    9.9241   15.7375   -1.2306 H   0  0  0  0  0  0  0  0  0  0  0  0
    7.1263   13.8191   -0.1317 H   0  0  0  0  0  0  0  0  0  0  0  0
    7.2864   11.2325    1.4933 H   0  0  0  0  0  0  0  0  0  0  0  0
    6.2407   11.0101   -1.1825 H   0  0  0  0  0  0  0  0  0  0  0  0
    7.5509    9.7962   -0.9915 H   0  0  0  0  0  0  0  0  0  0  0  0
    6.3811    9.0212    1.1453 H   0  0  0  0  0  0  0  0  0  0  0  0
    5.0033   10.0822    0.6885 H   0  0  0  0  0  0  0  0  0  0  0  0
    3.5356    8.1253    0.4162 H   0  0  0  0  0  0  0  0  0  0  0  0
    3.3187    6.7776   -1.5976 H   0  0  0  0  0  0  0  0  0  0  0  0
    4.9025    5.9833   -1.3165 H   0  0  0  0  0  0  0  0  0  0  0  0
    3.5464    4.2932   -0.4257 H   0  0  0  0  0  0  0  0  0  0  0  0
    2.2227    5.4717    0.0412 H   0  0  0  0  0  0  0  0  0  0  0  0
    5.0763    7.6242    2.2037 H   0  0  0  0  0  0  0  0  0  0  0  0
    6.1472    6.6128    1.0945 H   0  0  0  0  0  0  0  0  0  0  0  0
    4.8559    8.8919   -1.3963 H   0  0  0  0  0  0  0  0  0  0  0  0
    6.1412    7.9006   -0.9701 H   0  0  0  0  0  0  0  0  0  0  0  0
  1  2  1  0  0  0  0
  1 23  1  0  0  0  0
  1 24  1  0  0  0  0
  1 25  1  0  0  0  0
  2  8  1  0  0  0  0
  2  3  1  0  0  0  0
  2  9  1  0  0  0  0
  3  4  1  0  0  0  0
  3 26  1  0  0  0  0
  3 27  1  0  0  0  0
  4  5  1  0  0  0  0
  4 28  1  0  0  0  0
  4 29  1  0  0  0  0
  5  6  2  0  0  0  0
  5  7  2  0  0  0  0
  5  8  1  0  0  0  0
  8 30  1  0  0  0  0
  8 31  1  0  0  0  0
  9 10  1  0  0  0  0
  9 32  1  0  0  0  0
 10 11  2  0  0  0  0
 10 12  1  0  0  0  0
 12 13  1  0  0  0  0
 12 33  1  0  0  0  0
 13 14  1  0  0  0  0
 13 34  1  0  0  0  0
 13 35  1  0  0  0  0
 14 22  1  0  0  0  0
 14 36  1  0  0  0  0
 14 37  1  0  0  0  0
 15 21  1  0  0  0  0
 15 16  1  0  0  0  0
 15 22  1  0  0  0  0
 15 38  1  0  0  0  0
 16 17  1  0  0  0  0
 16 39  1  0  0  0  0
 16 40  1  0  0  0  0
 17 18  1  0  0  0  0
 17 41  1  0  0  0  0
 17 42  1  0  0  0  0
 18 19  2  0  0  0  0
 18 20  2  0  0  0  0
 18 21  1  0  0  0  0
 21 43  1  0  0  0  0
 21 44  1  0  0  0  0
 22 45  1  0  0  0  0
 22 46  1  0  0  0  0
M  END
> <Name>
ZINC05677679

> <reference>
BDB4952

> <quality>
0.712

> <status>
decoy

> <atoms in reference ligand area>
19

> <score>
-32.8951

$$$$
ZINC05192440
      BALL 1.4.0 (Jan  4 2012, 23:22:29)

 43 44  0999  0  0  0  0  0  0999 V2000
    8.3788   13.6261    3.5373 C   0  0  0  0  0  0  0  0  0  0  0  0
    8.6396   14.1593    2.1121 C   0  0  0  0  0  0  0  0  0  0  0  0
   10.1059   14.0665    1.6793 C   0  0  0  0  0  0  0  0  0  0  0  0
   11.0324   13.4583    2.7540 C   0  0  0  0  0  0  0  0  0  0  0  0
    9.8272   12.5084    3.7790 S   0  0  0  0  0  0  0  0  0  0  0  0
   12.0697   12.5277    2.1222 C   0  0  0  0  0  0  0  0  0  0  0  0
   11.9897   11.1506    2.7841 C   0  0  0  0  0  0  0  0  0  0  0  0
   13.4023   10.5976    2.9830 C   0  0  0  0  0  0  0  0  0  0  0  0
   13.9333   11.0349    4.3497 C   0  0  0  0  0  0  0  0  0  0  0  0
   15.0658   10.1300    4.7616 C   0  0  0  0  0  0  0  0  0  0  0  0
   15.7707    9.6181    3.9178 O   0  0  0  0  0  0  0  0  0  0  0  0
   15.2954    9.8896    6.0677 N   0  0  0  0  0  0  0  0  0  0  0  0
   16.5870   10.0357    6.5905 N   0  0  0  0  0  0  0  0  0  0  0  0
   16.7561   10.3962    7.8781 C   0  0  0  0  0  0  0  0  0  0  0  0
   15.7901   10.5939    8.5843 O   0  0  0  0  0  0  0  0  0  0  0  0
   18.1454   10.5535    8.4403 C   0  0  0  0  0  0  0  0  0  0  0  0
   19.1064   10.2685    7.4219 O   0  0  0  0  0  0  0  0  0  0  0  0
   18.6500   10.5834    6.0680 N   0  0  0  0  0  0  0  0  0  0  0  0
   10.0772   13.1752    0.5088 N   0  0  0  0  0  0  0  0  0  0  0  0
    8.8121   12.7979    0.2784 C   0  0  0  0  0  0  0  0  0  0  0  0
    8.4962   12.0574   -0.6328 O   0  0  0  0  0  0  0  0  0  0  0  0
    7.9268   13.3114    1.1435 N   0  0  0  0  0  0  0  0  0  0  0  0
    8.4097   14.4455    4.2706 H   0  0  0  0  0  0  0  0  0  0  0  0
    7.4462   13.0439    3.5700 H   0  0  0  0  0  0  0  0  0  0  0  0
    8.3145   15.2101    2.1311 H   0  0  0  0  0  0  0  0  0  0  0  0
   10.5089   15.0711    1.4832 H   0  0  0  0  0  0  0  0  0  0  0  0
   11.6178   14.2000    3.3173 H   0  0  0  0  0  0  0  0  0  0  0  0
   11.8662   12.4288    1.0457 H   0  0  0  0  0  0  0  0  0  0  0  0
   13.0765   12.9460    2.2683 H   0  0  0  0  0  0  0  0  0  0  0  0
   11.4912   11.2413    3.7604 H   0  0  0  0  0  0  0  0  0  0  0  0
   11.4160   10.4664    2.1416 H   0  0  0  0  0  0  0  0  0  0  0  0
   13.3763    9.4990    2.9348 H   0  0  0  0  0  0  0  0  0  0  0  0
   14.0631   10.9839    2.1930 H   0  0  0  0  0  0  0  0  0  0  0  0
   13.1263   10.9734    5.0947 H   0  0  0  0  0  0  0  0  0  0  0  0
   14.2968   12.0713    4.2875 H   0  0  0  0  0  0  0  0  0  0  0  0
   14.5213    9.5984    6.6816 H   0  0  0  0  0  0  0  0  0  0  0  0
   17.4073    9.8677    5.9907 H   0  0  0  0  0  0  0  0  0  0  0  0
   18.2829   11.5856    8.7949 H   0  0  0  0  0  0  0  0  0  0  0  0
   18.2836    9.8559    9.2795 H   0  0  0  0  0  0  0  0  0  0  0  0
   18.7348   11.6020    5.9407 H   0  0  0  0  0  0  0  0  0  0  0  0
   17.6536   10.3294    6.0092 H   0  0  0  0  0  0  0  0  0  0  0  0
   10.8972   12.8877   -0.0441 H   0  0  0  0  0  0  0  0  0  0  0  0
    6.9112   13.1401    1.1324 H   0  0  0  0  0  0  0  0  0  0  0  0
  1  5  1  0  0  0  0
  1  2  1  0  0  0  0
  1 23  1  0  0  0  0
  1 24  1  0  0  0  0
  2 22  1  0  0  0  0
  2  3  1  0  0  0  0
  2 25  1  0  0  0  0
  3  4  1  0  0  0  0
  3 19  1  0  0  0  0
  3 26  1  0  0  0  0
  4  5  1  0  0  0  0
  4  6  1  0  0  0  0
  4 27  1  0  0  0  0
  6  7  1  0  0  0  0
  6 28  1  0  0  0  0
  6 29  1  0  0  0  0
  7  8  1  0  0  0  0
  7 30  1  0  0  0  0
  7 31  1  0  0  0  0
  8  9  1  0  0  0  0
  8 32  1  0  0  0  0
  8 33  1  0  0  0  0
  9 10  1  0  0  0  0
  9 34  1  0  0  0  0
  9 35  1  0  0  0  0
 10 11  2  0  0  0  0
 10 12  1  0  0  0  0
 12 13  1  0  0  0  0
 12 36  1  0  0  0  0
 13 14  1  0  0  0  0
 13 37  1  0  0  0  0
 14 15  2  0  0  0  0
 14 16  1  0  0  0  0
 16 17  1  0  0  0  0
 16 38  1  0  0  0  0
 16 39  1  0  0  0  0
 17 18  1  0  0  0  0
 18 40  1  0  0  0  0
 18 41  1  0  0  0  0
 19 20  1  0  0  0  0
 19 42  1  0  0  0  0
 20 21  2  0  0  0  0
 20 22  1  0  0  0  0
 22 43  1  0  0  0  0
M  END
> <Name>
ZINC05192440

> <reference>
BDB5013

> <quality>
0.720

> <status>
decoy

> <atoms in reference ligand area>
19

> <score>
-32.8596

$$$$
ZINC20306535
      BALL 1.4.0 (Jan  4 2012, 23:22:29)

 33 33  0999  0  0  0  0  0  0999 V2000
    5.3417    8.0991    2.2392 C   0  0  0  0  0  0  0  0  0  0  0  0
    5.7312    9.4022    2.7477 O   0  0  0  0  0  0  0  0  0  0  0  0
    6.0992   10.3277    1.8406 C   0  0  0  0  0  0  0  0  0  0  0  0
    5.2695   10.8150    1.0993 O   0  0  0  0  0  0  0  0  0  0  0  0
    7.5118   10.7498    1.7474 C   0  0  0  0  0  0  0  0  0  0  0  0
    8.2068   11.1318    2.8966 C   0  0  0  0  0  0  0  0  0  0  0  0
    9.5258   11.5245    2.8024 C   0  0  0  0  0  0  0  0  0  0  0  0
   10.1602   11.5402    1.5729 C   0  0  0  0  0  0  0  0  0  0  0  0
    9.4758   11.1679    0.4294 C   0  0  0  0  0  0  0  0  0  0  0  0
    8.1581   10.7680    0.5098 C   0  0  0  0  0  0  0  0  0  0  0  0
   11.6013   11.9708    1.4778 C   0  0  0  0  0  0  0  0  0  0  0  0
   12.1266   12.6787    3.0632 S   0  0  0  0  0  0  0  0  0  0  0  0
   13.6777   11.8154    3.4368 C   0  0  0  0  0  0  0  0  0  0  0  0
   14.1068   12.1351    4.8701 C   0  0  0  0  0  0  0  0  0  0  0  0
   14.8732   10.9679    5.4371 C   0  0  0  0  0  0  0  0  0  0  0  0
   15.0573    9.9817    4.7638 O   0  0  0  0  0  0  0  0  0  0  0  0
   15.3514   11.0240    6.6901 O   0  5  0  0  0  0  0  0  0  0  0  0
   14.9623   13.3293    4.8704 N   0  3  0  0  0  0  0  0  0  0  0  0
    4.2892    8.1883    1.9319 H   0  0  0  0  0  0  0  0  0  0  0  0
    5.3871    7.4071    3.0930 H   0  0  0  0  0  0  0  0  0  0  0  0
    5.9789    7.7605    1.4089 H   0  0  0  0  0  0  0  0  0  0  0  0
    7.7038   11.1197    3.8747 H   0  0  0  0  0  0  0  0  0  0  0  0
   10.0746   11.8258    3.7069 H   0  0  0  0  0  0  0  0  0  0  0  0
    9.9838   11.1909   -0.5461 H   0  0  0  0  0  0  0  0  0  0  0  0
    7.6178   10.4643   -0.3990 H   0  0  0  0  0  0  0  0  0  0  0  0
   12.2295   11.0998    1.2397 H   0  0  0  0  0  0  0  0  0  0  0  0
   11.7077   12.7272    0.6862 H   0  0  0  0  0  0  0  0  0  0  0  0
   13.5280   10.7306    3.3328 H   0  0  0  0  0  0  0  0  0  0  0  0
   14.4602   12.1463    2.7381 H   0  0  0  0  0  0  0  0  0  0  0  0
   13.2153   12.3226    5.4865 H   0  0  0  0  0  0  0  0  0  0  0  0
   15.2518   13.5451    5.8350 H   0  0  0  0  0  0  0  0  0  0  0  0
   14.4393   14.1275    4.4827 H   0  0  0  0  0  0  0  0  0  0  0  0
   15.7973   13.1544    4.2933 H   0  0  0  0  0  0  0  0  0  0  0  0
  1  2  1  0  0  0  0
  1 19  1  0  0  0  0
  1 20  1  0  0  0  0
  1 21  1  0  0  0  0
  2  3  1  0  0  0  0
  3  4  2  0  0  0  0
  3  5  1  0  0  0  0
  5 10  2  0  0  0  0
  5  6  1  0  0  0  0
  6  7  2  0  0  0  0
  6 22  1  0  0  0  0
  7  8  1  0  0  0  0
  7 23  1  0  0  0  0
  8  9  2  0  0  0  0
  8 11  1  0  0  0  0
  9 10  1  0  0  0  0
  9 24  1  0  0  0  0
 10 25  1  0  0  0  0
 11 12  1  0  0  0  0
 11 26  1  0  0  0  0
 11 27  1  0  0  0  0
 12 13  1  0  0  0  0
 13 14  1  0  0  0  0
 13 28  1  0  0  0  0
 13 29  1  0  0  0  0
 14 15  1  0  0  0  0
 14 18  1  0  0  0  0
 14 30  1  0  0  0  0
 15 16  2  0  0  0  0
 15 17  1  0  0  0  0
 18 31  1  0  0  0  0
 18 32  1  0  0  0  0
 18 33  1  0  0  0  0
M  END
> <Name>
ZINC20306535

> <reference>
BDB4995

> <quality>
0.764

> <status>
decoy

> <atoms in reference ligand area>
15

> <score>
-32.8529

$$$$
ZINC01591785
      BALL 1.4.0 (Jan  4 2012, 23:22:29)

 37 37  0999  0  0  0  0  0  0999 V2000
    9.0889   13.6321   -3.2182 C   0  0  0  0  0  0  0  0  0  0  0  0
    9.2675   14.9397   -3.6035 N   0  0  0  0  0  0  0  0  0  0  0  0
    9.0094   13.3135   -1.8831 N   0  0  0  0  0  0  0  0  0  0  0  0
    9.4733   12.0057   -1.4134 C   0  0  0  0  0  0  0  0  0  0  0  0
    9.0570   11.8109    0.0459 C   0  0  0  0  0  0  0  0  0  0  0  0
    7.6779   11.1503    0.0991 C   0  0  0  0  0  0  0  0  0  0  0  0
    7.2618   10.9555    1.5585 C   0  0  0  0  0  0  0  0  0  0  0  0
    5.8546   10.4188    1.6121 C   0  0  0  0  0  0  0  0  0  0  0  0
    5.5141    9.7065    2.5268 O   0  0  0  0  0  0  0  0  0  0  0  0
    8.1717   10.0054    2.2032 N   0  0  0  0  0  0  0  0  0  0  0  0
    8.2670    9.9747    3.4925 C   0  0  0  0  0  0  0  0  0  0  0  0
    9.1838    9.0173    4.1422 C   0  0  0  0  0  0  0  0  0  0  0  0
    9.4526    9.1206    5.5085 C   0  0  0  0  0  0  0  0  0  0  0  0
   10.3062    8.2193    6.1103 C   0  0  0  0  0  0  0  0  0  0  0  0
   10.9043    7.2217    5.3608 C   0  0  0  0  0  0  0  0  0  0  0  0
   10.6465    7.1169    4.0056 C   0  0  0  0  0  0  0  0  0  0  0  0
    9.7905    8.0080    3.3921 C   0  0  0  0  0  0  0  0  0  0  0  0
    8.9859   12.6337   -4.0835 N   0  3  0  0  0  0  0  0  0  0  0  0
    4.9794   10.7321    0.6437 O   0  5  0  0  0  0  0  0  0  0  0  0
    9.7703   15.1554   -4.4762 H   0  0  0  0  0  0  0  0  0  0  0  0
    8.8985   15.7037   -3.0194 H   0  0  0  0  0  0  0  0  0  0  0  0
    8.6236   13.9942   -1.2133 H   0  0  0  0  0  0  0  0  0  0  0  0
    9.0246   11.2137   -2.0310 H   0  0  0  0  0  0  0  0  0  0  0  0
   10.5694   11.9546   -1.4911 H   0  0  0  0  0  0  0  0  0  0  0  0
    9.7908   11.1679    0.5540 H   0  0  0  0  0  0  0  0  0  0  0  0
    9.0145   12.7877    0.5498 H   0  0  0  0  0  0  0  0  0  0  0  0
    7.7187   10.1727   -0.4034 H   0  0  0  0  0  0  0  0  0  0  0  0
    6.9435   11.7931   -0.4083 H   0  0  0  0  0  0  0  0  0  0  0  0
    7.3065   11.9205    2.0845 H   0  0  0  0  0  0  0  0  0  0  0  0
    7.6650   10.6620    4.1050 H   0  0  0  0  0  0  0  0  0  0  0  0
    8.9848    9.9187    6.1036 H   0  0  0  0  0  0  0  0  0  0  0  0
   10.5118    8.2939    7.1883 H   0  0  0  0  0  0  0  0  0  0  0  0
   11.5879    6.5085    5.8448 H   0  0  0  0  0  0  0  0  0  0  0  0
   11.1251    6.3212    3.4159 H   0  0  0  0  0  0  0  0  0  0  0  0
    9.5864    7.9235    2.3145 H   0  0  0  0  0  0  0  0  0  0  0  0
    9.0437   12.8588   -5.0869 H   0  0  0  0  0  0  0  0  0  0  0  0
    8.8523   11.6614   -3.7708 H   0  0  0  0  0  0  0  0  0  0  0  0
  1  2  1  0  0  0  0
  1  3  1  0  0  0  0
  1 18  2  0  0  0  0
  2 20  1  0  0  0  0
  2 21  1  0  0  0  0
  3  4  1  0  0  0  0
  3 22  1  0  0  0  0
  4  5  1  0  0  0  0
  4 23  1  0  0  0  0
  4 24  1  0  0  0  0
  5  6  1  0  0  0  0
  5 25  1  0  0  0  0
  5 26  1  0  0  0  0
  6  7  1  0  0  0  0
  6 27  1  0  0  0  0
  6 28  1  0  0  0  0
  7  8  1  0  0  0  0
  7 10  1  0  0  0  0
  7 29  1  0  0  0  0
  8  9  2  0  0  0  0
  8 19  1  0  0  0  0
 10 11  2  0  0  0  0
 11 12  1  0  0  0  0
 11 30  1  0  0  0  0
 12 17  2  0  0  0  0
 12 13  1  0  0  0  0
 13 14  2  0  0  0  0
 13 31  1  0  0  0  0
 14 15  1  0  0  0  0
 14 32  1  0  0  0  0
 15 16  2  0  0  0  0
 15 33  1  0  0  0  0
 16 17  1  0  0  0  0
 16 34  1  0  0  0  0
 17 35  1  0  0  0  0
 18 36  1  0  0  0  0
 18 37  1  0  0  0  0
M  END
> <Name>
ZINC01591785

> <reference>
BDB4986

> <quality>
0.745

> <status>
decoy

> <atoms in reference ligand area>
18

> <score>
-32.8228

$$$$
ZINC28090587
      BALL 1.4.0 (Jan  4 2012, 23:22:29)

 52 52  0999  0  0  0  0  0  0999 V2000
    9.5212   16.6019    2.8788 C   0  0  0  0  0  0  0  0  0  0  0  0
   10.2225   15.5972    1.9623 C   0  0  0  0  0  0  0  0  0  0  0  0
    9.9674   14.1775    2.4719 C   0  0  0  0  0  0  0  0  0  0  0  0
   10.1644   14.1369    3.9886 C   0  0  0  0  0  0  0  0  0  0  0  0
    8.5340   13.7636    2.1326 C   0  0  0  0  0  0  0  0  0  0  0  0
    8.3569   12.2929    2.4096 C   0  0  0  0  0  0  0  0  0  0  0  0
    9.2156   11.6817    3.0001 O   0  0  0  0  0  0  0  0  0  0  0  0
    7.2450   11.6619    2.0004 O   0  0  0  0  0  0  0  0  0  0  0  0
    7.2351   10.2133    2.0987 C   0  0  0  0  0  0  0  0  0  0  0  0
    5.8213    9.6937    1.8295 C   0  0  0  0  0  0  0  0  0  0  0  0
    5.7653    9.1021    0.4904 N   0  0  0  0  0  0  0  0  0  0  0  0
    6.4848    7.9973    0.2111 C   0  0  0  0  0  0  0  0  0  0  0  0
    7.3134    7.5974    1.0014 O   0  0  0  0  0  0  0  0  0  0  0  0
    6.2643    7.2624   -1.0860 C   0  0  0  0  0  0  0  0  0  0  0  0
    7.3477    6.2311   -1.2694 C   0  0  0  0  0  0  0  0  0  0  0  0
    7.1728    4.9517   -0.7755 C   0  0  0  0  0  0  0  0  0  0  0  0
    8.1613    4.0004   -0.9462 C   0  0  0  0  0  0  0  0  0  0  0  0
    9.3353    4.3315   -1.6035 C   0  0  0  0  0  0  0  0  0  0  0  0
    9.5137    5.6208   -2.0955 C   0  0  0  0  0  0  0  0  0  0  0  0
    8.5166    6.5680   -1.9261 C   0  0  0  0  0  0  0  0  0  0  0  0
   10.6640    5.9505   -2.7417 O   0  0  0  0  0  0  0  0  0  0  0  0
   10.3109    3.3983   -1.7677 O   0  0  0  0  0  0  0  0  0  0  0  0
   10.8378    3.2359   -3.0860 C   0  0  0  0  0  0  0  0  0  0  0  0
    4.9550    9.6911   -0.5104 O   0  0  0  0  0  0  0  0  0  0  0  0
    7.5937   14.5340    2.9573 N   0  3  0  0  0  0  0  0  0  0  0  0
    9.2308   17.4895    2.2975 H   0  0  0  0  0  0  0  0  0  0  0  0
   10.2045   16.9012    3.6874 H   0  0  0  0  0  0  0  0  0  0  0  0
    8.6226   16.1386    3.3123 H   0  0  0  0  0  0  0  0  0  0  0  0
   11.3044   15.7958    1.9585 H   0  0  0  0  0  0  0  0  0  0  0  0
    9.8280   15.6957    0.9402 H   0  0  0  0  0  0  0  0  0  0  0  0
   10.6729   13.4833    1.9918 H   0  0  0  0  0  0  0  0  0  0  0  0
   11.2321   14.2580    4.2241 H   0  0  0  0  0  0  0  0  0  0  0  0
    9.8104   13.1716    4.3797 H   0  0  0  0  0  0  0  0  0  0  0  0
    9.5923   14.9523    4.4553 H   0  0  0  0  0  0  0  0  0  0  0  0
    8.3369   13.9626    1.0689 H   0  0  0  0  0  0  0  0  0  0  0  0
    7.5500    9.9111    3.1084 H   0  0  0  0  0  0  0  0  0  0  0  0
    7.9281    9.7905    1.3564 H   0  0  0  0  0  0  0  0  0  0  0  0
    5.1053   10.5264    1.8919 H   0  0  0  0  0  0  0  0  0  0  0  0
    5.5624    8.9304    2.5781 H   0  0  0  0  0  0  0  0  0  0  0  0
    6.2931    7.9761   -1.9226 H   0  0  0  0  0  0  0  0  0  0  0  0
    5.2841    6.7636   -1.0629 H   0  0  0  0  0  0  0  0  0  0  0  0
    6.2450    4.6901   -0.2456 H   0  0  0  0  0  0  0  0  0  0  0  0
    8.0158    2.9807   -0.5601 H   0  0  0  0  0  0  0  0  0  0  0  0
    8.6551    7.5879   -2.3140 H   0  0  0  0  0  0  0  0  0  0  0  0
   10.3897    6.6066   -3.4305 H   0  0  0  0  0  0  0  0  0  0  0  0
   11.0506    4.2479   -3.4609 H   0  0  0  0  0  0  0  0  0  0  0  0
   10.0240    2.8149   -3.6946 H   0  0  0  0  0  0  0  0  0  0  0  0
   11.7337    2.5981   -3.1106 H   0  0  0  0  0  0  0  0  0  0  0  0
    4.0292    9.6030   -0.1709 H   0  0  0  0  0  0  0  0  0  0  0  0
    7.0840   15.2038    2.3636 H   0  0  0  0  0  0  0  0  0  0  0  0
    8.1132   15.0464    3.6842 H   0  0  0  0  0  0  0  0  0  0  0  0
    6.9227   13.8927    3.4039 H   0  0  0  0  0  0  0  0  0  0  0  0
  1  2  1  0  0  0  0
  1 26  1  0  0  0  0
  1 27  1  0  0  0  0
  1 28  1  0  0  0  0
  2  3  1  0  0  0  0
  2 29  1  0  0  0  0
  2 30  1  0  0  0  0
  3  4  1  0  0  0  0
  3  5  1  0  0  0  0
  3 31  1  0  0  0  0
  4 32  1  0  0  0  0
  4 33  1  0  0  0  0
  4 34  1  0  0  0  0
  5  6  1  0  0  0  0
  5 25  1  0  0  0  0
  5 35  1  0  0  0  0
  6  7  2  0  0  0  0
  6  8  1  0  0  0  0
  8  9  1  0  0  0  0
  9 10  1  0  0  0  0
  9 36  1  0  0  0  0
  9 37  1  0  0  0  0
 10 11  1  0  0  0  0
 10 38  1  0  0  0  0
 10 39  1  0  0  0  0
 11 12  1  0  0  0  0
 11 24  1  0  0  0  0
 12 13  2  0  0  0  0
 12 14  1  0  0  0  0
 14 15  1  0  0  0  0
 14 40  1  0  0  0  0
 14 41  1  0  0  0  0
 15 20  2  0  0  0  0
 15 16  1  0  0  0  0
 16 17  2  0  0  0  0
 16 42  1  0  0  0  0
 17 18  1  0  0  0  0
 17 43  1  0  0  0  0
 18 19  2  0  0  0  0
 18 22  1  0  0  0  0
 19 20  1  0  0  0  0
 19 21  1  0  0  0  0
 20 44  1  0  0  0  0
 21 45  1  0  0  0  0
 22 23  1  0  0  0  0
 23 46  1  0  0  0  0
 23 47  1  0  0  0  0
 23 48  1  0  0  0  0
 24 49  1  0  0  0  0
 25 50  1  0  0  0  0
 25 51  1  0  0  0  0
 25 52  1  0  0  0  0
M  END
> <Name>
ZINC28090587

> <reference>
BDB4997

> <quality>
0.660

> <status>
decoy

> <atoms in reference ligand area>
13

> <score>
-32.7847

$$$$
ZINC32036344
      BALL 1.4.0 (Jan  4 2012, 23:22:29)

 41 43  0999  0  0  0  0  0  0999 V2000
   10.0107    8.6270    2.3392 C   0  0  0  0  0  0  0  0  0  0  0  0
    9.8722    9.8728    2.6870 N   0  0  0  0  0  0  0  0  0  0  0  0
    8.6334   10.3026    2.3420 C   0  0  0  0  0  0  0  0  0  0  0  0
    7.9738    9.2207    1.7355 C   0  0  0  0  0  0  0  0  0  0  0  0
    8.8659    8.1786    1.7475 N   0  0  0  0  0  0  0  0  0  0  0  0
    8.6325    6.8314    1.2210 C   0  0  0  0  0  0  0  0  0  0  0  0
    7.1802    6.7106    0.7551 C   0  0  0  0  0  0  0  0  0  0  0  0
    7.1311    5.9640   -0.4624 O   0  0  0  0  0  0  0  0  0  0  0  0
    5.8103    5.5981   -0.8670 C   0  0  0  0  0  0  0  0  0  0  0  0
    5.0611    6.9688   -1.8068 P   0  0  0  0  0  0  0  0  0  0  0  0
    5.9983    7.4135   -2.8624 O   0  0  0  0  0  0  0  0  0  0  0  0
    3.6887    6.4683   -2.4837 O   0  5  0  0  0  0  0  0  0  0  0  0
    4.7523    8.1962   -0.8116 O   0  0  0  0  0  0  0  0  0  0  0  0
    6.7281    9.3828    1.3010 N   0  0  0  0  0  0  0  0  0  0  0  0
    6.1140   10.5469    1.4364 C   0  0  0  0  0  0  0  0  0  0  0  0
    6.6990   11.5946    2.0028 N   0  0  0  0  0  0  0  0  0  0  0  0
    7.9424   11.5203    2.4646 C   0  0  0  0  0  0  0  0  0  0  0  0
    8.5461   12.6198    3.0487 N   0  0  0  0  0  0  0  0  0  0  0  0
    9.9523   12.7602    2.5915 C   0  0  0  0  0  0  0  0  0  0  0  0
   10.2758   14.2456    2.8910 C   0  0  0  0  0  0  0  0  0  0  0  0
    8.9481   14.9629    2.5557 C   0  0  0  0  0  0  0  0  0  0  0  0
    7.8659   13.8715    2.6511 C   0  0  0  0  0  0  0  0  0  0  0  0
    4.8160   10.6766    0.9705 N   0  0  0  0  0  0  0  0  0  0  0  0
   10.9169    8.0241    2.4985 H   0  0  0  0  0  0  0  0  0  0  0  0
    9.3061    6.6480    0.3709 H   0  0  0  0  0  0  0  0  0  0  0  0
    8.8267    6.0896    2.0096 H   0  0  0  0  0  0  0  0  0  0  0  0
    6.5896    6.1936    1.5257 H   0  0  0  0  0  0  0  0  0  0  0  0
    6.7635    7.7145    0.5858 H   0  0  0  0  0  0  0  0  0  0  0  0
    5.8565    4.7011   -1.5020 H   0  0  0  0  0  0  0  0  0  0  0  0
    5.1984    5.3869    0.0223 H   0  0  0  0  0  0  0  0  0  0  0  0
    4.4977    8.9942   -1.3393 H   0  0  0  0  0  0  0  0  0  0  0  0
   10.6120   12.1033    3.1773 H   0  0  0  0  0  0  0  0  0  0  0  0
   10.0249   12.5675    1.5109 H   0  0  0  0  0  0  0  0  0  0  0  0
   11.0786   14.6026    2.2293 H   0  0  0  0  0  0  0  0  0  0  0  0
   10.5198   14.3751    3.9557 H   0  0  0  0  0  0  0  0  0  0  0  0
    8.9851   15.3672    1.5333 H   0  0  0  0  0  0  0  0  0  0  0  0
    8.7506   15.7540    3.2941 H   0  0  0  0  0  0  0  0  0  0  0  0
    7.1226   14.1513    3.4121 H   0  0  0  0  0  0  0  0  0  0  0  0
    7.3842   13.7393    1.6710 H   0  0  0  0  0  0  0  0  0  0  0  0
    4.0929    9.9888    1.2256 H   0  0  0  0  0  0  0  0  0  0  0  0
    4.5732   11.4711    0.3617 H   0  0  0  0  0  0  0  0  0  0  0  0
  1  5  1  0  0  0  0
  1  2  2  0  0  0  0
  1 24  1  0  0  0  0
  2  3  1  0  0  0  0
  3 17  2  0  0  0  0
  3  4  1  0  0  0  0
  4  5  1  0  0  0  0
  4 14  2  0  0  0  0
  5  6  1  0  0  0  0
  6  7  1  0  0  0  0
  6 25  1  0  0  0  0
  6 26  1  0  0  0  0
  7  8  1  0  0  0  0
  7 27  1  0  0  0  0
  7 28  1  0  0  0  0
  8  9  1  0  0  0  0
  9 10  1  0  0  0  0
  9 29  1  0  0  0  0
  9 30  1  0  0  0  0
 10 11  2  0  0  0  0
 10 12  1  0  0  0  0
 10 13  1  0  0  0  0
 13 31  1  0  0  0  0
 14 15  1  0  0  0  0
 15 16  2  0  0  0  0
 15 23  1  0  0  0  0
 16 17  1  0  0  0  0
 17 18  1  0  0  0  0
 18 22  1  0  0  0  0
 18 19  1  0  0  0  0
 19 20  1  0  0  0  0
 19 32  1  0  0  0  0
 19 33  1  0  0  0  0
 20 21  1  0  0  0  0
 20 34  1  0  0  0  0
 20 35  1  0  0  0  0
 21 22  1  0  0  0  0
 21 36  1  0  0  0  0
 21 37  1  0  0  0  0
 22 38  1  0  0  0  0
 22 39  1  0  0  0  0
 23 40  1  0  0  0  0
 23 41  1  0  0  0  0
M  END
> <Name>
ZINC32036344

> <reference>
BDB4942

> <quality>
0.650

> <status>
decoy

> <atoms in reference ligand area>
15

> <score>
-32.7778

$$$$
ZINC29823259
      BALL 1.4.0 (Jan  4 2012, 23:22:29)

 42 43  0999  0  0  0  0  0  0999 V2000
    9.3217   15.4945    1.3693 C   0  0  0  0  0  0  0  0  0  0  0  0
    9.6111   15.3223   -0.0564 N   0  0  0  0  0  0  0  0  0  0  0  0
   10.4660   16.0729   -0.8052 C   0  0  0  0  0  0  0  0  0  0  0  0
   10.4548   15.6227   -2.0289 N   0  0  0  0  0  0  0  0  0  0  0  0
    9.6119   14.5813   -2.1132 C   0  0  0  0  0  0  0  0  0  0  0  0
    9.0749   14.3742   -0.8874 C   0  0  0  0  0  0  0  0  0  0  0  0
    8.1495   13.3891   -0.5393 N   0  0  0  0  0  0  0  0  0  0  0  0
    7.9097   12.4716   -1.6621 C   0  0  0  0  0  0  0  0  0  0  0  0
    6.8335   11.4573   -1.2676 C   0  0  0  0  0  0  0  0  0  0  0  0
    7.2721   10.7209   -0.0739 N   0  0  0  0  0  0  0  0  0  0  0  0
    7.5119   11.6384    1.0487 C   0  0  0  0  0  0  0  0  0  0  0  0
    8.5881   12.6526    0.6543 C   0  0  0  0  0  0  0  0  0  0  0  0
    6.2981    9.6840    0.2924 C   0  0  0  0  0  0  0  0  0  0  0  0
    5.8868    8.9058   -0.9591 C   0  0  0  0  0  0  0  0  0  0  0  0
    4.8876    7.8421   -0.5834 C   0  0  0  0  0  0  0  0  0  0  0  0
    5.0305    7.2113    0.4420 O   0  0  0  0  0  0  0  0  0  0  0  0
    3.8350    7.5921   -1.3872 N   0  0  0  0  0  0  0  0  0  0  0  0
    2.9415    6.6407   -1.0512 C   0  0  0  0  0  0  0  0  0  0  0  0
    3.3248    5.5316   -0.7350 O   0  0  0  0  0  0  0  0  0  0  0  0
    1.6230    6.9194   -1.0657 N   0  0  0  0  0  0  0  0  0  0  0  0
    9.3208   13.7952   -3.3340 N   0  0  0  0  0  0  0  0  0  0  0  0
    9.9479   12.7773   -3.5667 O   0  0  0  0  0  0  0  0  0  0  0  0
    8.4546   14.1667   -4.1054 O   0  0  0  0  0  0  0  0  0  0  0  0
    8.5235   14.7566    1.5373 H   0  0  0  0  0  0  0  0  0  0  0  0
    8.8275   16.4770    1.3913 H   0  0  0  0  0  0  0  0  0  0  0  0
   10.1703   15.4035    2.0633 H   0  0  0  0  0  0  0  0  0  0  0  0
   11.0664   16.9185   -0.4385 H   0  0  0  0  0  0  0  0  0  0  0  0
    7.5703   13.0441   -2.5379 H   0  0  0  0  0  0  0  0  0  0  0  0
    8.8409   11.9403   -1.9086 H   0  0  0  0  0  0  0  0  0  0  0  0
    6.6727   10.7508   -2.0952 H   0  0  0  0  0  0  0  0  0  0  0  0
    5.8942   11.9857   -1.0477 H   0  0  0  0  0  0  0  0  0  0  0  0
    7.8511   11.0668    1.9252 H   0  0  0  0  0  0  0  0  0  0  0  0
    6.5804   12.1694    1.2943 H   0  0  0  0  0  0  0  0  0  0  0  0
    8.7483   13.3575    1.4835 H   0  0  0  0  0  0  0  0  0  0  0  0
    9.5272   12.1237    0.4349 H   0  0  0  0  0  0  0  0  0  0  0  0
    6.7521    8.9946    1.0195 H   0  0  0  0  0  0  0  0  0  0  0  0
    5.4099   10.1550    0.7388 H   0  0  0  0  0  0  0  0  0  0  0  0
    6.7737    8.4332   -1.4062 H   0  0  0  0  0  0  0  0  0  0  0  0
    5.4323    9.5946   -1.6864 H   0  0  0  0  0  0  0  0  0  0  0  0
    3.7135    8.1282   -2.2583 H   0  0  0  0  0  0  0  0  0  0  0  0
    0.9529    6.2212   -1.4182 H   0  0  0  0  0  0  0  0  0  0  0  0
    1.2854    7.8306   -0.7242 H   0  0  0  0  0  0  0  0  0  0  0  0
  1  2  1  0  0  0  0
  1 24  1  0  0  0  0
  1 25  1  0  0  0  0
  1 26  1  0  0  0  0
  2  6  1  0  0  0  0
  2  3  1  0  0  0  0
  3  4  2  0  0  0  0
  3 27  1  0  0  0  0
  4  5  1  0  0  0  0
  5  6  2  0  0  0  0
  5 21  1  0  0  0  0
  6  7  1  0  0  0  0
  7 12  1  0  0  0  0
  7  8  1  0  0  0  0
  8  9  1  0  0  0  0
  8 28  1  0  0  0  0
  8 29  1  0  0  0  0
  9 10  1  0  0  0  0
  9 30  1  0  0  0  0
  9 31  1  0  0  0  0
 10 11  1  0  0  0  0
 10 13  1  0  0  0  0
 11 12  1  0  0  0  0
 11 32  1  0  0  0  0
 11 33  1  0  0  0  0
 12 34  1  0  0  0  0
 12 35  1  0  0  0  0
 13 14  1  0  0  0  0
 13 36  1  0  0  0  0
 13 37  1  0  0  0  0
 14 15  1  0  0  0  0
 14 38  1  0  0  0  0
 14 39  1  0  0  0  0
 15 16  2  0  0  0  0
 15 17  1  0  0  0  0
 17 18  1  0  0  0  0
 17 40  1  0  0  0  0
 18 19  2  0  0  0  0
 18 20  1  0  0  0  0
 20 41  1  0  0  0  0
 20 42  1  0  0  0  0
 21 22  2  0  0  0  0
 21 23  2  0  0  0  0
M  END
> <Name>
ZINC29823259

> <reference>
BDB4932

> <quality>
0.687

> <status>
decoy

> <atoms in reference ligand area>
20

> <score>
-32.6075

$$$$
ZINC02441083
      BALL 1.4.0 (Jan  4 2012, 23:22:29)

 61 64  0999  0  0  0  0  0  0999 V2000
   16.3894   10.4747    8.9760 C   0  0  0  0  0  0  0  0  0  0  0  0
   15.6861    9.1218    8.8490 C   0  0  0  0  0  0  0  0  0  0  0  0
   15.6363    8.7158    7.3986 C   0  0  0  0  0  0  0  0  0  0  0  0
   15.8536    7.3975    7.0431 C   0  0  0  0  0  0  0  0  0  0  0  0
   15.8085    7.0227    5.7142 C   0  0  0  0  0  0  0  0  0  0  0  0
   15.5447    7.9704    4.7361 C   0  0  0  0  0  0  0  0  0  0  0  0
   15.3327    9.2936    5.0948 C   0  0  0  0  0  0  0  0  0  0  0  0
   15.3737    9.6624    6.4255 C   0  0  0  0  0  0  0  0  0  0  0  0
   15.4998    7.6042    3.4281 O   0  0  0  0  0  0  0  0  0  0  0  0
   15.2231    8.6329    2.4755 C   0  0  0  0  0  0  0  0  0  0  0  0
   13.7407    8.9016    2.4427 C   0  0  0  0  0  0  0  0  0  0  0  0
   12.8957    7.9967    2.9002 C   0  0  0  0  0  0  0  0  0  0  0  0
   13.2634   10.1016    1.9309 N   0  3  0  0  0  0  0  0  0  0  0  0
   11.8911   10.2705    1.7051 N   0  0  0  0  0  0  0  0  0  0  0  0
   11.4365   11.3728    1.0098 C   0  0  0  0  0  0  0  0  0  0  0  0
   12.1965   12.3197    0.5183 N   0  0  0  0  0  0  0  0  0  0  0  0
   11.4202   13.2444   -0.1008 C   0  0  0  0  0  0  0  0  0  0  0  0
   11.6741   14.4427   -0.7877 C   0  0  0  0  0  0  0  0  0  0  0  0
   10.6434   15.1200   -1.2830 N   0  0  0  0  0  0  0  0  0  0  0  0
    9.4056   14.6836   -1.1375 C   0  0  0  0  0  0  0  0  0  0  0  0
    9.1209   13.5662   -0.5018 N   0  0  0  0  0  0  0  0  0  0  0  0
   10.0869   12.8229    0.0268 C   0  0  0  0  0  0  0  0  0  0  0  0
   10.1248   11.6410    0.7306 N   0  0  0  0  0  0  0  0  0  0  0  0
    8.9720   10.8211    1.1113 C   0  0  0  0  0  0  0  0  0  0  0  0
    8.2687   11.4140    2.3588 C   0  0  0  0  0  0  0  0  0  0  0  0
    7.5668   10.1705    2.9570 C   0  0  0  0  0  0  0  0  0  0  0  0
    8.3404    8.9777    2.3624 C   0  0  0  0  0  0  0  0  0  0  0  0
    9.4009    9.5158    1.5549 O   0  0  0  0  0  0  0  0  0  0  0  0
    8.9262    8.1239    3.4889 C   0  0  0  0  0  0  0  0  0  0  0  0
    8.6615    8.7483    4.7467 O   0  0  0  0  0  0  0  0  0  0  0  0
    6.1955   10.1264    2.5577 O   0  0  0  0  0  0  0  0  0  0  0  0
    7.3128   12.4070    1.9816 O   0  0  0  0  0  0  0  0  0  0  0  0
   12.9696   14.9084   -0.9454 N   0  0  0  0  0  0  0  0  0  0  0  0
   16.7461   10.6082   10.0079 H   0  0  0  0  0  0  0  0  0  0  0  0
   15.6841   11.2807    8.7253 H   0  0  0  0  0  0  0  0  0  0  0  0
   17.2452   10.5100    8.2859 H   0  0  0  0  0  0  0  0  0  0  0  0
   16.2411    8.3647    9.4222 H   0  0  0  0  0  0  0  0  0  0  0  0
   14.6619    9.2015    9.2420 H   0  0  0  0  0  0  0  0  0  0  0  0
   16.0626    6.6464    7.8191 H   0  0  0  0  0  0  0  0  0  0  0  0
   15.9815    5.9737    5.4320 H   0  0  0  0  0  0  0  0  0  0  0  0
   15.1320   10.0485    4.3204 H   0  0  0  0  0  0  0  0  0  0  0  0
   15.1973   10.7099    6.7112 H   0  0  0  0  0  0  0  0  0  0  0  0
   15.5588    8.3110    1.4786 H   0  0  0  0  0  0  0  0  0  0  0  0
   15.7554    9.5516    2.7627 H   0  0  0  0  0  0  0  0  0  0  0  0
   13.2735    7.0465    3.3055 H   0  0  0  0  0  0  0  0  0  0  0  0
   11.8136    8.1929    2.8762 H   0  0  0  0  0  0  0  0  0  0  0  0
   13.5720   10.8554    2.5613 H   0  0  0  0  0  0  0  0  0  0  0  0
   13.7510   10.2793    1.0411 H   0  0  0  0  0  0  0  0  0  0  0  0
   11.2214    9.5721    2.0581 H   0  0  0  0  0  0  0  0  0  0  0  0
    8.5818   15.2755   -1.5630 H   0  0  0  0  0  0  0  0  0  0  0  0
    8.3184   10.7815    0.2275 H   0  0  0  0  0  0  0  0  0  0  0  0
    8.9534   11.9167    3.0577 H   0  0  0  0  0  0  0  0  0  0  0  0
    7.5714   10.1723    4.0570 H   0  0  0  0  0  0  0  0  0  0  0  0
    7.6748    8.3424    1.7596 H   0  0  0  0  0  0  0  0  0  0  0  0
   10.0131    8.0272    3.3499 H   0  0  0  0  0  0  0  0  0  0  0  0
    8.4640    7.1259    3.4711 H   0  0  0  0  0  0  0  0  0  0  0  0
    7.7960    8.4242    5.1013 H   0  0  0  0  0  0  0  0  0  0  0  0
    5.7020   10.8503    3.0186 H   0  0  0  0  0  0  0  0  0  0  0  0
    6.5761   12.4098    2.6428 H   0  0  0  0  0  0  0  0  0  0  0  0
   13.5660   14.5060   -1.6825 H   0  0  0  0  0  0  0  0  0  0  0  0
   13.3348   15.6505   -0.3316 H   0  0  0  0  0  0  0  0  0  0  0  0
  1  2  1  0  0  0  0
  1 34  1  0  0  0  0
  1 35  1  0  0  0  0
  1 36  1  0  0  0  0
  2  3  1  0  0  0  0
  2 37  1  0  0  0  0
  2 38  1  0  0  0  0
  3  8  2  0  0  0  0
  3  4  1  0  0  0  0
  4  5  2  0  0  0  0
  4 39  1  0  0  0  0
  5  6  1  0  0  0  0
  5 40  1  0  0  0  0
  6  7  2  0  0  0  0
  6  9  1  0  0  0  0
  7  8  1  0  0  0  0
  7 41  1  0  0  0  0
  8 42  1  0  0  0  0
  9 10  1  0  0  0  0
 10 11  1  0  0  0  0
 10 43  1  0  0  0  0
 10 44  1  0  0  0  0
 11 12  2  0  0  0  0
 11 13  1  0  0  0  0
 12 45  1  0  0  0  0
 12 46  1  0  0  0  0
 13 14  1  0  0  0  0
 13 47  1  0  0  0  0
 13 48  1  0  0  0  0
 14 15  1  0  0  0  0
 14 49  1  0  0  0  0
 15 23  1  0  0  0  0
 15 16  2  0  0  0  0
 16 17  1  0  0  0  0
 17 22  1  0  0  0  0
 17 18  2  0  0  0  0
 18 19  1  0  0  0  0
 18 33  1  0  0  0  0
 19 20  2  0  0  0  0
 20 21  1  0  0  0  0
 20 50  1  0  0  0  0
 21 22  2  0  0  0  0
 22 23  1  0  0  0  0
 23 24  1  0  0  0  0
 24 28  1  0  0  0  0
 24 25  1  0  0  0  0
 24 51  1  0  0  0  0
 25 26  1  0  0  0  0
 25 32  1  0  0  0  0
 25 52  1  0  0  0  0
 26 27  1  0  0  0  0
 26 31  1  0  0  0  0
 26 53  1  0  0  0  0
 27 28  1  0  0  0  0
 27 29  1  0  0  0  0
 27 54  1  0  0  0  0
 29 30  1  0  0  0  0
 29 55  1  0  0  0  0
 29 56  1  0  0  0  0
 30 57  1  0  0  0  0
 31 58  1  0  0  0  0
 32 59  1  0  0  0  0
 33 60  1  0  0  0  0
 33 61  1  0  0  0  0
M  END
> <Name>
ZINC02441083

> <reference>
BDB4972

> <quality>
0.685

> <status>
decoy

> <atoms in reference ligand area>
15

> <score>
-32.5715

$$$$
ZINC30924904
      BALL 1.4.0 (Jan  4 2012, 23:22:29)

 52 53  0999  0  0  0  0  0  0999 V2000
    4.2163    6.8518   -1.5151 C   0  0  0  0  0  0  0  0  0  0  0  0
    3.4220    6.1442   -0.4477 C   0  0  0  0  0  0  0  0  0  0  0  0
    4.0380    5.7506    0.7255 C   0  0  0  0  0  0  0  0  0  0  0  0
    3.3094    5.1016    1.7047 C   0  0  0  0  0  0  0  0  0  0  0  0
    1.9646    4.8470    1.5110 C   0  0  0  0  0  0  0  0  0  0  0  0
    1.3497    5.2362    0.3358 C   0  0  0  0  0  0  0  0  0  0  0  0
    2.0773    5.8892   -0.6416 C   0  0  0  0  0  0  0  0  0  0  0  0
    1.0359    4.0196    2.7591 S   0  0  0  0  0  0  0  0  0  0  0  0
    1.9199    3.0946    3.3770 O   0  0  0  0  0  0  0  0  0  0  0  0
   -0.1871    3.6188    2.1567 O   0  0  0  0  0  0  0  0  0  0  0  0
    0.6498    5.1463    3.9098 N   0  0  0  0  0  0  0  0  0  0  0  0
    0.7890    6.5741    3.6127 C   0  0  0  0  0  0  0  0  0  0  0  0
    1.8542    7.1697    4.4969 C   0  0  0  0  0  0  0  0  0  0  0  0
    1.6960    8.2711    4.9790 O   0  0  0  0  0  0  0  0  0  0  0  0
    2.9826    6.4781    4.7516 N   0  0  0  0  0  0  0  0  0  0  0  0
    4.0181    7.0570    5.6110 C   0  0  0  0  0  0  0  0  0  0  0  0
    4.8424    8.0357    4.8148 C   0  0  0  0  0  0  0  0  0  0  0  0
    5.1995    9.0793    5.3194 O   0  0  0  0  0  0  0  0  0  0  0  0
    5.1829    7.7513    3.5422 N   0  0  0  0  0  0  0  0  0  0  0  0
    5.8646    8.6997    2.7717 C   0  0  0  0  0  0  0  0  0  0  0  0
    5.4722    8.9437    1.4616 C   0  0  0  0  0  0  0  0  0  0  0  0
    6.1418    9.8838    0.7028 C   0  0  0  0  0  0  0  0  0  0  0  0
    7.2101   10.5762    1.2409 C   0  0  0  0  0  0  0  0  0  0  0  0
    7.6101   10.3325    2.5471 C   0  0  0  0  0  0  0  0  0  0  0  0
    6.9372    9.3937    3.3134 C   0  0  0  0  0  0  0  0  0  0  0  0
    8.6613   11.0135    3.0745 O   0  0  0  0  0  0  0  0  0  0  0  0
    9.3078   11.9659    2.2278 C   0  0  0  0  0  0  0  0  0  0  0  0
   10.0833   12.9439    3.0723 C   0  0  0  0  0  0  0  0  0  0  0  0
   11.2398   12.7152    3.3573 O   0  0  0  0  0  0  0  0  0  0  0  0
    9.4917   14.0726    3.5111 N   0  0  0  0  0  0  0  0  0  0  0  0
    5.0681    7.3032   -0.9855 H   0  0  0  0  0  0  0  0  0  0  0  0
    3.5703    7.6754   -1.8534 H   0  0  0  0  0  0  0  0  0  0  0  0
    4.5326    6.1981   -2.3414 H   0  0  0  0  0  0  0  0  0  0  0  0
    5.1080    5.9539    0.8800 H   0  0  0  0  0  0  0  0  0  0  0  0
    3.7998    4.7876    2.6379 H   0  0  0  0  0  0  0  0  0  0  0  0
    0.2814    5.0265    0.1783 H   0  0  0  0  0  0  0  0  0  0  0  0
    1.5862    6.2059   -1.5736 H   0  0  0  0  0  0  0  0  0  0  0  0
    0.3118    4.8432    4.8342 H   0  0  0  0  0  0  0  0  0  0  0  0
   -0.1681    7.0835    3.7989 H   0  0  0  0  0  0  0  0  0  0  0  0
    1.0740    6.7033    2.5581 H   0  0  0  0  0  0  0  0  0  0  0  0
    3.1170    5.5427    4.3420 H   0  0  0  0  0  0  0  0  0  0  0  0
    4.6687    6.2566    5.9933 H   0  0  0  0  0  0  0  0  0  0  0  0
    3.5444    7.5791    6.4554 H   0  0  0  0  0  0  0  0  0  0  0  0
    4.9412    6.8359    3.1367 H   0  0  0  0  0  0  0  0  0  0  0  0
    4.6276    8.3880    1.0283 H   0  0  0  0  0  0  0  0  0  0  0  0
    5.8242   10.0817   -0.3316 H   0  0  0  0  0  0  0  0  0  0  0  0
    7.7439   11.3215    0.6329 H   0  0  0  0  0  0  0  0  0  0  0  0
    7.2528    9.1991    4.3491 H   0  0  0  0  0  0  0  0  0  0  0  0
    8.5524   12.5083    1.6403 H   0  0  0  0  0  0  0  0  0  0  0  0
    9.9963   11.4436    1.5471 H   0  0  0  0  0  0  0  0  0  0  0  0
    9.6741   14.4118    4.4664 H   0  0  0  0  0  0  0  0  0  0  0  0
    8.8573   14.5961    2.8910 H   0  0  0  0  0  0  0  0  0  0  0  0
  1  2  1  0  0  0  0
  1 31  1  0  0  0  0
  1 32  1  0  0  0  0
  1 33  1  0  0  0  0
  2  7  2  0  0  0  0
  2  3  1  0  0  0  0
  3  4  2  0  0  0  0
  3 34  1  0  0  0  0
  4  5  1  0  0  0  0
  4 35  1  0  0  0  0
  5  6  2  0  0  0  0
  5  8  1  0  0  0  0
  6  7  1  0  0  0  0
  6 36  1  0  0  0  0
  7 37  1  0  0  0  0
  8  9  2  0  0  0  0
  8 10  2  0  0  0  0
  8 11  1  0  0  0  0
 11 12  1  0  0  0  0
 11 38  1  0  0  0  0
 12 13  1  0  0  0  0
 12 39  1  0  0  0  0
 12 40  1  0  0  0  0
 13 14  2  0  0  0  0
 13 15  1  0  0  0  0
 15 16  1  0  0  0  0
 15 41  1  0  0  0  0
 16 17  1  0  0  0  0
 16 42  1  0  0  0  0
 16 43  1  0  0  0  0
 17 18  2  0  0  0  0
 17 19  1  0  0  0  0
 19 20  1  0  0  0  0
 19 44  1  0  0  0  0
 20 25  2  0  0  0  0
 20 21  1  0  0  0  0
 21 22  2  0  0  0  0
 21 45  1  0  0  0  0
 22 23  1  0  0  0  0
 22 46  1  0  0  0  0
 23 24  2  0  0  0  0
 23 47  1  0  0  0  0
 24 25  1  0  0  0  0
 24 26  1  0  0  0  0
 25 48  1  0  0  0  0
 26 27  1  0  0  0  0
 27 28  1  0  0  0  0
 27 49  1  0  0  0  0
 27 50  1  0  0  0  0
 28 29  2  0  0  0  0
 28 30  1  0  0  0  0
 30 51  1  0  0  0  0
 30 52  1  0  0  0  0
M  END
> <Name>
ZINC30924904

> <reference>
BDB4946

> <quality>
0.757

> <status>
decoy

> <atoms in reference ligand area>
12

> <score>
-32.512

$$$$
ZINC27654081
      BALL 1.4.0 (Jan  4 2012, 23:22:29)

 38 39  0999  0  0  0  0  0  0999 V2000
    7.3706   11.8252    0.7011 C   0  0  0  0  0  0  0  0  0  0  0  0
    7.9443   12.9835    0.5554 N   0  0  0  0  0  0  0  0  0  0  0  0
    8.7957   13.1989    1.5888 C   0  0  0  0  0  0  0  0  0  0  0  0
    8.7247   12.0713    2.4251 C   0  0  0  0  0  0  0  0  0  0  0  0
    7.8188   11.2229    1.8403 N   0  0  0  0  0  0  0  0  0  0  0  0
    7.4082    9.9107    2.3463 C   0  0  0  0  0  0  0  0  0  0  0  0
    6.0022    9.7442    2.1524 O   0  0  0  0  0  0  0  0  0  0  0  0
    5.4565    8.5990    2.8102 C   0  0  0  0  0  0  0  0  0  0  0  0
    5.2870    7.4628    1.7994 C   0  0  0  0  0  0  0  0  0  0  0  0
    5.3897    7.9944    0.4522 O   0  0  0  0  0  0  0  0  0  0  0  0
    5.4701    7.1045   -0.5495 C   0  0  0  0  0  0  0  0  0  0  0  0
    6.1376    6.1059   -0.4183 O   0  0  0  0  0  0  0  0  0  0  0  0
    4.7277    7.3507   -1.8377 C   0  0  0  0  0  0  0  0  0  0  0  0
    5.6045    6.9322   -3.0196 C   0  0  0  0  0  0  0  0  0  0  0  0
    6.2315    8.1223   -3.6098 N   0  3  0  0  0  0  0  0  0  0  0  0
    9.4721   12.0315    3.5226 N   0  0  0  0  0  0  0  0  0  0  0  0
   10.2680   13.0426    3.8310 C   0  0  0  0  0  0  0  0  0  0  0  0
   10.3647   14.1250    3.0693 N   0  0  0  0  0  0  0  0  0  0  0  0
    9.6567   14.2450    1.9539 C   0  0  0  0  0  0  0  0  0  0  0  0
    9.7631   15.3539    1.1831 O   0  0  0  0  0  0  0  0  0  0  0  0
   11.0258   12.9689    4.9881 N   0  0  0  0  0  0  0  0  0  0  0  0
    6.6327   11.3948    0.0080 H   0  0  0  0  0  0  0  0  0  0  0  0
    7.9488    9.1222    1.8022 H   0  0  0  0  0  0  0  0  0  0  0  0
    7.6404    9.8412    3.4192 H   0  0  0  0  0  0  0  0  0  0  0  0
    4.4773    8.8543    3.2413 H   0  0  0  0  0  0  0  0  0  0  0  0
    6.1375    8.2772    3.6119 H   0  0  0  0  0  0  0  0  0  0  0  0
    6.0741    6.7108    1.9574 H   0  0  0  0  0  0  0  0  0  0  0  0
    4.3006    6.9949    1.9340 H   0  0  0  0  0  0  0  0  0  0  0  0
    3.7988    6.7616   -1.8442 H   0  0  0  0  0  0  0  0  0  0  0  0
    4.4844    8.4200   -1.9233 H   0  0  0  0  0  0  0  0  0  0  0  0
    6.3862    6.2418   -2.6701 H   0  0  0  0  0  0  0  0  0  0  0  0
    4.9848    6.4311   -3.7778 H   0  0  0  0  0  0  0  0  0  0  0  0
    6.3835    7.9679   -4.6167 H   0  0  0  0  0  0  0  0  0  0  0  0
    7.1359    8.2989   -3.1497 H   0  0  0  0  0  0  0  0  0  0  0  0
    5.6153    8.9371   -3.4776 H   0  0  0  0  0  0  0  0  0  0  0  0
   11.0007   14.8853    3.3490 H   0  0  0  0  0  0  0  0  0  0  0  0
   11.5990   12.1375    5.1909 H   0  0  0  0  0  0  0  0  0  0  0  0
   11.0145   13.7561    5.6522 H   0  0  0  0  0  0  0  0  0  0  0  0
  1  5  1  0  0  0  0
  1  2  2  0  0  0  0
  1 22  1  0  0  0  0
  2  3  1  0  0  0  0
  3  4  2  0  0  0  0
  3 19  1  0  0  0  0
  4  5  1  0  0  0  0
  4 16  1  0  0  0  0
  5  6  1  0  0  0  0
  6  7  1  0  0  0  0
  6 23  1  0  0  0  0
  6 24  1  0  0  0  0
  7  8  1  0  0  0  0
  8  9  1  0  0  0  0
  8 25  1  0  0  0  0
  8 26  1  0  0  0  0
  9 10  1  0  0  0  0
  9 27  1  0  0  0  0
  9 28  1  0  0  0  0
 10 11  1  0  0  0  0
 11 12  2  0  0  0  0
 11 13  1  0  0  0  0
 13 14  1  0  0  0  0
 13 29  1  0  0  0  0
 13 30  1  0  0  0  0
 14 15  1  0  0  0  0
 14 31  1  0  0  0  0
 14 32  1  0  0  0  0
 15 33  1  0  0  0  0
 15 34  1  0  0  0  0
 15 35  1  0  0  0  0
 16 17  2  0  0  0  0
 17 18  1  0  0  0  0
 17 21  1  0  0  0  0
 18 19  1  0  0  0  0
 18 36  1  0  0  0  0
 19 20  2  0  0  0  0
 21 37  1  0  0  0  0
 21 38  1  0  0  0  0
M  END
> <Name>
ZINC27654081

> <reference>
BDB5009

> <quality>
0.832

> <status>
decoy

> <atoms in reference ligand area>
10

> <score>
-32.4006

$$$$
ZINC17218773
      BALL 1.4.0 (Jan  4 2012, 23:22:29)

 33 34  0999  0  0  0  0  0  0999 V2000
    8.1981   13.8148    3.4498 C   0  0  0  0  0  0  0  0  0  0  0  0
    9.4939   13.2135    3.4118 O   0  0  0  0  0  0  0  0  0  0  0  0
    9.6061   12.0373    4.1922 N   0  0  0  0  0  0  0  0  0  0  0  0
    9.1603   10.9011    3.7284 C   0  0  0  0  0  0  0  0  0  0  0  0
    8.3592   10.8735    2.4925 C   0  0  0  0  0  0  0  0  0  0  0  0
    8.9679   10.9100    1.2848 C   0  0  0  0  0  0  0  0  0  0  0  0
    7.5806   10.8518    0.1625 S   0  0  0  0  0  0  0  0  0  0  0  0
    6.2759   10.7923    1.3802 C   0  0  0  0  0  0  0  0  0  0  0  0
    4.9805   10.7398    1.2012 N   0  0  0  0  0  0  0  0  0  0  0  0
    6.9910   10.8166    2.5573 N   0  0  0  0  0  0  0  0  0  0  0  0
    9.4601    9.6396    4.4451 C   0  0  0  0  0  0  0  0  0  0  0  0
    9.9508    8.7024    3.8466 O   0  0  0  0  0  0  0  0  0  0  0  0
    9.1889    9.5313    5.7608 N   0  0  0  0  0  0  0  0  0  0  0  0
    9.4714    8.3423    6.4363 C   0  0  0  0  0  0  0  0  0  0  0  0
    9.4536    8.0739    7.7746 C   0  0  0  0  0  0  0  0  0  0  0  0
    9.7633    6.8556    8.1681 N   0  3  0  0  0  0  0  0  0  0  0  0
   10.0870    5.9184    7.3087 C   0  0  0  0  0  0  0  0  0  0  0  0
    9.9563    6.7486    5.7892 S   0  0  0  0  0  0  0  0  0  0  0  0
    9.7517    6.5412    9.5990 C   0  0  0  0  0  0  0  0  0  0  0  0
    8.5968    5.6219    9.9020 C   0  0  0  0  0  0  0  0  0  0  0  0
    8.0651    5.6570   10.9863 O   0  0  0  0  0  0  0  0  0  0  0  0
    8.1589    4.7639    8.9672 O   0  5  0  0  0  0  0  0  0  0  0  0
    7.7491   13.6988    2.4523 H   0  0  0  0  0  0  0  0  0  0  0  0
    8.3361   14.8882    3.6467 H   0  0  0  0  0  0  0  0  0  0  0  0
    7.5620   13.3549    4.2204 H   0  0  0  0  0  0  0  0  0  0  0  0
   10.0421   10.9621    1.0535 H   0  0  0  0  0  0  0  0  0  0  0  0
    4.7245   10.7340    0.2036 H   0  0  0  0  0  0  0  0  0  0  0  0
    6.5079   10.7925    3.4668 H   0  0  0  0  0  0  0  0  0  0  0  0
    8.7732   10.3255    6.2681 H   0  0  0  0  0  0  0  0  0  0  0  0
    9.1881    8.8533    8.5040 H   0  0  0  0  0  0  0  0  0  0  0  0
   10.3693    4.8729    7.5017 H   0  0  0  0  0  0  0  0  0  0  0  0
    9.6422    7.4697   10.1786 H   0  0  0  0  0  0  0  0  0  0  0  0
   10.6952    6.0467    9.8735 H   0  0  0  0  0  0  0  0  0  0  0  0
  1  2  1  0  0  0  0
  1 23  1  0  0  0  0
  1 24  1  0  0  0  0
  1 25  1  0  0  0  0
  2  3  1  0  0  0  0
  3  4  2  0  0  0  0
  4  5  1  0  0  0  0
  4 11  1  0  0  0  0
  5 10  1  0  0  0  0
  5  6  2  0  0  0  0
  6  7  1  0  0  0  0
  6 26  1  0  0  0  0
  7  8  1  0  0  0  0
  8  9  2  0  0  0  0
  8 10  1  0  0  0  0
  9 27  1  0  0  0  0
 10 28  1  0  0  0  0
 11 12  2  0  0  0  0
 11 13  1  0  0  0  0
 13 14  1  0  0  0  0
 13 29  1  0  0  0  0
 14 18  1  0  0  0  0
 14 15  2  0  0  0  0
 15 16  1  0  0  0  0
 15 30  1  0  0  0  0
 16 17  2  0  0  0  0
 16 19  1  0  0  0  0
 17 18  1  0  0  0  0
 17 31  1  0  0  0  0
 19 20  1  0  0  0  0
 19 32  1  0  0  0  0
 19 33  1  0  0  0  0
 20 21  2  0  0  0  0
 20 22  1  0  0  0  0
M  END
> <Name>
ZINC17218773

> <reference>
BDB5244

> <quality>
0.706

> <status>
decoy

> <atoms in reference ligand area>
14

> <score>
-32.3641

$$$$
ZINC05426335
      BALL 1.4.0 (Jan  4 2012, 23:22:29)

 30 32  0999  0  0  0  0  0  0999 V2000
    9.9619   12.4668   -2.8744 C   0  0  0  0  0  0  0  0  0  0  0  0
   10.8973   13.6434   -3.2446 C   0  0  0  0  0  0  0  0  0  0  0  0
   10.2666   14.8200   -2.4570 C   0  0  0  0  0  0  0  0  0  0  0  0
    9.8298   14.2053   -1.2257 O   0  0  0  0  0  0  0  0  0  0  0  0
    9.2811   12.9219   -1.5689 C   0  0  0  0  0  0  0  0  0  0  0  0
    9.5563   11.9573   -0.5011 N   0  0  0  0  0  0  0  0  0  0  0  0
    8.6581   11.4517    0.4014 C   0  0  0  0  0  0  0  0  0  0  0  0
    7.3744   11.5918    0.6545 N   0  0  0  0  0  0  0  0  0  0  0  0
    6.7878   10.9266    1.6465 C   0  0  0  0  0  0  0  0  0  0  0  0
    7.4156   10.0867    2.4494 N   0  0  0  0  0  0  0  0  0  0  0  0
    8.7251    9.8303    2.3164 C   0  0  0  0  0  0  0  0  0  0  0  0
    9.2992    9.0538    3.0632 O   0  0  0  0  0  0  0  0  0  0  0  0
    9.4454   10.5334    1.2417 C   0  0  0  0  0  0  0  0  0  0  0  0
   10.6796   10.5688    0.8044 N   0  0  0  0  0  0  0  0  0  0  0  0
   10.7945   11.3712   -0.1944 N   0  5  0  0  0  0  0  0  0  0  0  0
    5.4416   11.1268    1.8487 N   0  0  0  0  0  0  0  0  0  0  0  0
   11.3108   15.9028   -2.1779 C   0  0  0  0  0  0  0  0  0  0  0  0
   10.8636   16.7297   -1.1017 O   0  0  0  0  0  0  0  0  0  0  0  0
   12.2328   13.3917   -2.8025 O   0  0  0  0  0  0  0  0  0  0  0  0
   10.5526   11.5562   -2.6960 H   0  0  0  0  0  0  0  0  0  0  0  0
    9.2098   12.3196   -3.6634 H   0  0  0  0  0  0  0  0  0  0  0  0
   10.9758   13.8248   -4.3267 H   0  0  0  0  0  0  0  0  0  0  0  0
    9.4504   15.3148   -3.0037 H   0  0  0  0  0  0  0  0  0  0  0  0
    8.1907   12.9874   -1.6987 H   0  0  0  0  0  0  0  0  0  0  0  0
    4.8120   10.3480    2.0896 H   0  0  0  0  0  0  0  0  0  0  0  0
    5.0588   12.0785    1.7562 H   0  0  0  0  0  0  0  0  0  0  0  0
   11.4518   16.5186   -3.0783 H   0  0  0  0  0  0  0  0  0  0  0  0
   12.2654   15.4298   -1.9039 H   0  0  0  0  0  0  0  0  0  0  0  0
   10.4784   17.5662   -1.4651 H   0  0  0  0  0  0  0  0  0  0  0  0
   12.8641   13.6942   -3.5025 H   0  0  0  0  0  0  0  0  0  0  0  0
  1  5  1  0  0  0  0
  1  2  1  0  0  0  0
  1 20  1  0  0  0  0
  1 21  1  0  0  0  0
  2  3  1  0  0  0  0
  2 19  1  0  0  0  0
  2 22  1  0  0  0  0
  3  4  1  0  0  0  0
  3 17  1  0  0  0  0
  3 23  1  0  0  0  0
  4  5  1  0  0  0  0
  5  6  1  0  0  0  0
  5 24  1  0  0  0  0
  6 15  1  0  0  0  0
  6  7  1  0  0  0  0
  7 13  1  0  0  0  0
  7  8  2  0  0  0  0
  8  9  1  0  0  0  0
  9 10  2  0  0  0  0
  9 16  1  0  0  0  0
 10 11  1  0  0  0  0
 11 12  2  0  0  0  0
 11 13  1  0  0  0  0
 13 14  2  0  0  0  0
 14 15  1  0  0  0  0
 16 25  1  0  0  0  0
 16 26  1  0  0  0  0
 17 18  1  0  0  0  0
 17 27  1  0  0  0  0
 17 28  1  0  0  0  0
 18 29  1  0  0  0  0
 19 30  1  0  0  0  0
M  END
> <Name>
ZINC05426335

> <reference>
BDB5257

> <quality>
0.780

> <status>
decoy

> <atoms in reference ligand area>
19

> <score>
-32.2165

$$$$
ZINC05838514
      BALL 1.4.0 (Jan  4 2012, 23:22:29)

 46 48  0999  0  0  0  0  0  0999 V2000
   12.2584   13.3101    4.1214 C   0  0  0  0  0  0  0  0  0  0  0  0
   12.2788   13.0698    2.6105 C   0  0  0  0  0  0  0  0  0  0  0  0
   12.2143   11.5666    2.3323 C   0  0  0  0  0  0  0  0  0  0  0  0
   11.5088   11.3252    0.9963 C   0  0  0  0  0  0  0  0  0  0  0  0
    9.3098   11.4229   -0.0125 C   0  0  0  0  0  0  0  0  0  0  0  0
    9.9228   12.6088   -0.7905 C   0  0  0  0  0  0  0  0  0  0  0  0
    8.7840   13.6513   -0.8439 C   0  0  0  0  0  0  0  0  0  0  0  0
    7.5714   12.8813   -0.6930 O   0  0  0  0  0  0  0  0  0  0  0  0
    7.8734   11.8892    0.3121 C   0  0  0  0  0  0  0  0  0  0  0  0
    6.9385   10.7653    0.2163 N   0  0  0  0  0  0  0  0  0  0  0  0
    6.3305   10.3163   -0.9181 C   0  0  0  0  0  0  0  0  0  0  0  0
    5.5648    9.3014   -0.6403 N   0  0  0  0  0  0  0  0  0  0  0  0
    5.6325    9.0352    0.6863 C   0  0  0  0  0  0  0  0  0  0  0  0
    6.5147    9.9714    1.2520 C   0  0  0  0  0  0  0  0  0  0  0  0
    6.7563    9.9242    2.5578 N   0  0  0  0  0  0  0  0  0  0  0  0
    6.1793    9.0145    3.3145 C   0  0  0  0  0  0  0  0  0  0  0  0
    5.3441    8.1145    2.8286 N   0  0  0  0  0  0  0  0  0  0  0  0
    5.0449    8.0811    1.5341 C   0  0  0  0  0  0  0  0  0  0  0  0
    4.1733    7.1300    1.0331 N   0  0  0  0  0  0  0  0  0  0  0  0
    8.7895   14.3776   -2.1905 C   0  0  0  0  0  0  0  0  0  0  0  0
    7.5514   15.0698   -2.3634 O   0  0  0  0  0  0  0  0  0  0  0  0
   10.2962   12.2033   -2.1089 O   0  0  0  0  0  0  0  0  0  0  0  0
   10.0603   11.1795    1.2339 N   0  3  0  0  0  0  0  0  0  0  0  0
   11.2981   13.7629    4.4088 H   0  0  0  0  0  0  0  0  0  0  0  0
   13.0798   13.9878    4.3971 H   0  0  0  0  0  0  0  0  0  0  0  0
   12.3829   12.3521    4.6474 H   0  0  0  0  0  0  0  0  0  0  0  0
   11.4121   13.5652    2.1485 H   0  0  0  0  0  0  0  0  0  0  0  0
   13.2061   13.4811    2.1851 H   0  0  0  0  0  0  0  0  0  0  0  0
   13.2345   11.1579    2.2867 H   0  0  0  0  0  0  0  0  0  0  0  0
   11.6548   11.0673    3.1370 H   0  0  0  0  0  0  0  0  0  0  0  0
   11.6869   12.1796    0.3268 H   0  0  0  0  0  0  0  0  0  0  0  0
   11.8990   10.4063    0.5342 H   0  0  0  0  0  0  0  0  0  0  0  0
    9.3353   10.4840   -0.5850 H   0  0  0  0  0  0  0  0  0  0  0  0
   10.8342   13.0021   -0.3167 H   0  0  0  0  0  0  0  0  0  0  0  0
    8.8877   14.4215   -0.0654 H   0  0  0  0  0  0  0  0  0  0  0  0
    7.7866   12.2905    1.3326 H   0  0  0  0  0  0  0  0  0  0  0  0
    6.4670   10.7482   -1.9205 H   0  0  0  0  0  0  0  0  0  0  0  0
    6.4011    9.0038    4.3918 H   0  0  0  0  0  0  0  0  0  0  0  0
    3.2408    7.4205    0.7060 H   0  0  0  0  0  0  0  0  0  0  0  0
    4.4529    6.1398    0.9871 H   0  0  0  0  0  0  0  0  0  0  0  0
    9.6191   15.0996   -2.2144 H   0  0  0  0  0  0  0  0  0  0  0  0
    8.9164   13.6463   -3.0023 H   0  0  0  0  0  0  0  0  0  0  0  0
    7.7255   16.0391   -2.4653 H   0  0  0  0  0  0  0  0  0  0  0  0
    9.9386   11.2964   -2.2816 H   0  0  0  0  0  0  0  0  0  0  0  0
    9.7609   11.8572    1.9495 H   0  0  0  0  0  0  0  0  0  0  0  0
    9.8635   10.2258    1.5695 H   0  0  0  0  0  0  0  0  0  0  0  0
  1  2  1  0  0  0  0
  1 24  1  0  0  0  0
  1 25  1  0  0  0  0
  1 26  1  0  0  0  0
  2  3  1  0  0  0  0
  2 27  1  0  0  0  0
  2 28  1  0  0  0  0
  3  4  1  0  0  0  0
  3 29  1  0  0  0  0
  3 30  1  0  0  0  0
  4 23  1  0  0  0  0
  4 31  1  0  0  0  0
  4 32  1  0  0  0  0
  5  9  1  0  0  0  0
  5  6  1  0  0  0  0
  5 23  1  0  0  0  0
  5 33  1  0  0  0  0
  6  7  1  0  0  0  0
  6 22  1  0  0  0  0
  6 34  1  0  0  0  0
  7  8  1  0  0  0  0
  7 20  1  0  0  0  0
  7 35  1  0  0  0  0
  8  9  1  0  0  0  0
  9 10  1  0  0  0  0
  9 36  1  0  0  0  0
 10 14  1  0  0  0  0
 10 11  1  0  0  0  0
 11 12  2  0  0  0  0
 11 37  1  0  0  0  0
 12 13  1  0  0  0  0
 13 18  2  0  0  0  0
 13 14  1  0  0  0  0
 14 15  2  0  0  0  0
 15 16  1  0  0  0  0
 16 17  2  0  0  0  0
 16 38  1  0  0  0  0
 17 18  1  0  0  0  0
 18 19  1  0  0  0  0
 19 39  1  0  0  0  0
 19 40  1  0  0  0  0
 20 21  1  0  0  0  0
 20 41  1  0  0  0  0
 20 42  1  0  0  0  0
 21 43  1  0  0  0  0
 22 44  1  0  0  0  0
 23 45  1  0  0  0  0
 23 46  1  0  0  0  0
M  END
> <Name>
ZINC05838514

> <reference>
BDB5198

> <quality>
0.779

> <status>
decoy

> <atoms in reference ligand area>
25

> <score>
-32.2153

$$$$
ZINC19731960
      BALL 1.4.0 (Jan  4 2012, 23:22:29)

 42 43  0999  0  0  0  0  0  0999 V2000
    9.5650    9.9063    1.4148 C   0  0  0  0  0  0  0  0  0  0  0  0
    8.6503   10.9338    1.9302 N   0  0  0  0  0  0  0  0  0  0  0  0
    8.6734   10.9704    3.3986 C   0  0  0  0  0  0  0  0  0  0  0  0
    9.9507   11.6674    3.8714 C   0  0  0  0  0  0  0  0  0  0  0  0
   10.3820   12.7026    2.8306 C   0  0  0  0  0  0  0  0  0  0  0  0
    9.7745   13.9610    3.1302 O   0  0  0  0  0  0  0  0  0  0  0  0
    9.8828   14.9374    2.1913 C   0  0  0  0  0  0  0  0  0  0  0  0
   10.5603   14.6886    1.0056 C   0  0  0  0  0  0  0  0  0  0  0  0
   10.6713   15.6804    0.0498 C   0  0  0  0  0  0  0  0  0  0  0  0
   10.1085   16.9226    0.2709 C   0  0  0  0  0  0  0  0  0  0  0  0
    9.4346   17.1793    1.4585 C   0  0  0  0  0  0  0  0  0  0  0  0
    9.3172   16.1821    2.4173 C   0  0  0  0  0  0  0  0  0  0  0  0
    8.8710   18.4370    1.6848 N   0  0  0  0  0  0  0  0  0  0  0  0
    7.2854   10.7222    1.4302 C   0  0  0  0  0  0  0  0  0  0  0  0
    6.7046    9.4333    2.0353 C   0  0  0  0  0  0  0  0  0  0  0  0
    5.4135    9.0319    1.2822 C   0  0  0  0  0  0  0  0  0  0  0  0
    5.6918    9.7292   -0.3968 S   0  0  0  0  0  0  0  0  0  0  0  0
    4.7034   10.7163   -0.6571 O   0  0  0  0  0  0  0  0  0  0  0  0
    5.8740    8.6614   -1.3164 O   0  0  0  0  0  0  0  0  0  0  0  0
    7.3114   10.5619   -0.1168 C   0  0  0  0  0  0  0  0  0  0  0  0
    9.2663    9.6470    0.3884 H   0  0  0  0  0  0  0  0  0  0  0  0
    9.4876    9.0110    2.0492 H   0  0  0  0  0  0  0  0  0  0  0  0
   10.5991   10.2812    1.4205 H   0  0  0  0  0  0  0  0  0  0  0  0
    7.7967   11.5245    3.7655 H   0  0  0  0  0  0  0  0  0  0  0  0
    8.6495    9.9437    3.7926 H   0  0  0  0  0  0  0  0  0  0  0  0
    9.7604   12.1704    4.8310 H   0  0  0  0  0  0  0  0  0  0  0  0
   10.7501   10.9227    3.9998 H   0  0  0  0  0  0  0  0  0  0  0  0
   11.4765   12.8100    2.8519 H   0  0  0  0  0  0  0  0  0  0  0  0
   10.0653   12.3723    1.8302 H   0  0  0  0  0  0  0  0  0  0  0  0
   11.0095   13.7006    0.8265 H   0  0  0  0  0  0  0  0  0  0  0  0
   11.2088   15.4805   -0.8890 H   0  0  0  0  0  0  0  0  0  0  0  0
   10.1940   17.7089   -0.4936 H   0  0  0  0  0  0  0  0  0  0  0  0
    8.7764   16.3797    3.3545 H   0  0  0  0  0  0  0  0  0  0  0  0
    8.8182   19.1227    0.9181 H   0  0  0  0  0  0  0  0  0  0  0  0
    8.5082   18.6787    2.6180 H   0  0  0  0  0  0  0  0  0  0  0  0
    6.6684   11.5878    1.7134 H   0  0  0  0  0  0  0  0  0  0  0  0
    6.4707    9.5999    3.0972 H   0  0  0  0  0  0  0  0  0  0  0  0
    7.4440    8.6235    1.9493 H   0  0  0  0  0  0  0  0  0  0  0  0
    5.3259    7.9371    1.2222 H   0  0  0  0  0  0  0  0  0  0  0  0
    4.5338    9.5058    1.7421 H   0  0  0  0  0  0  0  0  0  0  0  0
    7.3188   11.5442   -0.6117 H   0  0  0  0  0  0  0  0  0  0  0  0
    8.1324    9.8996   -0.4286 H   0  0  0  0  0  0  0  0  0  0  0  0
  1  2  1  0  0  0  0
  1 21  1  0  0  0  0
  1 22  1  0  0  0  0
  1 23  1  0  0  0  0
  2  3  1  0  0  0  0
  2 14  1  0  0  0  0
  3  4  1  0  0  0  0
  3 24  1  0  0  0  0
  3 25  1  0  0  0  0
  4  5  1  0  0  0  0
  4 26  1  0  0  0  0
  4 27  1  0  0  0  0
  5  6  1  0  0  0  0
  5 28  1  0  0  0  0
  5 29  1  0  0  0  0
  6  7  1  0  0  0  0
  7 12  2  0  0  0  0
  7  8  1  0  0  0  0
  8  9  2  0  0  0  0
  8 30  1  0  0  0  0
  9 10  1  0  0  0  0
  9 31  1  0  0  0  0
 10 11  2  0  0  0  0
 10 32  1  0  0  0  0
 11 12  1  0  0  0  0
 11 13  1  0  0  0  0
 12 33  1  0  0  0  0
 13 34  1  0  0  0  0
 13 35  1  0  0  0  0
 14 20  1  0  0  0  0
 14 15  1  0  0  0  0
 14 36  1  0  0  0  0
 15 16  1  0  0  0  0
 15 37  1  0  0  0  0
 15 38  1  0  0  0  0
 16 17  1  0  0  0  0
 16 39  1  0  0  0  0
 16 40  1  0  0  0  0
 17 18  2  0  0  0  0
 17 19  2  0  0  0  0
 17 20  1  0  0  0  0
 20 41  1  0  0  0  0
 20 42  1  0  0  0  0
M  END
> <Name>
ZINC19731960

> <reference>
BDB5015

> <quality>
0.707

> <status>
decoy

> <atoms in reference ligand area>
15

> <score>
-32.0803

$$$$
ZINC21264479
      BALL 1.4.0 (Jan  4 2012, 23:22:29)

 35 35  0999  0  0  0  0  0  0999 V2000
    9.6396   14.6306   -3.0212 C   0  0  0  0  0  0  0  0  0  0  0  0
    9.5530   14.7505   -1.4984 C   0  0  0  0  0  0  0  0  0  0  0  0
    8.9485   13.4927   -0.9291 C   0  0  0  0  0  0  0  0  0  0  0  0
    8.0770   12.6580   -1.4590 N   0  0  0  0  0  0  0  0  0  0  0  0
    7.6852   11.6440   -0.8175 N   0  0  0  0  0  0  0  0  0  0  0  0
    8.1246   11.3749    0.4000 C   0  0  0  0  0  0  0  0  0  0  0  0
    9.2163   12.7048    0.6545 S   0  0  0  0  0  0  0  0  0  0  0  0
    7.8062   10.3158    1.2434 N   0  0  0  0  0  0  0  0  0  0  0  0
    6.5818   10.2440    1.8022 C   0  0  0  0  0  0  0  0  0  0  0  0
    5.7577   11.1030    1.5695 O   0  5  0  0  0  0  0  0  0  0  0  0
    6.2366    9.0965    2.7160 C   0  0  0  0  0  0  0  0  0  0  0  0
    4.9528    9.3660    3.3770 N   0  3  0  0  0  0  0  0  0  0  0  0
    4.5833    8.2660    4.2778 C   0  0  0  0  0  0  0  0  0  0  0  0
    4.7015    6.9350    3.5325 C   0  0  0  0  0  0  0  0  0  0  0  0
    5.5218    8.2591    5.4861 C   0  0  0  0  0  0  0  0  0  0  0  0
    3.1416    8.4581    4.7529 C   0  0  0  0  0  0  0  0  0  0  0  0
    3.1206    8.5713    6.1773 O   0  0  0  0  0  0  0  0  0  0  0  0
    9.2400   13.6556   -3.3367 H   0  0  0  0  0  0  0  0  0  0  0  0
   10.6898   14.7155   -3.3376 H   0  0  0  0  0  0  0  0  0  0  0  0
    9.0513   15.4349   -3.4870 H   0  0  0  0  0  0  0  0  0  0  0  0
   10.5619   14.8921   -1.0837 H   0  0  0  0  0  0  0  0  0  0  0  0
    8.9229   15.6121   -1.2325 H   0  0  0  0  0  0  0  0  0  0  0  0
    6.1583    8.1701    2.1280 H   0  0  0  0  0  0  0  0  0  0  0  0
    7.0230    8.9827    3.4766 H   0  0  0  0  0  0  0  0  0  0  0  0
    5.0266   10.2384    3.9196 H   0  0  0  0  0  0  0  0  0  0  0  0
    4.2193    9.4802    2.6629 H   0  0  0  0  0  0  0  0  0  0  0  0
    3.8615    6.2817    3.8110 H   0  0  0  0  0  0  0  0  0  0  0  0
    5.6498    6.4463    3.8009 H   0  0  0  0  0  0  0  0  0  0  0  0
    4.6786    7.1179    2.4481 H   0  0  0  0  0  0  0  0  0  0  0  0
    5.7152    9.2932    5.8073 H   0  0  0  0  0  0  0  0  0  0  0  0
    6.4718    7.7776    5.2110 H   0  0  0  0  0  0  0  0  0  0  0  0
    5.0546    7.7013    6.3110 H   0  0  0  0  0  0  0  0  0  0  0  0
    2.5348    7.5936    4.4455 H   0  0  0  0  0  0  0  0  0  0  0  0
    2.7274    9.3743    4.3067 H   0  0  0  0  0  0  0  0  0  0  0  0
    3.0525    9.5254    6.4325 H   0  0  0  0  0  0  0  0  0  0  0  0
  1  2  1  0  0  0  0
  1 18  1  0  0  0  0
  1 19  1  0  0  0  0
  1 20  1  0  0  0  0
  2  3  1  0  0  0  0
  2 21  1  0  0  0  0
  2 22  1  0  0  0  0
  3  7  1  0  0  0  0
  3  4  2  0  0  0  0
  4  5  1  0  0  0  0
  5  6  2  0  0  0  0
  6  7  1  0  0  0  0
  6  8  1  0  0  0  0
  8  9  2  0  0  0  0
  9 10  1  0  0  0  0
  9 11  1  0  0  0  0
 11 12  1  0  0  0  0
 11 23  1  0  0  0  0
 11 24  1  0  0  0  0
 12 13  1  0  0  0  0
 12 25  1  0  0  0  0
 12 26  1  0  0  0  0
 13 14  1  0  0  0  0
 13 15  1  0  0  0  0
 13 16  1  0  0  0  0
 14 27  1  0  0  0  0
 14 28  1  0  0  0  0
 14 29  1  0  0  0  0
 15 30  1  0  0  0  0
 15 31  1  0  0  0  0
 15 32  1  0  0  0  0
 16 17  1  0  0  0  0
 16 33  1  0  0  0  0
 16 34  1  0  0  0  0
 17 35  1  0  0  0  0
M  END
> <Name>
ZINC21264479

> <reference>
BDB4995

> <quality>
0.774

> <status>
decoy

> <atoms in reference ligand area>
11

> <score>
-31.9914

$$$$
ZINC31217234
      BALL 1.4.0 (Jan  4 2012, 23:22:29)

 48 49  0999  0  0  0  0  0  0999 V2000
    4.7802    6.6828    5.9151 C   0  0  0  0  0  0  0  0  0  0  0  0
    3.6746    7.9954    5.3269 S   0  0  0  0  0  0  0  0  0  0  0  0
    4.4276    9.0267    4.7036 O   0  0  0  0  0  0  0  0  0  0  0  0
    2.7086    8.3040    6.3222 O   0  0  0  0  0  0  0  0  0  0  0  0
    2.8082    7.3026    4.0974 N   0  0  0  0  0  0  0  0  0  0  0  0
    3.4889    6.8717    2.8738 C   0  0  0  0  0  0  0  0  0  0  0  0
    4.6317    7.8390    2.5584 C   0  0  0  0  0  0  0  0  0  0  0  0
    5.6308    7.1592    1.6200 C   0  0  0  0  0  0  0  0  0  0  0  0
    6.8352    7.9856    1.5075 N   0  0  0  0  0  0  0  0  0  0  0  0
    6.7875    9.2935    1.8289 C   0  0  0  0  0  0  0  0  0  0  0  0
    5.7451    9.7876    2.2121 O   0  0  0  0  0  0  0  0  0  0  0  0
    8.0030   10.1276    1.7154 C   0  0  0  0  0  0  0  0  0  0  0  0
    9.2637    9.5292    1.6890 C   0  0  0  0  0  0  0  0  0  0  0  0
   10.3939   10.3133    1.5825 C   0  0  0  0  0  0  0  0  0  0  0  0
   10.2796   11.6897    1.5016 C   0  0  0  0  0  0  0  0  0  0  0  0
    9.0331   12.2895    1.5326 C   0  0  0  0  0  0  0  0  0  0  0  0
    7.8947   11.5168    1.6339 C   0  0  0  0  0  0  0  0  0  0  0  0
   11.7281   12.6837    1.3658 S   0  0  0  0  0  0  0  0  0  0  0  0
   12.8282   11.8448    1.6903 O   0  0  0  0  0  0  0  0  0  0  0  0
   11.4588   13.8913    2.0645 O   0  0  0  0  0  0  0  0  0  0  0  0
   11.8963   13.0883   -0.2312 N   0  0  0  0  0  0  0  0  0  0  0  0
   12.6843   14.2153   -0.7512 C   0  0  0  0  0  0  0  0  0  0  0  0
   12.5277   14.2143   -2.2864 C   0  0  0  0  0  0  0  0  0  0  0  0
   11.2013   13.4376   -2.4978 C   0  0  0  0  0  0  0  0  0  0  0  0
   11.2755   12.3819   -1.3665 C   0  0  0  0  0  0  0  0  0  0  0  0
    5.6883    7.1365    6.3390 H   0  0  0  0  0  0  0  0  0  0  0  0
    5.0572    6.0361    5.0696 H   0  0  0  0  0  0  0  0  0  0  0  0
    4.2706    6.0859    6.6858 H   0  0  0  0  0  0  0  0  0  0  0  0
    1.7906    7.1748    4.1929 H   0  0  0  0  0  0  0  0  0  0  0  0
    3.8951    5.8595    3.0171 H   0  0  0  0  0  0  0  0  0  0  0  0
    2.7739    6.8651    2.0379 H   0  0  0  0  0  0  0  0  0  0  0  0
    4.2268    8.7390    2.0725 H   0  0  0  0  0  0  0  0  0  0  0  0
    5.1409    8.1234    3.4911 H   0  0  0  0  0  0  0  0  0  0  0  0
    5.9004    6.1723    2.0240 H   0  0  0  0  0  0  0  0  0  0  0  0
    5.1767    7.0369    0.6256 H   0  0  0  0  0  0  0  0  0  0  0  0
    7.7185    7.5670    1.1828 H   0  0  0  0  0  0  0  0  0  0  0  0
    9.3559    8.4350    1.7528 H   0  0  0  0  0  0  0  0  0  0  0  0
   11.3881    9.8430    1.5620 H   0  0  0  0  0  0  0  0  0  0  0  0
    8.9496   13.3850    1.4764 H   0  0  0  0  0  0  0  0  0  0  0  0
    6.9039   11.9944    1.6503 H   0  0  0  0  0  0  0  0  0  0  0  0
   13.7439   14.0839   -0.4866 H   0  0  0  0  0  0  0  0  0  0  0  0
   12.2997   15.1602   -0.3397 H   0  0  0  0  0  0  0  0  0  0  0  0
   12.4292   15.2441   -2.6604 H   0  0  0  0  0  0  0  0  0  0  0  0
   13.3633   13.6744   -2.7556 H   0  0  0  0  0  0  0  0  0  0  0  0
   11.1968   12.9450   -3.4813 H   0  0  0  0  0  0  0  0  0  0  0  0
   10.3388   14.1030   -2.3447 H   0  0  0  0  0  0  0  0  0  0  0  0
   10.2625   12.0477   -1.0977 H   0  0  0  0  0  0  0  0  0  0  0  0
   11.9089   11.5390   -1.6802 H   0  0  0  0  0  0  0  0  0  0  0  0
  1  2  1  0  0  0  0
  1 26  1  0  0  0  0
  1 27  1  0  0  0  0
  1 28  1  0  0  0  0
  2  3  2  0  0  0  0
  2  4  2  0  0  0  0
  2  5  1  0  0  0  0
  5  6  1  0  0  0  0
  5 29  1  0  0  0  0
  6  7  1  0  0  0  0
  6 30  1  0  0  0  0
  6 31  1  0  0  0  0
  7  8  1  0  0  0  0
  7 32  1  0  0  0  0
  7 33  1  0  0  0  0
  8  9  1  0  0  0  0
  8 34  1  0  0  0  0
  8 35  1  0  0  0  0
  9 10  1  0  0  0  0
  9 36  1  0  0  0  0
 10 11  2  0  0  0  0
 10 12  1  0  0  0  0
 12 17  2  0  0  0  0
 12 13  1  0  0  0  0
 13 14  2  0  0  0  0
 13 37  1  0  0  0  0
 14 15  1  0  0  0  0
 14 38  1  0  0  0  0
 15 16  2  0  0  0  0
 15 18  1  0  0  0  0
 16 17  1  0  0  0  0
 16 39  1  0  0  0  0
 17 40  1  0  0  0  0
 18 19  2  0  0  0  0
 18 20  2  0  0  0  0
 18 21  1  0  0  0  0
 21 25  1  0  0  0  0
 21 22  1  0  0  0  0
 22 23  1  0  0  0  0
 22 41  1  0  0  0  0
 22 42  1  0  0  0  0
 23 24  1  0  0  0  0
 23 43  1  0  0  0  0
 23 44  1  0  0  0  0
 24 25  1  0  0  0  0
 24 45  1  0  0  0  0
 24 46  1  0  0  0  0
 25 47  1  0  0  0  0
 25 48  1  0  0  0  0
M  END
> <Name>
ZINC31217234

> <reference>
BDB4945

> <quality>
0.747

> <status>
decoy

> <atoms in reference ligand area>
15

> <score>
-31.9327

$$$$
ZINC20744634
      BALL 1.4.0 (Jan  4 2012, 23:22:29)

 47 49  0999  0  0  0  0  0  0999 V2000
    7.5270    9.3750    4.4241 C   0  0  0  0  0  0  0  0  0  0  0  0
    7.4154    9.9784    3.0939 N   0  0  0  0  0  0  0  0  0  0  0  0
    8.4313   10.5529    2.3894 C   0  0  0  0  0  0  0  0  0  0  0  0
    7.8761   10.9965    1.1734 C   0  0  0  0  0  0  0  0  0  0  0  0
    6.5041   10.6645    1.2002 C   0  0  0  0  0  0  0  0  0  0  0  0
    6.2448   10.0716    2.3306 N   0  0  0  0  0  0  0  0  0  0  0  0
    8.7220   11.6315    0.2427 C   0  0  0  0  0  0  0  0  0  0  0  0
   10.0039   11.7834    0.5528 N   0  0  0  0  0  0  0  0  0  0  0  0
   10.4860   11.3497    1.7115 C   0  0  0  0  0  0  0  0  0  0  0  0
    9.7294   10.7492    2.6142 N   0  0  0  0  0  0  0  0  0  0  0  0
   11.8300   11.5340    1.9847 N   0  0  0  0  0  0  0  0  0  0  0  0
   12.2799   12.7547    2.6585 C   0  0  0  0  0  0  0  0  0  0  0  0
   11.3570   13.8926    2.3054 C   0  0  0  0  0  0  0  0  0  0  0  0
   11.3639   14.4151    1.0253 C   0  0  0  0  0  0  0  0  0  0  0  0
   10.5150   15.4544    0.6976 C   0  0  0  0  0  0  0  0  0  0  0  0
    9.6630   15.9814    1.6573 C   0  0  0  0  0  0  0  0  0  0  0  0
    9.6619   15.4591    2.9425 C   0  0  0  0  0  0  0  0  0  0  0  0
   10.5087   14.4161    3.2637 C   0  0  0  0  0  0  0  0  0  0  0  0
    8.8304   17.0072    1.3387 O   0  0  0  0  0  0  0  0  0  0  0  0
    9.4124   18.1351    0.6822 C   0  0  0  0  0  0  0  0  0  0  0  0
    8.2291   12.0851   -0.9648 N   0  0  0  0  0  0  0  0  0  0  0  0
    7.9108   13.5044   -1.1394 C   0  0  0  0  0  0  0  0  0  0  0  0
    7.6264   13.7853   -2.6162 C   0  0  0  0  0  0  0  0  0  0  0  0
    8.9259   13.6736   -3.4161 C   0  0  0  0  0  0  0  0  0  0  0  0
    8.7119   14.1589   -4.7429 O   0  0  0  0  0  0  0  0  0  0  0  0
    6.5177    8.9684    4.5856 H   0  0  0  0  0  0  0  0  0  0  0  0
    7.6010   10.2559    5.0787 H   0  0  0  0  0  0  0  0  0  0  0  0
    8.3334    8.6410    4.5693 H   0  0  0  0  0  0  0  0  0  0  0  0
    5.7769   10.8716    0.4012 H   0  0  0  0  0  0  0  0  0  0  0  0
   12.5140   10.8130    1.7145 H   0  0  0  0  0  0  0  0  0  0  0  0
   13.3022   12.9986    2.3339 H   0  0  0  0  0  0  0  0  0  0  0  0
   12.2683   12.5983    3.7472 H   0  0  0  0  0  0  0  0  0  0  0  0
   12.0460   14.0028    0.2671 H   0  0  0  0  0  0  0  0  0  0  0  0
   10.5145   15.8638   -0.3234 H   0  0  0  0  0  0  0  0  0  0  0  0
    8.9872   15.8752    3.7052 H   0  0  0  0  0  0  0  0  0  0  0  0
   10.5083   14.0016    4.2826 H   0  0  0  0  0  0  0  0  0  0  0  0
    9.0731   18.0934   -0.3633 H   0  0  0  0  0  0  0  0  0  0  0  0
   10.5000   17.9707    0.6909 H   0  0  0  0  0  0  0  0  0  0  0  0
    9.1432   19.0898    1.1577 H   0  0  0  0  0  0  0  0  0  0  0  0
    8.0851   11.4255   -1.7427 H   0  0  0  0  0  0  0  0  0  0  0  0
    7.0233   13.7577   -0.5410 H   0  0  0  0  0  0  0  0  0  0  0  0
    8.7631   14.1159   -0.8081 H   0  0  0  0  0  0  0  0  0  0  0  0
    6.8989   13.0526   -2.9955 H   0  0  0  0  0  0  0  0  0  0  0  0
    7.2158   14.7999   -2.7252 H   0  0  0  0  0  0  0  0  0  0  0  0
    9.2426   12.6209   -3.4581 H   0  0  0  0  0  0  0  0  0  0  0  0
    9.7092   14.2729   -2.9289 H   0  0  0  0  0  0  0  0  0  0  0  0
    7.9041   13.7327   -5.1249 H   0  0  0  0  0  0  0  0  0  0  0  0
  1  2  1  0  0  0  0
  1 26  1  0  0  0  0
  1 27  1  0  0  0  0
  1 28  1  0  0  0  0
  2  6  1  0  0  0  0
  2  3  1  0  0  0  0
  3 10  2  0  0  0  0
  3  4  1  0  0  0  0
  4  5  1  0  0  0  0
  4  7  2  0  0  0  0
  5  6  2  0  0  0  0
  5 29  1  0  0  0  0
  7  8  1  0  0  0  0
  7 21  1  0  0  0  0
  8  9  2  0  0  0  0
  9 10  1  0  0  0  0
  9 11  1  0  0  0  0
 11 12  1  0  0  0  0
 11 30  1  0  0  0  0
 12 13  1  0  0  0  0
 12 31  1  0  0  0  0
 12 32  1  0  0  0  0
 13 18  2  0  0  0  0
 13 14  1  0  0  0  0
 14 15  2  0  0  0  0
 14 33  1  0  0  0  0
 15 16  1  0  0  0  0
 15 34  1  0  0  0  0
 16 17  2  0  0  0  0
 16 19  1  0  0  0  0
 17 18  1  0  0  0  0
 17 35  1  0  0  0  0
 18 36  1  0  0  0  0
 19 20  1  0  0  0  0
 20 37  1  0  0  0  0
 20 38  1  0  0  0  0
 20 39  1  0  0  0  0
 21 22  1  0  0  0  0
 21 40  1  0  0  0  0
 22 23  1  0  0  0  0
 22 41  1  0  0  0  0
 22 42  1  0  0  0  0
 23 24  1  0  0  0  0
 23 43  1  0  0  0  0
 23 44  1  0  0  0  0
 24 25  1  0  0  0  0
 24 45  1  0  0  0  0
 24 46  1  0  0  0  0
 25 47  1  0  0  0  0
M  END
> <Name>
ZINC20744634

> <reference>
BDB5003

> <quality>
0.685

> <status>
decoy

> <atoms in reference ligand area>
26

> <score>
-31.8947

$$$$
ZINC04777692
      BALL 1.4.0 (Jan  4 2012, 23:22:29)

 41 42  0999  0  0  0  0  0  0999 V2000
   10.7499   12.6320    3.5854 C   0  0  0  0  0  0  0  0  0  0  0  0
    9.9708   13.2120    2.4751 C   0  0  0  0  0  0  0  0  0  0  0  0
    8.6193   13.2074    2.1539 C   0  0  0  0  0  0  0  0  0  0  0  0
    8.4618   13.8894    1.0455 N   0  0  0  0  0  0  0  0  0  0  0  0
    9.7096   14.3618    0.6056 N   0  0  0  0  0  0  0  0  0  0  0  0
   10.6480   13.9470    1.4770 C   0  0  0  0  0  0  0  0  0  0  0  0
   11.9845   14.1061    1.5361 N   0  0  0  0  0  0  0  0  0  0  0  0
   12.6674   13.4570    2.4442 C   0  0  0  0  0  0  0  0  0  0  0  0
   12.1159   12.5500    3.2997 N   0  0  0  0  0  0  0  0  0  0  0  0
   12.9421   11.5053    3.9098 C   0  0  0  0  0  0  0  0  0  0  0  0
   13.7545   10.7981    2.8232 C   0  0  0  0  0  0  0  0  0  0  0  0
   14.3205    9.4899    3.3796 C   0  0  0  0  0  0  0  0  0  0  0  0
   15.1328    8.7827    2.2929 C   0  0  0  0  0  0  0  0  0  0  0  0
   15.6987    7.4745    2.8494 C   0  0  0  0  0  0  0  0  0  0  0  0
   16.5111    6.7673    1.7628 C   0  0  0  0  0  0  0  0  0  0  0  0
   15.7857    6.7948    0.5319 O   0  0  0  0  0  0  0  0  0  0  0  0
   16.5429    7.7580    3.9670 O   0  0  0  0  0  0  0  0  0  0  0  0
   14.2886    8.4993    1.1755 O   0  0  0  0  0  0  0  0  0  0  0  0
   15.1647    9.7734    4.4971 O   0  0  0  0  0  0  0  0  0  0  0  0
   12.9103   10.5147    1.7057 O   0  0  0  0  0  0  0  0  0  0  0  0
    9.9483   15.1675   -0.5944 C   0  0  0  0  0  0  0  0  0  0  0  0
   10.2726   12.2123    4.7563 N   0  0  0  0  0  0  0  0  0  0  0  0
    7.8204   12.7170    2.7294 H   0  0  0  0  0  0  0  0  0  0  0  0
   13.7467   13.6542    2.5217 H   0  0  0  0  0  0  0  0  0  0  0  0
   12.2953   10.7744    4.4172 H   0  0  0  0  0  0  0  0  0  0  0  0
   13.6265   11.9595    4.6414 H   0  0  0  0  0  0  0  0  0  0  0  0
   14.5817   11.4483    2.5022 H   0  0  0  0  0  0  0  0  0  0  0  0
   13.4933    8.8397    3.7007 H   0  0  0  0  0  0  0  0  0  0  0  0
   15.9600    9.4328    1.9719 H   0  0  0  0  0  0  0  0  0  0  0  0
   14.8715    6.8243    3.1704 H   0  0  0  0  0  0  0  0  0  0  0  0
   17.4744    7.2820    1.6316 H   0  0  0  0  0  0  0  0  0  0  0  0
   16.6905    5.7231    2.0586 H   0  0  0  0  0  0  0  0  0  0  0  0
   15.7638    7.7204    0.1812 H   0  0  0  0  0  0  0  0  0  0  0  0
   16.6970    8.7342    4.0262 H   0  0  0  0  0  0  0  0  0  0  0  0
   14.5449    9.0758    0.4125 H   0  0  0  0  0  0  0  0  0  0  0  0
   15.4500   10.7208    4.4645 H   0  0  0  0  0  0  0  0  0  0  0  0
   13.4479   10.5224    0.8743 H   0  0  0  0  0  0  0  0  0  0  0  0
    9.0448   15.7929   -0.6432 H   0  0  0  0  0  0  0  0  0  0  0  0
    9.8413   14.4277   -1.4014 H   0  0  0  0  0  0  0  0  0  0  0  0
   10.8890   15.7366   -0.6309 H   0  0  0  0  0  0  0  0  0  0  0  0
   10.9198   11.8236    5.4569 H   0  0  0  0  0  0  0  0  0  0  0  0
  1  9  1  0  0  0  0
  1  2  1  0  0  0  0
  1 22  2  0  0  0  0
  2  6  2  0  0  0  0
  2  3  1  0  0  0  0
  3  4  2  0  0  0  0
  3 23  1  0  0  0  0
  4  5  1  0  0  0  0
  5  6  1  0  0  0  0
  5 21  1  0  0  0  0
  6  7  1  0  0  0  0
  7  8  2  0  0  0  0
  8  9  1  0  0  0  0
  8 24  1  0  0  0  0
  9 10  1  0  0  0  0
 10 11  1  0  0  0  0
 10 25  1  0  0  0  0
 10 26  1  0  0  0  0
 11 12  1  0  0  0  0
 11 20  1  0  0  0  0
 11 27  1  0  0  0  0
 12 13  1  0  0  0  0
 12 19  1  0  0  0  0
 12 28  1  0  0  0  0
 13 14  1  0  0  0  0
 13 18  1  0  0  0  0
 13 29  1  0  0  0  0
 14 15  1  0  0  0  0
 14 17  1  0  0  0  0
 14 30  1  0  0  0  0
 15 16  1  0  0  0  0
 15 31  1  0  0  0  0
 15 32  1  0  0  0  0
 16 33  1  0  0  0  0
 17 34  1  0  0  0  0
 18 35  1  0  0  0  0
 19 36  1  0  0  0  0
 20 37  1  0  0  0  0
 21 38  1  0  0  0  0
 21 39  1  0  0  0  0
 21 40  1  0  0  0  0
 22 41  1  0  0  0  0
M  END
> <Name>
ZINC04777692

> <reference>
BDB4934

> <quality>
0.663

> <status>
decoy

> <atoms in reference ligand area>
10

> <score>
-31.1537

$$$$
ZINC02861235
      BALL 1.4.0 (Jan  4 2012, 23:22:29)

 53 54  0999  0  0  0  0  0  0999 V2000
   -1.0276    5.8168    5.0116 C   0  0  0  0  0  0  0  0  0  0  0  0
   -0.1346    6.3733    6.1224 C   0  0  0  0  0  0  0  0  0  0  0  0
    0.8125    5.2764    6.6130 C   0  0  0  0  0  0  0  0  0  0  0  0
    1.7785    4.9925    5.5991 O   0  0  0  0  0  0  0  0  0  0  0  0
    2.8318    5.8449    5.4945 C   0  0  0  0  0  0  0  0  0  0  0  0
    2.6369    7.2111    5.6368 C   0  0  0  0  0  0  0  0  0  0  0  0
    3.7091    8.0754    5.5296 C   0  0  0  0  0  0  0  0  0  0  0  0
    4.9757    7.5801    5.2803 C   0  0  0  0  0  0  0  0  0  0  0  0
    5.1717    6.2195    5.1324 C   0  0  0  0  0  0  0  0  0  0  0  0
    4.1037    5.3504    5.2448 C   0  0  0  0  0  0  0  0  0  0  0  0
    6.1435    8.5254    5.1634 C   0  0  0  0  0  0  0  0  0  0  0  0
    6.5402    8.6665    3.6924 C   0  0  0  0  0  0  0  0  0  0  0  0
    7.0124   10.0973    3.4265 C   0  0  0  0  0  0  0  0  0  0  0  0
    8.4215   11.1867    1.7863 C   0  0  0  0  0  0  0  0  0  0  0  0
    8.0611   10.7151    0.3762 C   0  0  0  0  0  0  0  0  0  0  0  0
    6.5710   10.5114    0.2803 C   0  0  0  0  0  0  0  0  0  0  0  0
    6.1018    9.9175   -0.6616 O   0  0  0  0  0  0  0  0  0  0  0  0
    9.8378   11.7017    1.7970 C   0  0  0  0  0  0  0  0  0  0  0  0
   10.8942   10.8221    1.6522 C   0  0  0  0  0  0  0  0  0  0  0  0
   12.1933   11.2947    1.6617 C   0  0  0  0  0  0  0  0  0  0  0  0
   12.4358   12.6469    1.8154 C   0  0  0  0  0  0  0  0  0  0  0  0
   11.3793   13.5265    1.9601 C   0  0  0  0  0  0  0  0  0  0  0  0
   10.0802   13.0540    1.9506 C   0  0  0  0  0  0  0  0  0  0  0  0
    7.2494    8.0106    5.9076 O   0  0  0  0  0  0  0  0  0  0  0  0
    8.3104   10.0558    2.7268 N   0  3  0  0  0  0  0  0  0  0  0  0
    5.7650   10.9897    1.2412 O   0  5  0  0  0  0  0  0  0  0  0  0
   -0.5415    5.9713    4.0369 H   0  0  0  0  0  0  0  0  0  0  0  0
   -1.9968    6.3370    5.0237 H   0  0  0  0  0  0  0  0  0  0  0  0
   -1.1881    4.7408    5.1736 H   0  0  0  0  0  0  0  0  0  0  0  0
    0.4534    7.2171    5.7322 H   0  0  0  0  0  0  0  0  0  0  0  0
   -0.7600    6.7180    6.9591 H   0  0  0  0  0  0  0  0  0  0  0  0
    1.3269    5.6164    7.5239 H   0  0  0  0  0  0  0  0  0  0  0  0
    0.2367    4.3658    6.8353 H   0  0  0  0  0  0  0  0  0  0  0  0
    1.6294    7.6056    5.8349 H   0  0  0  0  0  0  0  0  0  0  0  0
    3.5551    9.1587    5.6428 H   0  0  0  0  0  0  0  0  0  0  0  0
    6.1787    5.8287    4.9250 H   0  0  0  0  0  0  0  0  0  0  0  0
    4.2618    4.2672    5.1365 H   0  0  0  0  0  0  0  0  0  0  0  0
    5.8594    9.5103    5.5627 H   0  0  0  0  0  0  0  0  0  0  0  0
    7.3546    7.9636    3.4631 H   0  0  0  0  0  0  0  0  0  0  0  0
    5.6724    8.4430    3.0544 H   0  0  0  0  0  0  0  0  0  0  0  0
    7.1274   10.6309    4.3815 H   0  0  0  0  0  0  0  0  0  0  0  0
    6.2737   10.6175    2.7991 H   0  0  0  0  0  0  0  0  0  0  0  0
    7.7332   11.9893    2.0895 H   0  0  0  0  0  0  0  0  0  0  0  0
    8.3747   11.4739   -0.3557 H   0  0  0  0  0  0  0  0  0  0  0  0
    8.5746    9.7659    0.1633 H   0  0  0  0  0  0  0  0  0  0  0  0
   10.7012    9.7461    1.5296 H   0  0  0  0  0  0  0  0  0  0  0  0
   13.0340   10.5947    1.5469 H   0  0  0  0  0  0  0  0  0  0  0  0
   13.4695   13.0230    1.8225 H   0  0  0  0  0  0  0  0  0  0  0  0
   11.5723   14.6025    2.0829 H   0  0  0  0  0  0  0  0  0  0  0  0
    9.2395   13.7540    2.0653 H   0  0  0  0  0  0  0  0  0  0  0  0
    6.9936    7.9187    6.8595 H   0  0  0  0  0  0  0  0  0  0  0  0
    9.0725   10.1107    3.4174 H   0  0  0  0  0  0  0  0  0  0  0  0
    8.3905    9.1706    2.2062 H   0  0  0  0  0  0  0  0  0  0  0  0
  1  2  1  0  0  0  0
  1 27  1  0  0  0  0
  1 28  1  0  0  0  0
  1 29  1  0  0  0  0
  2  3  1  0  0  0  0
  2 30  1  0  0  0  0
  2 31  1  0  0  0  0
  3  4  1  0  0  0  0
  3 32  1  0  0  0  0
  3 33  1  0  0  0  0
  4  5  1  0  0  0  0
  5 10  2  0  0  0  0
  5  6  1  0  0  0  0
  6  7  2  0  0  0  0
  6 34  1  0  0  0  0
  7  8  1  0  0  0  0
  7 35  1  0  0  0  0
  8  9  2  0  0  0  0
  8 11  1  0  0  0  0
  9 10  1  0  0  0  0
  9 36  1  0  0  0  0
 10 37  1  0  0  0  0
 11 12  1  0  0  0  0
 11 24  1  0  0  0  0
 11 38  1  0  0  0  0
 12 13  1  0  0  0  0
 12 39  1  0  0  0  0
 12 40  1  0  0  0  0
 13 25  1  0  0  0  0
 13 41  1  0  0  0  0
 13 42  1  0  0  0  0
 14 15  1  0  0  0  0
 14 18  1  0  0  0  0
 14 25  1  0  0  0  0
 14 43  1  0  0  0  0
 15 16  1  0  0  0  0
 15 44  1  0  0  0  0
 15 45  1  0  0  0  0
 16 17  2  0  0  0  0
 16 26  1  0  0  0  0
 18 23  2  0  0  0  0
 18 19  1  0  0  0  0
 19 20  2  0  0  0  0
 19 46  1  0  0  0  0
 20 21  1  0  0  0  0
 20 47  1  0  0  0  0
 21 22  2  0  0  0  0
 21 48  1  0  0  0  0
 22 23  1  0  0  0  0
 22 49  1  0  0  0  0
 23 50  1  0  0  0  0
 24 51  1  0  0  0  0
 25 52  1  0  0  0  0
 25 53  1  0  0  0  0
M  END
> <Name>
ZINC02861235

> <reference>
BDB4997

> <quality>
0.669

> <status>
decoy

> <atoms in reference ligand area>
15

> <score>
-30.9998

$$$$
ZINC20636295
      BALL 1.4.0 (Jan  4 2012, 23:22:29)

 36 37  0999  0  0  0  0  0  0999 V2000
    9.2122   14.4761   -2.4308 C   0  0  0  0  0  0  0  0  0  0  0  0
   10.4013   13.7714   -2.4485 C   0  0  0  0  0  0  0  0  0  0  0  0
   10.5896   12.7117   -1.5810 C   0  0  0  0  0  0  0  0  0  0  0  0
    9.5886   12.3564   -0.6963 C   0  0  0  0  0  0  0  0  0  0  0  0
    8.3974   13.0575   -0.6826 C   0  0  0  0  0  0  0  0  0  0  0  0
    8.2112   14.1208   -1.5461 C   0  0  0  0  0  0  0  0  0  0  0  0
    9.7937   11.2008    0.2491 C   0  0  0  0  0  0  0  0  0  0  0  0
   11.1957   10.7778    0.2062 N   0  0  0  0  0  0  0  0  0  0  0  0
   11.7139   10.0589    1.2217 C   0  0  0  0  0  0  0  0  0  0  0  0
   11.0198    9.7623    2.1709 O   0  0  0  0  0  0  0  0  0  0  0  0
   13.1561    9.6238    1.1776 C   0  0  0  0  0  0  0  0  0  0  0  0
   13.4878    8.8287    2.4420 C   0  5  0  0  0  0  0  0  0  0  0  0
   14.9932    8.6820    2.6285 C   0  0  0  0  0  0  0  0  0  0  0  0
   15.7042    8.0965    1.8351 O   0  0  0  0  0  0  0  0  0  0  0  0
   15.4523    9.2417    3.7173 N   0  0  0  0  0  0  0  0  0  0  0  0
   14.7026    9.8842    4.5968 C   0  0  0  0  0  0  0  0  0  0  0  0
   13.0905    9.7850    3.9595 S   0  0  0  0  0  0  0  0  0  0  0  0
   15.1080   10.4931    5.7541 N   0  0  0  0  0  0  0  0  0  0  0  0
   16.3763   11.0306    5.8437 C   0  0  0  0  0  0  0  0  0  0  0  0
   16.5948   12.0592    6.6116 N   0  3  0  0  0  0  0  0  0  0  0  0
   17.4086   10.4799    5.1222 N   0  0  0  0  0  0  0  0  0  0  0  0
    9.0625   15.3196   -3.1208 H   0  0  0  0  0  0  0  0  0  0  0  0
   11.1977   14.0538   -3.1527 H   0  0  0  0  0  0  0  0  0  0  0  0
   11.5359   12.1512   -1.5947 H   0  0  0  0  0  0  0  0  0  0  0  0
    7.5976   12.7692    0.0154 H   0  0  0  0  0  0  0  0  0  0  0  0
    7.2666   14.6842   -1.5291 H   0  0  0  0  0  0  0  0  0  0  0  0
    9.5368   11.5135    1.2719 H   0  0  0  0  0  0  0  0  0  0  0  0
    9.1490   10.3615   -0.0506 H   0  0  0  0  0  0  0  0  0  0  0  0
   11.7852   11.0298   -0.5999 H   0  0  0  0  0  0  0  0  0  0  0  0
   13.3214    8.9909    0.2933 H   0  0  0  0  0  0  0  0  0  0  0  0
   13.8059   10.5095    1.1214 H   0  0  0  0  0  0  0  0  0  0  0  0
   14.4665   10.5502    6.5580 H   0  0  0  0  0  0  0  0  0  0  0  0
   15.8213   12.4718    7.1522 H   0  0  0  0  0  0  0  0  0  0  0  0
   17.5412   12.4602    6.6784 H   0  0  0  0  0  0  0  0  0  0  0  0
   18.1882   11.0731    4.8037 H   0  0  0  0  0  0  0  0  0  0  0  0
   17.4027    9.4742    4.9001 H   0  0  0  0  0  0  0  0  0  0  0  0
  1  6  2  0  0  0  0
  1  2  1  0  0  0  0
  1 22  1  0  0  0  0
  2  3  2  0  0  0  0
  2 23  1  0  0  0  0
  3  4  1  0  0  0  0
  3 24  1  0  0  0  0
  4  5  2  0  0  0  0
  4  7  1  0  0  0  0
  5  6  1  0  0  0  0
  5 25  1  0  0  0  0
  6 26  1  0  0  0  0
  7  8  1  0  0  0  0
  7 27  1  0  0  0  0
  7 28  1  0  0  0  0
  8  9  1  0  0  0  0
  8 29  1  0  0  0  0
  9 10  2  0  0  0  0
  9 11  1  0  0  0  0
 11 12  1  0  0  0  0
 11 30  1  0  0  0  0
 11 31  1  0  0  0  0
 12 17  1  0  0  0  0
 12 13  1  0  0  0  0
 13 14  2  0  0  0  0
 13 15  1  0  0  0  0
 15 16  2  0  0  0  0
 16 17  1  0  0  0  0
 16 18  1  0  0  0  0
 18 19  1  0  0  0  0
 18 32  1  0  0  0  0
 19 20  2  0  0  0  0
 19 21  1  0  0  0  0
 20 33  1  0  0  0  0
 20 34  1  0  0  0  0
 21 35  1  0  0  0  0
 21 36  1  0  0  0  0
M  END
> <Name>
ZINC20636295

> <reference>
BDB5200

> <quality>
0.830

> <status>
decoy

> <atoms in reference ligand area>
15

> <score>
-30.5402

$$$$
ZINC15636405
      BALL 1.4.0 (Jan  4 2012, 23:22:29)

 56 59  0999  0  0  0  0  0  0999 V2000
    9.2377    8.9112    5.7981 C   0  0  0  0  0  0  0  0  0  0  0  0
   10.1078    9.8699    5.3098 C   0  0  0  0  0  0  0  0  0  0  0  0
   10.1539   10.1396    3.9579 C   0  0  0  0  0  0  0  0  0  0  0  0
    9.3193    9.4423    3.0811 C   0  0  0  0  0  0  0  0  0  0  0  0
    8.4390    8.4801    3.5819 C   0  0  0  0  0  0  0  0  0  0  0  0
    8.4081    8.2166    4.9356 C   0  0  0  0  0  0  0  0  0  0  0  0
    9.3630    9.7249    1.6344 C   0  0  0  0  0  0  0  0  0  0  0  0
    8.4671    9.2144    0.8463 N   0  0  0  0  0  0  0  0  0  0  0  0
    7.5387    8.2917    1.3457 N   0  0  0  0  0  0  0  0  0  0  0  0
    6.3419    8.7169    1.7969 C   0  0  0  0  0  0  0  0  0  0  0  0
    6.2348    9.8258    2.2839 O   0  0  0  0  0  0  0  0  0  0  0  0
    5.1599    7.8351    1.6998 C   0  0  0  0  0  0  0  0  0  0  0  0
    4.6012    7.2817    2.8534 C   0  0  0  0  0  0  0  0  0  0  0  0
    3.4951    6.4633    2.7560 C   0  0  0  0  0  0  0  0  0  0  0  0
    2.9460    6.1816    1.5174 C   0  0  0  0  0  0  0  0  0  0  0  0
    3.4943    6.7270    0.3704 C   0  0  0  0  0  0  0  0  0  0  0  0
    4.5975    7.5514    0.4541 C   0  0  0  0  0  0  0  0  0  0  0  0
    2.8965    6.4251   -0.9496 N   0  0  0  0  0  0  0  0  0  0  0  0
    1.8062    6.8817   -1.2431 O   0  0  0  0  0  0  0  0  0  0  0  0
    3.4950    5.7201   -1.7423 O   0  0  0  0  0  0  0  0  0  0  0  0
   10.4477   10.6065    1.0713 C   0  0  0  0  0  0  0  0  0  0  0  0
   10.1491   12.0666    1.4171 C   0  0  0  0  0  0  0  0  0  0  0  0
   11.1652   12.9585    0.7513 C   0  0  0  0  0  0  0  0  0  0  0  0
   11.8835   13.9283    1.3294 C   0  0  0  0  0  0  0  0  0  0  0  0
   12.0197   14.4236   -0.8662 C   0  0  0  0  0  0  0  0  0  0  0  0
   11.5768   12.9322   -0.6849 C   0  0  0  0  0  0  0  0  0  0  0  0
   10.5675   12.6714   -1.7479 C   0  0  0  0  0  0  0  0  0  0  0  0
   10.9114   13.1187   -2.9739 C   0  0  0  0  0  0  0  0  0  0  0  0
   12.2132   13.7893   -3.1701 C   0  0  0  0  0  0  0  0  0  0  0  0
   12.7796   14.4832   -2.1471 C   0  0  0  0  0  0  0  0  0  0  0  0
    8.7692   12.4263    0.9298 C   0  0  0  0  0  0  0  0  0  0  0  0
    8.5523   12.5200   -0.2551 O   0  0  0  0  0  0  0  0  0  0  0  0
   12.6898   14.5609    0.3955 N   0  3  0  0  0  0  0  0  0  0  0  0
    7.7810   12.6424    1.8122 O   0  5  0  0  0  0  0  0  0  0  0  0
    9.2055    8.7002    6.8772 H   0  0  0  0  0  0  0  0  0  0  0  0
   10.7642   10.4183    6.0014 H   0  0  0  0  0  0  0  0  0  0  0  0
   10.8462   10.9018    3.5711 H   0  0  0  0  0  0  0  0  0  0  0  0
    7.7721    7.9340    2.8985 H   0  0  0  0  0  0  0  0  0  0  0  0
    7.7223    7.4525    5.3303 H   0  0  0  0  0  0  0  0  0  0  0  0
    7.7706    7.2884    1.3680 H   0  0  0  0  0  0  0  0  0  0  0  0
    5.0421    7.4978    3.8378 H   0  0  0  0  0  0  0  0  0  0  0  0
    3.0485    6.0337    3.6649 H   0  0  0  0  0  0  0  0  0  0  0  0
    2.0695    5.5210    1.4446 H   0  0  0  0  0  0  0  0  0  0  0  0
    5.0329    7.9841   -0.4586 H   0  0  0  0  0  0  0  0  0  0  0  0
   10.4860   10.4898   -0.0219 H   0  0  0  0  0  0  0  0  0  0  0  0
   11.4167   10.3183    1.5049 H   0  0  0  0  0  0  0  0  0  0  0  0
   10.2001   12.2029    2.5075 H   0  0  0  0  0  0  0  0  0  0  0  0
   11.8402   14.1876    2.3975 H   0  0  0  0  0  0  0  0  0  0  0  0
   11.3129   15.2552   -1.0042 H   0  0  0  0  0  0  0  0  0  0  0  0
   12.2805   12.0982   -0.8228 H   0  0  0  0  0  0  0  0  0  0  0  0
    9.6168   12.1549   -1.5497 H   0  0  0  0  0  0  0  0  0  0  0  0
   10.2254   12.9847   -3.8233 H   0  0  0  0  0  0  0  0  0  0  0  0
   12.7236   13.7272   -4.1426 H   0  0  0  0  0  0  0  0  0  0  0  0
   13.7206   15.0423   -2.2557 H   0  0  0  0  0  0  0  0  0  0  0  0
   12.7880   15.5583    0.6332 H   0  0  0  0  0  0  0  0  0  0  0  0
   13.6105   14.1009    0.3548 H   0  0  0  0  0  0  0  0  0  0  0  0
  1  6  2  0  0  0  0
  1  2  1  0  0  0  0
  1 35  1  0  0  0  0
  2  3  2  0  0  0  0
  2 36  1  0  0  0  0
  3  4  1  0  0  0  0
  3 37  1  0  0  0  0
  4  5  2  0  0  0  0
  4  7  1  0  0  0  0
  5  6  1  0  0  0  0
  5 38  1  0  0  0  0
  6 39  1  0  0  0  0
  7  8  2  0  0  0  0
  7 21  1  0  0  0  0
  8  9  1  0  0  0  0
  9 10  1  0  0  0  0
  9 40  1  0  0  0  0
 10 11  2  0  0  0  0
 10 12  1  0  0  0  0
 12 17  2  0  0  0  0
 12 13  1  0  0  0  0
 13 14  2  0  0  0  0
 13 41  1  0  0  0  0
 14 15  1  0  0  0  0
 14 42  1  0  0  0  0
 15 16  2  0  0  0  0
 15 43  1  0  0  0  0
 16 17  1  0  0  0  0
 16 18  1  0  0  0  0
 17 44  1  0  0  0  0
 18 19  2  0  0  0  0
 18 20  2  0  0  0  0
 21 22  1  0  0  0  0
 21 45  1  0  0  0  0
 21 46  1  0  0  0  0
 22 23  1  0  0  0  0
 22 31  1  0  0  0  0
 22 47  1  0  0  0  0
 23 26  1  0  0  0  0
 23 24  2  0  0  0  0
 24 33  1  0  0  0  0
 24 48  1  0  0  0  0
 25 30  1  0  0  0  0
 25 26  1  0  0  0  0
 25 33  1  0  0  0  0
 25 49  1  0  0  0  0
 26 27  1  0  0  0  0
 26 50  1  0  0  0  0
 27 28  2  0  0  0  0
 27 51  1  0  0  0  0
 28 29  1  0  0  0  0
 28 52  1  0  0  0  0
 29 30  2  0  0  0  0
 29 53  1  0  0  0  0
 30 54  1  0  0  0  0
 31 32  2  0  0  0  0
 31 34  1  0  0  0  0
 33 55  1  0  0  0  0
 33 56  1  0  0  0  0
M  END
> <Name>
ZINC15636405

> <reference>
BDB4968

> <quality>
0.817

> <status>
decoy

> <atoms in reference ligand area>
19

> <score>
-30.4138

$$$$
ZINC05114471
      BALL 1.4.0 (Jan  4 2012, 23:22:29)

 41 41  0999  0  0  0  0  0  0999 V2000
    8.7922   14.4600   -3.3493 C   0  0  0  0  0  0  0  0  0  0  0  0
    9.5777   13.6197   -2.3404 C   0  0  0  0  0  0  0  0  0  0  0  0
   10.5989   12.7550   -3.0822 C   0  0  0  0  0  0  0  0  0  0  0  0
    8.6132   12.7189   -1.5662 C   0  0  0  0  0  0  0  0  0  0  0  0
    8.7948   12.9488   -0.0646 C   0  0  0  0  0  0  0  0  0  0  0  0
    8.3232   11.7328    0.6904 C   0  0  0  0  0  0  0  0  0  0  0  0
    9.0996   10.8351    0.9399 O   0  0  0  0  0  0  0  0  0  0  0  0
    7.0387   11.6428    1.0883 N   0  0  0  0  0  0  0  0  0  0  0  0
   10.3993   13.6464    1.6093 C   0  0  0  0  0  0  0  0  0  0  0  0
   11.8179   13.3113    2.0743 C   0  0  0  0  0  0  0  0  0  0  0  0
   11.9160   11.8357    2.3641 C   0  0  0  0  0  0  0  0  0  0  0  0
   11.4162   11.1932    3.4369 C   0  0  0  0  0  0  0  0  0  0  0  0
   11.7165    9.8914    3.3181 N   0  0  0  0  0  0  0  0  0  0  0  0
   12.3835    9.7027    2.2124 C   0  0  0  0  0  0  0  0  0  0  0  0
   12.5254   10.8899    1.5844 N   0  0  0  0  0  0  0  0  0  0  0  0
   10.1889   15.1373    1.6726 C   0  0  0  0  0  0  0  0  0  0  0  0
   10.0539   15.7722    0.6535 O   0  0  0  0  0  0  0  0  0  0  0  0
   10.2231   13.1827    0.2200 N   0  0  0  0  0  0  0  0  0  0  0  0
   10.1515   15.7599    2.8612 O   0  5  0  0  0  0  0  0  0  0  0  0
    7.2187   13.0237   -1.9320 N   0  3  0  0  0  0  0  0  0  0  0  0
    9.3061   15.4195   -3.5078 H   0  0  0  0  0  0  0  0  0  0  0  0
    7.7794   14.6467   -2.9628 H   0  0  0  0  0  0  0  0  0  0  0  0
    8.7249   13.9190   -4.3047 H   0  0  0  0  0  0  0  0  0  0  0  0
   10.1017   14.2848   -1.6383 H   0  0  0  0  0  0  0  0  0  0  0  0
   10.7698   11.8246   -2.5208 H   0  0  0  0  0  0  0  0  0  0  0  0
   11.5468   13.3050   -3.1767 H   0  0  0  0  0  0  0  0  0  0  0  0
   10.2157   12.5120   -4.0842 H   0  0  0  0  0  0  0  0  0  0  0  0
    8.8318   11.6706   -1.8181 H   0  0  0  0  0  0  0  0  0  0  0  0
    8.2070   13.8236    0.2504 H   0  0  0  0  0  0  0  0  0  0  0  0
    6.7506   10.8926    1.7326 H   0  0  0  0  0  0  0  0  0  0  0  0
    6.3452   12.3241    0.7481 H   0  0  0  0  0  0  0  0  0  0  0  0
    9.6679   13.1471    2.2617 H   0  0  0  0  0  0  0  0  0  0  0  0
   12.5354   13.5778    1.2844 H   0  0  0  0  0  0  0  0  0  0  0  0
   12.0495   13.8797    2.9872 H   0  0  0  0  0  0  0  0  0  0  0  0
   10.8592   11.6550    4.2654 H   0  0  0  0  0  0  0  0  0  0  0  0
   12.7667    8.7368    1.8517 H   0  0  0  0  0  0  0  0  0  0  0  0
   13.0029   11.0531    0.6865 H   0  0  0  0  0  0  0  0  0  0  0  0
   10.5885   13.8965   -0.4263 H   0  0  0  0  0  0  0  0  0  0  0  0
    7.1468   14.0194   -2.1856 H   0  0  0  0  0  0  0  0  0  0  0  0
    6.6094   12.8349   -1.1234 H   0  0  0  0  0  0  0  0  0  0  0  0
    6.9289   12.4400   -2.7297 H   0  0  0  0  0  0  0  0  0  0  0  0
  1  2  1  0  0  0  0
  1 21  1  0  0  0  0
  1 22  1  0  0  0  0
  1 23  1  0  0  0  0
  2  3  1  0  0  0  0
  2  4  1  0  0  0  0
  2 24  1  0  0  0  0
  3 25  1  0  0  0  0
  3 26  1  0  0  0  0
  3 27  1  0  0  0  0
  4  5  1  0  0  0  0
  4 20  1  0  0  0  0
  4 28  1  0  0  0  0
  5  6  1  0  0  0  0
  5 18  1  0  0  0  0
  5 29  1  0  0  0  0
  6  7  2  0  0  0  0
  6  8  1  0  0  0  0
  8 30  1  0  0  0  0
  8 31  1  0  0  0  0
  9 10  1  0  0  0  0
  9 16  1  0  0  0  0
  9 18  1  0  0  0  0
  9 32  1  0  0  0  0
 10 11  1  0  0  0  0
 10 33  1  0  0  0  0
 10 34  1  0  0  0  0
 11 15  1  0  0  0  0
 11 12  2  0  0  0  0
 12 13  1  0  0  0  0
 12 35  1  0  0  0  0
 13 14  2  0  0  0  0
 14 15  1  0  0  0  0
 14 36  1  0  0  0  0
 15 37  1  0  0  0  0
 16 17  2  0  0  0  0
 16 19  1  0  0  0  0
 18 38  1  0  0  0  0
 20 39  1  0  0  0  0
 20 40  1  0  0  0  0
 20 41  1  0  0  0  0
M  END
> <Name>
ZINC05114471

> <reference>
BDB5021

> <quality>
0.683

> <status>
decoy

> <atoms in reference ligand area>
31

> <score>
-30.2488

$$$$
ZINC06413685
      BALL 1.4.0 (Jan  4 2012, 23:22:29)

 35 36  0999  0  0  0  0  0  0999 V2000
    7.4514   13.3497    2.3034 C   0  0  0  0  0  0  0  0  0  0  0  0
    8.0731   12.0232    2.3199 N   0  0  0  0  0  0  0  0  0  0  0  0
    9.4091   11.8889    2.6625 C   0  0  0  0  0  0  0  0  0  0  0  0
    9.9746   10.6180    2.6696 C   0  0  0  0  0  0  0  0  0  0  0  0
    9.1780    9.5105    2.3305 C   0  0  0  0  0  0  0  0  0  0  0  0
    9.6524    8.3879    2.3297 O   0  0  0  0  0  0  0  0  0  0  0  0
    7.8828    9.7033    2.0055 N   0  0  0  0  0  0  0  0  0  0  0  0
    7.3475   10.9361    1.9964 C   0  0  0  0  0  0  0  0  0  0  0  0
    6.1778   11.0726    1.6930 O   0  0  0  0  0  0  0  0  0  0  0  0
    7.0489    8.5520    1.6515 C   0  0  0  0  0  0  0  0  0  0  0  0
   11.3019   10.7824    3.0433 N   0  5  0  0  0  0  0  0  0  0  0  0
   11.4895   12.1148    3.2445 C   0  0  0  0  0  0  0  0  0  0  0  0
   10.3600   12.7549    3.0150 N   0  0  0  0  0  0  0  0  0  0  0  0
   13.0054   12.8674    3.7349 S   0  0  0  0  0  0  0  0  0  0  0  0
   13.8566   11.4320    4.4357 C   0  0  0  0  0  0  0  0  0  0  0  0
   15.1025   11.8869    5.1513 C   0  0  0  0  0  0  0  0  0  0  0  0
   15.7909   12.7632    4.6729 O   0  0  0  0  0  0  0  0  0  0  0  0
   15.4516   11.3198    6.3231 N   0  0  0  0  0  0  0  0  0  0  0  0
   16.6626   11.7619    7.0188 C   0  0  0  0  0  0  0  0  0  0  0  0
   17.5088   10.5437    7.3941 C   0  0  0  0  0  0  0  0  0  0  0  0
   18.4915   10.9253    8.3588 O   0  0  0  0  0  0  0  0  0  0  0  0
    6.5961   13.2571    1.6180 H   0  0  0  0  0  0  0  0  0  0  0  0
    8.1887   14.0062    1.8183 H   0  0  0  0  0  0  0  0  0  0  0  0
    7.1546   13.7148    3.2978 H   0  0  0  0  0  0  0  0  0  0  0  0
    6.0922    8.9785    1.3157 H   0  0  0  0  0  0  0  0  0  0  0  0
    6.8596    8.0278    2.5999 H   0  0  0  0  0  0  0  0  0  0  0  0
    7.5014    7.8946    0.8944 H   0  0  0  0  0  0  0  0  0  0  0  0
   14.1313   10.7371    3.6285 H   0  0  0  0  0  0  0  0  0  0  0  0
   13.1908   10.9224    5.1478 H   0  0  0  0  0  0  0  0  0  0  0  0
   14.8669   10.5755    6.7294 H   0  0  0  0  0  0  0  0  0  0  0  0
   16.3835   12.3088    7.9315 H   0  0  0  0  0  0  0  0  0  0  0  0
   17.2443   12.4224    6.3590 H   0  0  0  0  0  0  0  0  0  0  0  0
   16.8605    9.7641    7.8205 H   0  0  0  0  0  0  0  0  0  0  0  0
   18.0099   10.1532    6.4961 H   0  0  0  0  0  0  0  0  0  0  0  0
   18.7398   11.8737    8.2210 H   0  0  0  0  0  0  0  0  0  0  0  0
  1  2  1  0  0  0  0
  1 22  1  0  0  0  0
  1 23  1  0  0  0  0
  1 24  1  0  0  0  0
  2  8  1  0  0  0  0
  2  3  1  0  0  0  0
  3 13  1  0  0  0  0
  3  4  2  0  0  0  0
  4  5  1  0  0  0  0
  4 11  1  0  0  0  0
  5  6  2  0  0  0  0
  5  7  1  0  0  0  0
  7  8  1  0  0  0  0
  7 10  1  0  0  0  0
  8  9  2  0  0  0  0
 10 25  1  0  0  0  0
 10 26  1  0  0  0  0
 10 27  1  0  0  0  0
 11 12  1  0  0  0  0
 12 13  2  0  0  0  0
 12 14  1  0  0  0  0
 14 15  1  0  0  0  0
 15 16  1  0  0  0  0
 15 28  1  0  0  0  0
 15 29  1  0  0  0  0
 16 17  2  0  0  0  0
 16 18  1  0  0  0  0
 18 19  1  0  0  0  0
 18 30  1  0  0  0  0
 19 20  1  0  0  0  0
 19 31  1  0  0  0  0
 19 32  1  0  0  0  0
 20 21  1  0  0  0  0
 20 33  1  0  0  0  0
 20 34  1  0  0  0  0
 21 35  1  0  0  0  0
M  END
> <Name>
ZINC06413685

> <reference>
BDB4932

> <quality>
0.694

> <status>
decoy

> <atoms in reference ligand area>
12

> <score>
-30.2167

$$$$
ZINC30969187
      BALL 1.4.0 (Jan  4 2012, 23:22:29)

 60 61  0999  0  0  0  0  0  0999 V2000
   10.9860   13.2927   -3.2192 C   0  0  0  0  0  0  0  0  0  0  0  0
   10.9489   12.7092   -1.8054 C   0  0  0  0  0  0  0  0  0  0  0  0
   11.9166   13.4838   -0.9084 C   0  0  0  0  0  0  0  0  0  0  0  0
   11.5394   13.2643    0.5580 C   0  0  0  0  0  0  0  0  0  0  0  0
   12.5607   12.4383    1.2067 N   0  0  0  0  0  0  0  0  0  0  0  0
   12.6752   12.4394    2.5496 C   0  0  0  0  0  0  0  0  0  0  0  0
   11.9328   13.1242    3.2210 O   0  0  0  0  0  0  0  0  0  0  0  0
   13.7258   11.5896    3.2169 C   0  0  0  0  0  0  0  0  0  0  0  0
   13.0520   10.4334    3.9610 C   0  0  0  0  0  0  0  0  0  0  0  0
   14.1185    9.6097    4.6865 C   0  0  0  0  0  0  0  0  0  0  0  0
   14.8425   10.4685    5.6324 N   0  0  0  0  0  0  0  0  0  0  0  0
   15.5368   11.5588    4.9354 C   0  0  0  0  0  0  0  0  0  0  0  0
   14.5126   12.4406    4.2174 C   0  0  0  0  0  0  0  0  0  0  0  0
   15.7800    9.6824    6.4456 C   0  0  0  0  0  0  0  0  0  0  0  0
   16.4382   10.5799    7.4617 C   0  0  0  0  0  0  0  0  0  0  0  0
   16.7155   11.7242    7.1708 O   0  0  0  0  0  0  0  0  0  0  0  0
   16.7184   10.1109    8.6938 N   0  0  0  0  0  0  0  0  0  0  0  0
   18.0198    9.6970    9.0065 N   0  0  0  0  0  0  0  0  0  0  0  0
   18.6223   10.1530   10.1224 C   0  0  0  0  0  0  0  0  0  0  0  0
   18.1182   11.0544   10.7585 O   0  0  0  0  0  0  0  0  0  0  0  0
   19.9223    9.5433   10.5800 C   0  0  0  0  0  0  0  0  0  0  0  0
   21.0564   10.5506   10.3800 C   0  0  0  0  0  0  0  0  0  0  0  0
   21.0842   11.0028    8.9106 C   0  0  0  0  0  0  0  0  0  0  0  0
   22.0213   12.2396    8.8022 C   0  0  0  0  0  0  0  0  0  0  0  0
   21.5495   13.1549   10.3300 S   0  0  0  0  0  0  0  0  0  0  0  0
   20.5212   14.0833   10.0139 O   0  0  0  0  0  0  0  0  0  0  0  0
   22.7288   13.6108   10.9786 O   0  0  0  0  0  0  0  0  0  0  0  0
   20.8279   11.7714   11.3036 C   0  0  0  0  0  0  0  0  0  0  0  0
   10.2348   14.0914   -3.3072 H   0  0  0  0  0  0  0  0  0  0  0  0
   10.7653   12.5005   -3.9498 H   0  0  0  0  0  0  0  0  0  0  0  0
   11.9851   13.7068   -3.4197 H   0  0  0  0  0  0  0  0  0  0  0  0
    9.9292   12.7919   -1.4011 H   0  0  0  0  0  0  0  0  0  0  0  0
   11.2464   11.6507   -1.8365 H   0  0  0  0  0  0  0  0  0  0  0  0
   12.9423   13.1256   -1.0802 H   0  0  0  0  0  0  0  0  0  0  0  0
   11.8584   14.5565   -1.1447 H   0  0  0  0  0  0  0  0  0  0  0  0
   11.4751   14.2360    1.0695 H   0  0  0  0  0  0  0  0  0  0  0  0
   10.5661   12.7549    0.6151 H   0  0  0  0  0  0  0  0  0  0  0  0
   13.1911   11.8567    0.6365 H   0  0  0  0  0  0  0  0  0  0  0  0
   14.4091   11.1899    2.4531 H   0  0  0  0  0  0  0  0  0  0  0  0
   12.5204    9.7927    3.2420 H   0  0  0  0  0  0  0  0  0  0  0  0
   12.3375   10.8354    4.6945 H   0  0  0  0  0  0  0  0  0  0  0  0
   13.6363    8.7868    5.2344 H   0  0  0  0  0  0  0  0  0  0  0  0
   14.8259    9.1961    3.9526 H   0  0  0  0  0  0  0  0  0  0  0  0
   16.0937   12.1646    5.6653 H   0  0  0  0  0  0  0  0  0  0  0  0
   16.2369   11.1374    4.1990 H   0  0  0  0  0  0  0  0  0  0  0  0
   15.0348   13.2476    3.6824 H   0  0  0  0  0  0  0  0  0  0  0  0
   13.8218   12.8747    4.9550 H   0  0  0  0  0  0  0  0  0  0  0  0
   15.2330    8.8813    6.9643 H   0  0  0  0  0  0  0  0  0  0  0  0
   16.5491    9.2398    5.7956 H   0  0  0  0  0  0  0  0  0  0  0  0
   15.9758   10.0568    9.4055 H   0  0  0  0  0  0  0  0  0  0  0  0
   18.5162    9.0440    8.3835 H   0  0  0  0  0  0  0  0  0  0  0  0
   19.8494    9.2809   11.6458 H   0  0  0  0  0  0  0  0  0  0  0  0
   20.1302    8.6368    9.9926 H   0  0  0  0  0  0  0  0  0  0  0  0
   22.0188   10.0814   10.6322 H   0  0  0  0  0  0  0  0  0  0  0  0
   21.4723   10.1891    8.2802 H   0  0  0  0  0  0  0  0  0  0  0  0
   20.0695   11.2793    8.5882 H   0  0  0  0  0  0  0  0  0  0  0  0
   23.0772   11.9363    8.8575 H   0  0  0  0  0  0  0  0  0  0  0  0
   21.7762   12.8407    7.9141 H   0  0  0  0  0  0  0  0  0  0  0  0
   21.3798   11.6513   12.2475 H   0  0  0  0  0  0  0  0  0  0  0  0
   19.7523   11.9436   11.4570 H   0  0  0  0  0  0  0  0  0  0  0  0
  1  2  1  0  0  0  0
  1 29  1  0  0  0  0
  1 30  1  0  0  0  0
  1 31  1  0  0  0  0
  2  3  1  0  0  0  0
  2 32  1  0  0  0  0
  2 33  1  0  0  0  0
  3  4  1  0  0  0  0
  3 34  1  0  0  0  0
  3 35  1  0  0  0  0
  4  5  1  0  0  0  0
  4 36  1  0  0  0  0
  4 37  1  0  0  0  0
  5  6  1  0  0  0  0
  5 38  1  0  0  0  0
  6  7  2  0  0  0  0
  6  8  1  0  0  0  0
  8 13  1  0  0  0  0
  8  9  1  0  0  0  0
  8 39  1  0  0  0  0
  9 10  1  0  0  0  0
  9 40  1  0  0  0  0
  9 41  1  0  0  0  0
 10 11  1  0  0  0  0
 10 42  1  0  0  0  0
 10 43  1  0  0  0  0
 11 12  1  0  0  0  0
 11 14  1  0  0  0  0
 12 13  1  0  0  0  0
 12 44  1  0  0  0  0
 12 45  1  0  0  0  0
 13 46  1  0  0  0  0
 13 47  1  0  0  0  0
 14 15  1  0  0  0  0
 14 48  1  0  0  0  0
 14 49  1  0  0  0  0
 15 16  2  0  0  0  0
 15 17  1  0  0  0  0
 17 18  1  0  0  0  0
 17 50  1  0  0  0  0
 18 19  1  0  0  0  0
 18 51  1  0  0  0  0
 19 20  2  0  0  0  0
 19 21  1  0  0  0  0
 21 22  1  0  0  0  0
 21 52  1  0  0  0  0
 21 53  1  0  0  0  0
 22 28  1  0  0  0  0
 22 23  1  0  0  0  0
 22 54  1  0  0  0  0
 23 24  1  0  0  0  0
 23 55  1  0  0  0  0
 23 56  1  0  0  0  0
 24 25  1  0  0  0  0
 24 57  1  0  0  0  0
 24 58  1  0  0  0  0
 25 26  2  0  0  0  0
 25 27  2  0  0  0  0
 25 28  1  0  0  0  0
 28 59  1  0  0  0  0
 28 60  1  0  0  0  0
M  END
> <Name>
ZINC30969187

> <reference>
BDB4965

> <quality>
0.662

> <status>
decoy

> <atoms in reference ligand area>
13

> <score>
-30.0111

$$$$
ZINC26140662
      BALL 1.4.0 (Jan  4 2012, 23:22:29)

 39 41  0999  0  0  0  0  0  0999 V2000
    8.0593   13.0710    1.9207 C   0  0  0  0  0  0  0  0  0  0  0  0
    8.4220   13.8816    3.0160 C   0  0  0  0  0  0  0  0  0  0  0  0
    9.6566   13.8075    3.5432 C   0  0  0  0  0  0  0  0  0  0  0  0
   10.5861   12.9331    3.0322 N   0  0  0  0  0  0  0  0  0  0  0  0
   10.2583   12.1262    1.9586 C   0  0  0  0  0  0  0  0  0  0  0  0
    8.9593   12.2044    1.3956 C   0  0  0  0  0  0  0  0  0  0  0  0
   11.3040   11.3925    1.6563 N   0  0  0  0  0  0  0  0  0  0  0  0
   12.3345   11.7242    2.5467 N   0  0  0  0  0  0  0  0  0  0  0  0
   11.8627   12.6739    3.3802 C   0  0  0  0  0  0  0  0  0  0  0  0
   12.4808   13.2039    4.2872 O   0  0  0  0  0  0  0  0  0  0  0  0
   13.6796   11.1443    2.5684 C   0  0  0  0  0  0  0  0  0  0  0  0
   13.5788    9.6408    2.5518 C   0  0  0  0  0  0  0  0  0  0  0  0
   13.1598    9.0503    3.5248 O   0  0  0  0  0  0  0  0  0  0  0  0
   13.9541    8.9523    1.4556 N   0  0  0  0  0  0  0  0  0  0  0  0
   13.8561    7.4907    1.4395 C   0  0  0  0  0  0  0  0  0  0  0  0
   13.8511    6.9959   -0.0083 C   0  0  0  0  0  0  0  0  0  0  0  0
   12.6080    6.2664   -0.2708 N   0  0  0  0  0  0  0  0  0  0  0  0
   12.0802    6.2587   -1.5109 C   0  0  0  0  0  0  0  0  0  0  0  0
   12.6362    6.8575   -2.4126 O   0  0  0  0  0  0  0  0  0  0  0  0
   10.8358    5.5283   -1.7736 C   0  0  0  0  0  0  0  0  0  0  0  0
    9.6815    5.6237   -1.0503 C   0  0  0  0  0  0  0  0  0  0  0  0
    8.7558    4.7566   -1.6516 C   0  0  0  0  0  0  0  0  0  0  0  0
    9.3777    4.1773   -2.7021 C   0  0  0  0  0  0  0  0  0  0  0  0
   10.6291    4.6488   -2.7755 O   0  0  0  0  0  0  0  0  0  0  0  0
    7.0482   13.1418    1.4935 H   0  0  0  0  0  0  0  0  0  0  0  0
    7.6882   14.5811    3.4429 H   0  0  0  0  0  0  0  0  0  0  0  0
    9.9256   14.4532    4.3921 H   0  0  0  0  0  0  0  0  0  0  0  0
    8.6848   11.5681    0.5413 H   0  0  0  0  0  0  0  0  0  0  0  0
   14.2041   11.4658    3.4803 H   0  0  0  0  0  0  0  0  0  0  0  0
   14.2396   11.4835    1.6844 H   0  0  0  0  0  0  0  0  0  0  0  0
   14.3099    9.4538    0.6292 H   0  0  0  0  0  0  0  0  0  0  0  0
   14.7172    7.0594    1.9708 H   0  0  0  0  0  0  0  0  0  0  0  0
   12.9252    7.1790    1.9359 H   0  0  0  0  0  0  0  0  0  0  0  0
   13.9217    7.8561   -0.6902 H   0  0  0  0  0  0  0  0  0  0  0  0
   14.7092    6.3272   -0.1714 H   0  0  0  0  0  0  0  0  0  0  0  0
   12.1374    5.7594    0.4924 H   0  0  0  0  0  0  0  0  0  0  0  0
    9.5103    6.2573   -0.1676 H   0  0  0  0  0  0  0  0  0  0  0  0
    7.7190    4.5816   -1.3284 H   0  0  0  0  0  0  0  0  0  0  0  0
    8.9300    3.4399   -3.3845 H   0  0  0  0  0  0  0  0  0  0  0  0
  1  6  2  0  0  0  0
  1  2  1  0  0  0  0
  1 25  1  0  0  0  0
  2  3  2  0  0  0  0
  2 26  1  0  0  0  0
  3  4  1  0  0  0  0
  3 27  1  0  0  0  0
  4  9  1  0  0  0  0
  4  5  1  0  0  0  0
  5  6  1  0  0  0  0
  5  7  2  0  0  0  0
  6 28  1  0  0  0  0
  7  8  1  0  0  0  0
  8  9  1  0  0  0  0
  8 11  1  0  0  0  0
  9 10  2  0  0  0  0
 11 12  1  0  0  0  0
 11 29  1  0  0  0  0
 11 30  1  0  0  0  0
 12 13  2  0  0  0  0
 12 14  1  0  0  0  0
 14 15  1  0  0  0  0
 14 31  1  0  0  0  0
 15 16  1  0  0  0  0
 15 32  1  0  0  0  0
 15 33  1  0  0  0  0
 16 17  1  0  0  0  0
 16 34  1  0  0  0  0
 16 35  1  0  0  0  0
 17 18  1  0  0  0  0
 17 36  1  0  0  0  0
 18 19  2  0  0  0  0
 18 20  1  0  0  0  0
 20 24  1  0  0  0  0
 20 21  2  0  0  0  0
 21 22  1  0  0  0  0
 21 37  1  0  0  0  0
 22 23  2  0  0  0  0
 22 38  1  0  0  0  0
 23 24  1  0  0  0  0
 23 39  1  0  0  0  0
M  END
> <Name>
ZINC26140662

> <reference>
BDB5228

> <quality>
0.682

> <status>
decoy

> <atoms in reference ligand area>
12

> <score>
-29.8196

$$$$
ZINC31561356
      BALL 1.4.0 (Jan  4 2012, 23:22:29)

 37 37  0999  0  0  0  0  0  0999 V2000
   11.6940   15.9518   -0.5489 C   0  0  0  0  0  0  0  0  0  0  0  0
   10.2076   15.7997   -0.2083 C   0  0  0  0  0  0  0  0  0  0  0  0
    9.8967   14.3421    0.0076 C   0  0  0  0  0  0  0  0  0  0  0  0
    9.0014   14.0309    0.7635 O   0  0  0  0  0  0  0  0  0  0  0  0
   10.5909   13.3814   -0.6206 N   0  0  0  0  0  0  0  0  0  0  0  0
   11.6039   13.6517   -1.4573 C   0  0  0  0  0  0  0  0  0  0  0  0
   12.2013   12.7369   -1.9824 O   0  0  0  0  0  0  0  0  0  0  0  0
   12.0095   15.0697   -1.7615 C   0  0  0  0  0  0  0  0  0  0  0  0
   10.2324   11.9817   -0.3787 C   0  0  0  0  0  0  0  0  0  0  0  0
    8.7380   11.8848   -0.0652 C   0  0  0  0  0  0  0  0  0  0  0  0
    8.4532   10.5673    0.6587 C   0  0  0  0  0  0  0  0  0  0  0  0
    7.7003    9.6728   -0.2307 N   0  3  0  0  0  0  0  0  0  0  0  0
    7.4082    8.3949    0.4324 C   0  0  0  0  0  0  0  0  0  0  0  0
    5.9199    8.0724    0.2850 C   0  0  0  0  0  0  0  0  0  0  0  0
    5.4344    6.8662    1.5499 S   0  0  0  0  0  0  0  0  0  0  0  0
    5.3514    8.0028    3.3375 P   0  0  0  0  0  0  0  0  0  0  0  0
    6.4682    7.6084    4.2251 O   0  0  0  0  0  0  0  0  0  0  0  0
    5.4742    9.5687    2.9840 O   0  5  0  0  0  0  0  0  0  0  0  0
    3.9509    7.7292    4.0830 O   0  5  0  0  0  0  0  0  0  0  0  0
   11.9107   17.0031   -0.7896 H   0  0  0  0  0  0  0  0  0  0  0  0
   12.3031   15.6313    0.3091 H   0  0  0  0  0  0  0  0  0  0  0  0
    9.5979   16.1857   -1.0386 H   0  0  0  0  0  0  0  0  0  0  0  0
    9.9812   16.3629    0.7091 H   0  0  0  0  0  0  0  0  0  0  0  0
   13.0885   15.1054   -1.9727 H   0  0  0  0  0  0  0  0  0  0  0  0
   11.4492   15.4324   -2.6359 H   0  0  0  0  0  0  0  0  0  0  0  0
   10.4579   11.3852   -1.2749 H   0  0  0  0  0  0  0  0  0  0  0  0
   10.8108   11.5959    0.4738 H   0  0  0  0  0  0  0  0  0  0  0  0
    8.4427   12.7271    0.5776 H   0  0  0  0  0  0  0  0  0  0  0  0
    8.1627   11.9192   -1.0022 H   0  0  0  0  0  0  0  0  0  0  0  0
    9.4036   10.0899    0.9391 H   0  0  0  0  0  0  0  0  0  0  0  0
    7.8613   10.7658    1.5644 H   0  0  0  0  0  0  0  0  0  0  0  0
    6.8150   10.1261   -0.4984 H   0  0  0  0  0  0  0  0  0  0  0  0
    8.2526    9.4946   -1.0816 H   0  0  0  0  0  0  0  0  0  0  0  0
    8.0038    7.5956   -0.0328 H   0  0  0  0  0  0  0  0  0  0  0  0
    7.6627    8.4678    1.5000 H   0  0  0  0  0  0  0  0  0  0  0  0
    5.7319    7.6510   -0.7136 H   0  0  0  0  0  0  0  0  0  0  0  0
    5.3308    8.9927    0.4116 H   0  0  0  0  0  0  0  0  0  0  0  0
  1  8  1  0  0  0  0
  1  2  1  0  0  0  0
  1 20  1  0  0  0  0
  1 21  1  0  0  0  0
  2  3  1  0  0  0  0
  2 22  1  0  0  0  0
  2 23  1  0  0  0  0
  3  4  2  0  0  0  0
  3  5  1  0  0  0  0
  5  6  1  0  0  0  0
  5  9  1  0  0  0  0
  6  7  2  0  0  0  0
  6  8  1  0  0  0  0
  8 24  1  0  0  0  0
  8 25  1  0  0  0  0
  9 10  1  0  0  0  0
  9 26  1  0  0  0  0
  9 27  1  0  0  0  0
 10 11  1  0  0  0  0
 10 28  1  0  0  0  0
 10 29  1  0  0  0  0
 11 12  1  0  0  0  0
 11 30  1  0  0  0  0
 11 31  1  0  0  0  0
 12 13  1  0  0  0  0
 12 32  1  0  0  0  0
 12 33  1  0  0  0  0
 13 14  1  0  0  0  0
 13 34  1  0  0  0  0
 13 35  1  0  0  0  0
 14 15  1  0  0  0  0
 14 36  1  0  0  0  0
 14 37  1  0  0  0  0
 15 16  1  0  0  0  0
 16 17  2  0  0  0  0
 16 18  1  0  0  0  0
 16 19  1  0  0  0  0
M  END
> <Name>
ZINC31561356

> <reference>
BDB5013

> <quality>
0.694

> <status>
decoy

> <atoms in reference ligand area>
13

> <score>
-29.7366

$$$$
ZINC00547494
      BALL 1.4.0 (Jan  4 2012, 23:22:29)

 40 41  0999  0  0  0  0  0  0999 V2000
    8.5760   15.3922    3.0293 C   0  0  0  0  0  0  0  0  0  0  0  0
    9.6670   14.4946    3.2436 O   0  0  0  0  0  0  0  0  0  0  0  0
    9.5628   13.2544    2.6953 C   0  0  0  0  0  0  0  0  0  0  0  0
    8.9865   12.2259    3.4169 C   0  0  0  0  0  0  0  0  0  0  0  0
    8.8816   10.9529    2.8507 C   0  0  0  0  0  0  0  0  0  0  0  0
    9.3599   10.7257    1.5577 C   0  0  0  0  0  0  0  0  0  0  0  0
    9.9286   11.7580    0.8418 C   0  0  0  0  0  0  0  0  0  0  0  0
   10.0376   13.0204    1.4065 C   0  0  0  0  0  0  0  0  0  0  0  0
   10.6042   14.0332    0.6986 O   0  0  0  0  0  0  0  0  0  0  0  0
    9.8750   15.2600    0.6245 C   0  0  0  0  0  0  0  0  0  0  0  0
   10.6527   16.2578   -0.1944 C   0  0  0  0  0  0  0  0  0  0  0  0
   11.7255   15.9489   -0.6681 O   0  0  0  0  0  0  0  0  0  0  0  0
   10.1558   17.4936   -0.4006 N   0  0  0  0  0  0  0  0  0  0  0  0
    8.2673    9.8523    3.6153 C   0  0  0  0  0  0  0  0  0  0  0  0
    7.4829    9.0071    3.0198 N   0  0  0  0  0  0  0  0  0  0  0  0
    6.8992    7.9611    3.7464 N   0  0  0  0  0  0  0  0  0  0  0  0
    5.6226    8.0628    4.1667 C   0  0  0  0  0  0  0  0  0  0  0  0
    4.8703    8.8526    3.6358 O   0  0  0  0  0  0  0  0  0  0  0  0
    5.1298    7.1951    5.2961 C   0  0  0  0  0  0  0  0  0  0  0  0
    3.6739    7.3162    5.4053 N   0  0  0  0  0  0  0  0  0  0  0  0
    2.7588    6.4105    5.0188 C   0  0  0  0  0  0  0  0  0  0  0  0
    1.5723    6.8924    5.2865 N   0  0  0  0  0  0  0  0  0  0  0  0
    1.6889    8.0980    5.8417 C   0  0  0  0  0  0  0  0  0  0  0  0
    2.9571    8.3990    5.9403 N   0  0  0  0  0  0  0  0  0  0  0  0
    8.7281   16.2344    3.7204 H   0  0  0  0  0  0  0  0  0  0  0  0
    7.6684   14.8568    3.3448 H   0  0  0  0  0  0  0  0  0  0  0  0
    8.5035   15.7325    1.9858 H   0  0  0  0  0  0  0  0  0  0  0  0
    8.6113   12.4093    4.4346 H   0  0  0  0  0  0  0  0  0  0  0  0
    9.2829    9.7235    1.1108 H   0  0  0  0  0  0  0  0  0  0  0  0
   10.2966   11.5800   -0.1794 H   0  0  0  0  0  0  0  0  0  0  0  0
    9.7219   15.6586    1.6383 H   0  0  0  0  0  0  0  0  0  0  0  0
    8.8991   15.0786    0.1506 H   0  0  0  0  0  0  0  0  0  0  0  0
    9.8155   18.0513    0.3957 H   0  0  0  0  0  0  0  0  0  0  0  0
   10.1164   17.8804   -1.3544 H   0  0  0  0  0  0  0  0  0  0  0  0
    8.4738    9.7475    4.6907 H   0  0  0  0  0  0  0  0  0  0  0  0
    7.4456    7.1144    3.9595 H   0  0  0  0  0  0  0  0  0  0  0  0
    5.3960    6.1466    5.0962 H   0  0  0  0  0  0  0  0  0  0  0  0
    5.5957    7.5185    6.2386 H   0  0  0  0  0  0  0  0  0  0  0  0
    2.9706    5.4344    4.5580 H   0  0  0  0  0  0  0  0  0  0  0  0
    0.8534    8.7365    6.1647 H   0  0  0  0  0  0  0  0  0  0  0  0
  1  2  1  0  0  0  0
  1 25  1  0  0  0  0
  1 26  1  0  0  0  0
  1 27  1  0  0  0  0
  2  3  1  0  0  0  0
  3  8  2  0  0  0  0
  3  4  1  0  0  0  0
  4  5  2  0  0  0  0
  4 28  1  0  0  0  0
  5  6  1  0  0  0  0
  5 14  1  0  0  0  0
  6  7  2  0  0  0  0
  6 29  1  0  0  0  0
  7  8  1  0  0  0  0
  7 30  1  0  0  0  0
  8  9  1  0  0  0  0
  9 10  1  0  0  0  0
 10 11  1  0  0  0  0
 10 31  1  0  0  0  0
 10 32  1  0  0  0  0
 11 12  2  0  0  0  0
 11 13  1  0  0  0  0
 13 33  1  0  0  0  0
 13 34  1  0  0  0  0
 14 15  2  0  0  0  0
 14 35  1  0  0  0  0
 15 16  1  0  0  0  0
 16 17  1  0  0  0  0
 16 36  1  0  0  0  0
 17 18  2  0  0  0  0
 17 19  1  0  0  0  0
 19 20  1  0  0  0  0
 19 37  1  0  0  0  0
 19 38  1  0  0  0  0
 20 24  1  0  0  0  0
 20 21  1  0  0  0  0
 21 22  2  0  0  0  0
 21 39  1  0  0  0  0
 22 23  1  0  0  0  0
 23 24  2  0  0  0  0
 23 40  1  0  0  0  0
M  END
> <Name>
ZINC00547494

> <reference>
BDB5024

> <quality>
0.677

> <status>
decoy

> <atoms in reference ligand area>
10

> <score>
-29.7051

$$$$
ZINC06425106
      BALL 1.4.0 (Jan  4 2012, 23:22:29)

 32 31  0999  0  0  0  0  0  0999 V2000
   10.2266   12.7658   -3.3297 C   0  0  0  0  0  0  0  0  0  0  0  0
   10.9687   14.1418   -2.4177 S   0  0  0  0  0  0  0  0  0  0  0  0
   11.3158   13.3420   -0.8865 C   0  0  0  0  0  0  0  0  0  0  0  0
   10.4497   12.4897   -0.3772 N   0  0  0  0  0  0  0  0  0  0  0  0
   10.7257   11.8538    0.8403 N   0  0  0  0  0  0  0  0  0  0  0  0
   11.1761   10.6408    0.8492 C   0  0  0  0  0  0  0  0  0  0  0  0
   11.4731    9.9568    2.1587 C   0  0  0  0  0  0  0  0  0  0  0  0
   12.9860    9.7919    2.3165 C   0  0  0  0  0  0  0  0  0  0  0  0
   13.2873    9.0974    3.6461 C   0  0  0  0  0  0  0  0  0  0  0  0
   14.5158    9.7420    4.2913 C   0  0  0  0  0  0  0  0  0  0  0  0
   14.1041   11.0409    4.9870 C   0  0  0  0  0  0  0  0  0  0  0  0
   14.8844   11.2149    6.1714 O   0  0  0  0  0  0  0  0  0  0  0  0
   15.0758    8.8440    5.2515 O   0  0  0  0  0  0  0  0  0  0  0  0
   12.1644    9.2328    4.5194 O   0  0  0  0  0  0  0  0  0  0  0  0
   13.4937    9.0009    1.2402 O   0  0  0  0  0  0  0  0  0  0  0  0
   10.9653   10.7477    3.2352 O   0  0  0  0  0  0  0  0  0  0  0  0
   12.8212   13.6821   -0.0363 S   0  5  0  0  0  0  0  0  0  0  0  0
   10.7109   12.5570   -4.2951 H   0  0  0  0  0  0  0  0  0  0  0  0
    9.1338   12.8365   -3.4335 H   0  0  0  0  0  0  0  0  0  0  0  0
   10.4045   11.8718   -2.7139 H   0  0  0  0  0  0  0  0  0  0  0  0
   11.3423   10.1089   -0.0992 H   0  0  0  0  0  0  0  0  0  0  0  0
   10.9929    8.9672    2.1724 H   0  0  0  0  0  0  0  0  0  0  0  0
   13.4661   10.7815    2.3027 H   0  0  0  0  0  0  0  0  0  0  0  0
   13.4852    8.0304    3.4658 H   0  0  0  0  0  0  0  0  0  0  0  0
   15.2640    9.9627    3.5157 H   0  0  0  0  0  0  0  0  0  0  0  0
   14.2740   11.8901    4.3087 H   0  0  0  0  0  0  0  0  0  0  0  0
   13.0383   10.9929    5.2546 H   0  0  0  0  0  0  0  0  0  0  0  0
   14.3576   11.7146    6.8443 H   0  0  0  0  0  0  0  0  0  0  0  0
   15.8707    9.2603    5.6698 H   0  0  0  0  0  0  0  0  0  0  0  0
   12.4397    9.7126    5.3405 H   0  0  0  0  0  0  0  0  0  0  0  0
   14.0348    9.5704    0.6375 H   0  0  0  0  0  0  0  0  0  0  0  0
   11.4198   10.4920    4.0767 H   0  0  0  0  0  0  0  0  0  0  0  0
  1  2  1  0  0  0  0
  1 18  1  0  0  0  0
  1 19  1  0  0  0  0
  1 20  1  0  0  0  0
  2  3  1  0  0  0  0
  3  4  2  0  0  0  0
  3 17  1  0  0  0  0
  4  5  1  0  0  0  0
  5  6  2  0  0  0  0
  6  7  1  0  0  0  0
  6 21  1  0  0  0  0
  7  8  1  0  0  0  0
  7 16  1  0  0  0  0
  7 22  1  0  0  0  0
  8  9  1  0  0  0  0
  8 15  1  0  0  0  0
  8 23  1  0  0  0  0
  9 10  1  0  0  0  0
  9 14  1  0  0  0  0
  9 24  1  0  0  0  0
 10 11  1  0  0  0  0
 10 13  1  0  0  0  0
 10 25  1  0  0  0  0
 11 12  1  0  0  0  0
 11 26  1  0  0  0  0
 11 27  1  0  0  0  0
 12 28  1  0  0  0  0
 13 29  1  0  0  0  0
 14 30  1  0  0  0  0
 15 31  1  0  0  0  0
 16 32  1  0  0  0  0
M  END
> <Name>
ZINC06425106

> <reference>
BDB4986

> <quality>
0.721

> <status>
decoy

> <atoms in reference ligand area>
11

> <score>
-29.6445

$$$$
ZINC02090323
      BALL 1.4.0 (Jan  4 2012, 23:22:29)

 45 46  0999  0  0  0  0  0  0999 V2000
   13.5426   12.9972    2.3073 C   0  0  0  0  0  0  0  0  0  0  0  0
   12.0887   12.8176    2.3158 N   0  0  0  0  0  0  0  0  0  0  0  0
   11.1622   13.7869    2.4478 C   0  0  0  0  0  0  0  0  0  0  0  0
    9.9645   13.2606    2.4112 N   0  0  0  0  0  0  0  0  0  0  0  0
   10.0563   11.9375    2.2551 C   0  0  0  0  0  0  0  0  0  0  0  0
   11.4079   11.6232    2.1906 C   0  0  0  0  0  0  0  0  0  0  0  0
   11.7936   10.2754    2.0262 C   0  0  0  0  0  0  0  0  0  0  0  0
   12.9722    9.9746    1.9665 O   0  0  0  0  0  0  0  0  0  0  0  0
   10.8409    9.3239    1.9357 N   0  0  0  0  0  0  0  0  0  0  0  0
    9.5366    9.6429    1.9942 C   0  0  0  0  0  0  0  0  0  0  0  0
    8.7058    8.7594    1.9040 O   0  0  0  0  0  0  0  0  0  0  0  0
    9.1264   10.9152    2.1551 N   0  0  0  0  0  0  0  0  0  0  0  0
    7.6949   11.2196    2.2196 C   0  0  0  0  0  0  0  0  0  0  0  0
   11.2343    7.9232    1.7650 C   0  0  0  0  0  0  0  0  0  0  0  0
   11.3416    7.6017    0.2731 C   0  0  0  0  0  0  0  0  0  0  0  0
   13.0748    6.3482   -0.8615 C   0  0  0  0  0  0  0  0  0  0  0  0
   12.5868    7.0520   -2.1294 C   0  0  0  0  0  0  0  0  0  0  0  0
   12.9345    6.2685   -3.2729 O   0  0  0  0  0  0  0  0  0  0  0  0
   14.2368    7.1374   -0.2552 C   0  0  0  0  0  0  0  0  0  0  0  0
   13.7224    8.1778    0.5783 O   0  0  0  0  0  0  0  0  0  0  0  0
   13.5457    4.9352   -1.2117 C   0  0  0  0  0  0  0  0  0  0  0  0
   14.0466    4.9180   -2.5499 O   0  0  0  0  0  0  0  0  0  0  0  0
   11.9656    6.2752    0.1081 N   0  3  0  0  0  0  0  0  0  0  0  0
   13.6474   14.0362    1.9618 H   0  0  0  0  0  0  0  0  0  0  0  0
   13.8503   12.3702    1.4575 H   0  0  0  0  0  0  0  0  0  0  0  0
   14.0773   12.7789    3.2435 H   0  0  0  0  0  0  0  0  0  0  0  0
   11.3796   14.8584    2.5682 H   0  0  0  0  0  0  0  0  0  0  0  0
    7.6305   12.1757    2.7598 H   0  0  0  0  0  0  0  0  0  0  0  0
    7.2680   10.4468    2.8757 H   0  0  0  0  0  0  0  0  0  0  0  0
    7.2005   11.2575    1.2377 H   0  0  0  0  0  0  0  0  0  0  0  0
   12.2087    7.7545    2.2468 H   0  0  0  0  0  0  0  0  0  0  0  0
   10.4791    7.2701    2.2267 H   0  0  0  0  0  0  0  0  0  0  0  0
   10.3367    7.5928   -0.1743 H   0  0  0  0  0  0  0  0  0  0  0  0
   11.9607    8.3627   -0.2243 H   0  0  0  0  0  0  0  0  0  0  0  0
   13.0606    8.0417   -2.2063 H   0  0  0  0  0  0  0  0  0  0  0  0
   11.4942    7.1709   -2.0855 H   0  0  0  0  0  0  0  0  0  0  0  0
   12.4841    6.6350   -4.0747 H   0  0  0  0  0  0  0  0  0  0  0  0
   14.8414    7.5793   -1.0611 H   0  0  0  0  0  0  0  0  0  0  0  0
   14.8641    6.4629    0.3461 H   0  0  0  0  0  0  0  0  0  0  0  0
   14.0276    9.0559    0.2380 H   0  0  0  0  0  0  0  0  0  0  0  0
   14.3439    4.6322   -0.5181 H   0  0  0  0  0  0  0  0  0  0  0  0
   12.7016    4.2349   -1.1278 H   0  0  0  0  0  0  0  0  0  0  0  0
   13.2962    5.0321   -3.1856 H   0  0  0  0  0  0  0  0  0  0  0  0
   12.3279    5.9529    1.0168 H   0  0  0  0  0  0  0  0  0  0  0  0
   11.2606    5.6050   -0.2307 H   0  0  0  0  0  0  0  0  0  0  0  0
  1  2  1  0  0  0  0
  1 24  1  0  0  0  0
  1 25  1  0  0  0  0
  1 26  1  0  0  0  0
  2  6  1  0  0  0  0
  2  3  1  0  0  0  0
  3  4  2  0  0  0  0
  3 27  1  0  0  0  0
  4  5  1  0  0  0  0
  5 12  1  0  0  0  0
  5  6  2  0  0  0  0
  6  7  1  0  0  0  0
  7  8  2  0  0  0  0
  7  9  1  0  0  0  0
  9 10  1  0  0  0  0
  9 14  1  0  0  0  0
 10 11  2  0  0  0  0
 10 12  1  0  0  0  0
 12 13  1  0  0  0  0
 13 28  1  0  0  0  0
 13 29  1  0  0  0  0
 13 30  1  0  0  0  0
 14 15  1  0  0  0  0
 14 31  1  0  0  0  0
 14 32  1  0  0  0  0
 15 23  1  0  0  0  0
 15 33  1  0  0  0  0
 15 34  1  0  0  0  0
 16 17  1  0  0  0  0
 16 19  1  0  0  0  0
 16 21  1  0  0  0  0
 16 23  1  0  0  0  0
 17 18  1  0  0  0  0
 17 35  1  0  0  0  0
 17 36  1  0  0  0  0
 18 37  1  0  0  0  0
 19 20  1  0  0  0  0
 19 38  1  0  0  0  0
 19 39  1  0  0  0  0
 20 40  1  0  0  0  0
 21 22  1  0  0  0  0
 21 41  1  0  0  0  0
 21 42  1  0  0  0  0
 22 43  1  0  0  0  0
 23 44  1  0  0  0  0
 23 45  1  0  0  0  0
M  END
> <Name>
ZINC02090323

> <reference>
BDB5024

> <quality>
0.751

> <status>
decoy

> <atoms in reference ligand area>
10

> <score>
-29.5227

$$$$
ZINC05425837
      BALL 1.4.0 (Jan  4 2012, 23:22:29)

 39 40  0999  0  0  0  0  0  0999 V2000
    6.2657    7.6567    4.1990 C   0  0  0  0  0  0  0  0  0  0  0  0
    5.0380    8.0569    3.3761 C   0  0  0  0  0  0  0  0  0  0  0  0
    5.4939    8.7846    2.1094 C   0  0  0  0  0  0  0  0  0  0  0  0
    7.4760    9.6139    3.2301 C   0  0  0  0  0  0  0  0  0  0  0  0
    7.0792    8.9109    4.5303 C   0  0  0  0  0  0  0  0  0  0  0  0
    6.6037   10.7755    1.2936 C   0  0  0  0  0  0  0  0  0  0  0  0
    7.4077   12.0044    1.7227 C   0  0  0  0  0  0  0  0  0  0  0  0
    7.5427   12.9204    0.5873 N   0  0  0  0  0  0  0  0  0  0  0  0
    8.6840   13.5072    0.3552 C   0  0  0  0  0  0  0  0  0  0  0  0
    9.6830   13.7849    1.4217 C   0  0  0  0  0  0  0  0  0  0  0  0
   10.9742   13.9743    1.0385 C   0  0  0  0  0  0  0  0  0  0  0  0
   11.3708   13.9442   -0.2294 N   0  0  0  0  0  0  0  0  0  0  0  0
   10.5650   13.9222   -1.2548 C   0  0  0  0  0  0  0  0  0  0  0  0
    9.1059   13.9635   -1.0147 C   0  0  0  0  0  0  0  0  0  0  0  0
    8.2529   14.3646   -1.9189 N   0  0  0  0  0  0  0  0  0  0  0  0
    9.3111   13.8489    2.7588 N   0  0  0  0  0  0  0  0  0  0  0  0
    7.9512   14.0340    3.1074 O   0  0  0  0  0  0  0  0  0  0  0  0
   10.2920   13.7292    3.7731 O   0  0  0  0  0  0  0  0  0  0  0  0
    6.2499    9.9946    2.4969 N   0  3  0  0  0  0  0  0  0  0  0  0
    5.9402    7.1717    5.1311 H   0  0  0  0  0  0  0  0  0  0  0  0
    6.8860    6.9593    3.6170 H   0  0  0  0  0  0  0  0  0  0  0  0
    4.4727    7.1554    3.0976 H   0  0  0  0  0  0  0  0  0  0  0  0
    4.3972    8.7241    3.9714 H   0  0  0  0  0  0  0  0  0  0  0  0
    4.6156    9.0752    1.5144 H   0  0  0  0  0  0  0  0  0  0  0  0
    6.1407    8.1213    1.5165 H   0  0  0  0  0  0  0  0  0  0  0  0
    8.0601   10.5164    3.4630 H   0  0  0  0  0  0  0  0  0  0  0  0
    8.0776    8.9322    2.6109 H   0  0  0  0  0  0  0  0  0  0  0  0
    7.9859    8.6261    5.0843 H   0  0  0  0  0  0  0  0  0  0  0  0
    6.4711    9.5916    5.1443 H   0  0  0  0  0  0  0  0  0  0  0  0
    7.2103   10.1549    0.6176 H   0  0  0  0  0  0  0  0  0  0  0  0
    5.6854   11.0968    0.7804 H   0  0  0  0  0  0  0  0  0  0  0  0
    6.8857   12.5154    2.5452 H   0  0  0  0  0  0  0  0  0  0  0  0
    8.4064   11.6909    2.0608 H   0  0  0  0  0  0  0  0  0  0  0  0
   11.7280   14.1617    1.8173 H   0  0  0  0  0  0  0  0  0  0  0  0
   10.9630   13.8738   -2.2791 H   0  0  0  0  0  0  0  0  0  0  0  0
    7.2531   14.3637   -1.6716 H   0  0  0  0  0  0  0  0  0  0  0  0
    7.9720   14.4694    3.9964 H   0  0  0  0  0  0  0  0  0  0  0  0
    9.9745   14.3139    4.5062 H   0  0  0  0  0  0  0  0  0  0  0  0
    5.6601   10.5738    3.1113 H   0  0  0  0  0  0  0  0  0  0  0  0
  1  5  1  0  0  0  0
  1  2  1  0  0  0  0
  1 20  1  0  0  0  0
  1 21  1  0  0  0  0
  2  3  1  0  0  0  0
  2 22  1  0  0  0  0
  2 23  1  0  0  0  0
  3 19  1  0  0  0  0
  3 24  1  0  0  0  0
  3 25  1  0  0  0  0
  4  5  1  0  0  0  0
  4 19  1  0  0  0  0
  4 26  1  0  0  0  0
  4 27  1  0  0  0  0
  5 28  1  0  0  0  0
  5 29  1  0  0  0  0
  6  7  1  0  0  0  0
  6 19  1  0  0  0  0
  6 30  1  0  0  0  0
  6 31  1  0  0  0  0
  7  8  1  0  0  0  0
  7 32  1  0  0  0  0
  7 33  1  0  0  0  0
  8  9  2  0  0  0  0
  9 14  1  0  0  0  0
  9 10  1  0  0  0  0
 10 11  2  0  0  0  0
 10 16  1  0  0  0  0
 11 12  1  0  0  0  0
 11 34  1  0  0  0  0
 12 13  2  0  0  0  0
 13 14  1  0  0  0  0
 13 35  1  0  0  0  0
 14 15  2  0  0  0  0
 15 36  1  0  0  0  0
 16 17  1  0  0  0  0
 16 18  1  0  0  0  0
 17 37  1  0  0  0  0
 18 38  1  0  0  0  0
 19 39  1  0  0  0  0
M  END
> <Name>
ZINC05425837

> <reference>
BDB5233

> <quality>
0.734

> <status>
decoy

> <atoms in reference ligand area>
23

> <score>
-29.2222

$$$$
ZINC10315608
      BALL 1.4.0 (Jan  4 2012, 23:22:29)

 40 41  0999  0  0  0  0  0  0999 V2000
    9.8735   12.7772    3.9864 C   0  0  0  0  0  0  0  0  0  0  0  0
   10.0562   14.0330    3.4455 C   0  0  0  0  0  0  0  0  0  0  0  0
    9.3381   14.4113    2.3093 C   0  0  0  0  0  0  0  0  0  0  0  0
    8.4434   13.5124    1.7252 C   0  0  0  0  0  0  0  0  0  0  0  0
    8.2744   12.2580    2.2735 C   0  0  0  0  0  0  0  0  0  0  0  0
    8.9892   11.8896    3.3995 C   0  0  0  0  0  0  0  0  0  0  0  0
    8.7990   10.5175    3.9930 C   0  0  0  0  0  0  0  0  0  0  0  0
    7.3006    8.6181    4.0940 C   0  0  0  0  0  0  0  0  0  0  0  0
    5.9044    8.5514    4.7161 C   0  0  0  0  0  0  0  0  0  0  0  0
    5.1236    7.5046    4.0523 N   0  0  0  0  0  0  0  0  0  0  0  0
    3.8085    7.2553    4.4513 C   0  0  0  0  0  0  0  0  0  0  0  0
    3.3085    7.8417    5.6070 C   0  0  0  0  0  0  0  0  0  0  0  0
    2.0059    7.5975    5.9954 C   0  0  0  0  0  0  0  0  0  0  0  0
    1.2031    6.7612    5.2415 C   0  0  0  0  0  0  0  0  0  0  0  0
    1.6993    6.1713    4.0934 C   0  0  0  0  0  0  0  0  0  0  0  0
    2.9993    6.4156    3.6962 C   0  0  0  0  0  0  0  0  0  0  0  0
   -0.1906    6.4974    5.6640 N   0  0  0  0  0  0  0  0  0  0  0  0
   -0.8990    5.7614    5.0007 O   0  0  0  0  0  0  0  0  0  0  0  0
   -0.6292    7.0163    6.6749 O   0  0  0  0  0  0  0  0  0  0  0  0
    9.5246   15.7563    1.7274 C   0  0  0  0  0  0  0  0  0  0  0  0
    9.5592   15.8969    0.5215 O   0  0  0  0  0  0  0  0  0  0  0  0
    7.5136    9.9634    3.5275 N   0  3  0  0  0  0  0  0  0  0  0  0
    9.6561   16.8269    2.5344 O   0  5  0  0  0  0  0  0  0  0  0  0
   10.4322   12.4809    4.8864 H   0  0  0  0  0  0  0  0  0  0  0  0
   10.7658   14.7346    3.9082 H   0  0  0  0  0  0  0  0  0  0  0  0
    7.8746   13.8039    0.8300 H   0  0  0  0  0  0  0  0  0  0  0  0
    7.5699   11.5488    1.8144 H   0  0  0  0  0  0  0  0  0  0  0  0
    9.6202    9.8604    3.6707 H   0  0  0  0  0  0  0  0  0  0  0  0
    8.7918   10.5885    5.0907 H   0  0  0  0  0  0  0  0  0  0  0  0
    8.0575    8.4216    4.8676 H   0  0  0  0  0  0  0  0  0  0  0  0
    7.3846    7.8663    3.2955 H   0  0  0  0  0  0  0  0  0  0  0  0
    5.9911    8.3196    5.7879 H   0  0  0  0  0  0  0  0  0  0  0  0
    5.3990    9.5204    4.5902 H   0  0  0  0  0  0  0  0  0  0  0  0
    5.5444    6.9525    3.2914 H   0  0  0  0  0  0  0  0  0  0  0  0
    3.9494    8.4998    6.2122 H   0  0  0  0  0  0  0  0  0  0  0  0
    1.6065    8.0687    6.9055 H   0  0  0  0  0  0  0  0  0  0  0  0
    1.0579    5.5067    3.4959 H   0  0  0  0  0  0  0  0  0  0  0  0
    3.3934    5.9460    2.7829 H   0  0  0  0  0  0  0  0  0  0  0  0
    6.7468   10.5836    3.8246 H   0  0  0  0  0  0  0  0  0  0  0  0
    7.5192    9.9030    2.4993 H   0  0  0  0  0  0  0  0  0  0  0  0
  1  6  2  0  0  0  0
  1  2  1  0  0  0  0
  1 24  1  0  0  0  0
  2  3  2  0  0  0  0
  2 25  1  0  0  0  0
  3  4  1  0  0  0  0
  3 20  1  0  0  0  0
  4  5  2  0  0  0  0
  4 26  1  0  0  0  0
  5  6  1  0  0  0  0
  5 27  1  0  0  0  0
  6  7  1  0  0  0  0
  7 22  1  0  0  0  0
  7 28  1  0  0  0  0
  7 29  1  0  0  0  0
  8  9  1  0  0  0  0
  8 22  1  0  0  0  0
  8 30  1  0  0  0  0
  8 31  1  0  0  0  0
  9 10  1  0  0  0  0
  9 32  1  0  0  0  0
  9 33  1  0  0  0  0
 10 11  1  0  0  0  0
 10 34  1  0  0  0  0
 11 16  2  0  0  0  0
 11 12  1  0  0  0  0
 12 13  2  0  0  0  0
 12 35  1  0  0  0  0
 13 14  1  0  0  0  0
 13 36  1  0  0  0  0
 14 15  2  0  0  0  0
 14 17  1  0  0  0  0
 15 16  1  0  0  0  0
 15 37  1  0  0  0  0
 16 38  1  0  0  0  0
 17 18  2  0  0  0  0
 17 19  2  0  0  0  0
 20 21  2  0  0  0  0
 20 23  1  0  0  0  0
 22 39  1  0  0  0  0
 22 40  1  0  0  0  0
M  END
> <Name>
ZINC10315608

> <reference>
BDB5013

> <quality>
0.756

> <status>
decoy

> <atoms in reference ligand area>
11

> <score>
-29.1938

$$$$
ZINC28069362
      BALL 1.4.0 (Jan  4 2012, 23:22:29)

 46 47  0999  0  0  0  0  0  0999 V2000
   17.2654    8.3740    9.1207 C   0  0  0  0  0  0  0  0  0  0  0  0
   17.1388    9.2548    7.8761 C   0  0  0  0  0  0  0  0  0  0  0  0
   16.0487    8.6923    6.9598 C   0  0  0  0  0  0  0  0  0  0  0  0
   15.8846    9.6108    5.7468 C   0  0  0  0  0  0  0  0  0  0  0  0
   15.5212   10.9599    6.1985 N   0  3  0  0  0  0  0  0  0  0  0  0
   16.5746   11.5394    7.0415 C   0  0  0  0  0  0  0  0  0  0  0  0
   16.7594   10.6785    8.2932 C   0  0  0  0  0  0  0  0  0  0  0  0
   15.2202   11.8341    5.0569 C   0  0  0  0  0  0  0  0  0  0  0  0
   14.0499   11.2509    4.2625 C   0  0  0  0  0  0  0  0  0  0  0  0
   13.2634   12.3868    3.6052 C   0  0  0  0  0  0  0  0  0  0  0  0
   11.9199   11.9149    3.2606 N   0  0  0  0  0  0  0  0  0  0  0  0
   10.9269   12.8020    3.0518 C   0  0  0  0  0  0  0  0  0  0  0  0
   11.1461   13.9940    3.1497 O   0  0  0  0  0  0  0  0  0  0  0  0
    9.5742   12.3268    2.7047 C   0  0  0  0  0  0  0  0  0  0  0  0
    9.1138   11.0880    3.1665 C   0  0  0  0  0  0  0  0  0  0  0  0
    7.8376   10.6882    2.8130 C   0  0  0  0  0  0  0  0  0  0  0  0
    7.0603   11.5151    2.0214 C   0  0  0  0  0  0  0  0  0  0  0  0
    7.5141   12.6785    1.5973 N   0  0  0  0  0  0  0  0  0  0  0  0
    8.7260   13.1082    1.9060 C   0  0  0  0  0  0  0  0  0  0  0  0
    9.1507   14.3101    1.4488 O   0  0  0  0  0  0  0  0  0  0  0  0
    7.3078    9.3866    3.2777 N   0  0  0  0  0  0  0  0  0  0  0  0
    8.0734    8.5148    3.6482 O   0  0  0  0  0  0  0  0  0  0  0  0
    6.1063    9.1873    3.2896 O   0  0  0  0  0  0  0  0  0  0  0  0
   17.2319    9.0042   10.0217 H   0  0  0  0  0  0  0  0  0  0  0  0
   18.2210    7.8300    9.0901 H   0  0  0  0  0  0  0  0  0  0  0  0
   16.4349    7.6533    9.1472 H   0  0  0  0  0  0  0  0  0  0  0  0
   18.1002    9.2694    7.3417 H   0  0  0  0  0  0  0  0  0  0  0  0
   16.3366    7.6860    6.6214 H   0  0  0  0  0  0  0  0  0  0  0  0
   15.0975    8.6379    7.5095 H   0  0  0  0  0  0  0  0  0  0  0  0
   15.0920    9.2180    5.0929 H   0  0  0  0  0  0  0  0  0  0  0  0
   16.8317    9.6542    5.1889 H   0  0  0  0  0  0  0  0  0  0  0  0
   14.6687   10.8804    6.7711 H   0  0  0  0  0  0  0  0  0  0  0  0
   16.2887   12.5593    7.3380 H   0  0  0  0  0  0  0  0  0  0  0  0
   17.5185   11.5729    6.4777 H   0  0  0  0  0  0  0  0  0  0  0  0
   17.5592   11.1051    8.9165 H   0  0  0  0  0  0  0  0  0  0  0  0
   15.8197   10.6557    8.8646 H   0  0  0  0  0  0  0  0  0  0  0  0
   14.9512   12.8359    5.4228 H   0  0  0  0  0  0  0  0  0  0  0  0
   16.1042   11.9066    4.4061 H   0  0  0  0  0  0  0  0  0  0  0  0
   14.4351   10.5745    3.4852 H   0  0  0  0  0  0  0  0  0  0  0  0
   13.3880   10.6917    4.9401 H   0  0  0  0  0  0  0  0  0  0  0  0
   13.1863   13.2322    4.3047 H   0  0  0  0  0  0  0  0  0  0  0  0
   13.7823   12.7129    2.6917 H   0  0  0  0  0  0  0  0  0  0  0  0
   11.7343   10.9052    3.1778 H   0  0  0  0  0  0  0  0  0  0  0  0
    9.7510   10.4484    3.7948 H   0  0  0  0  0  0  0  0  0  0  0  0
    6.0455   11.1964    1.7408 H   0  0  0  0  0  0  0  0  0  0  0  0
    6.9081   13.2685    1.0095 H   0  0  0  0  0  0  0  0  0  0  0  0
  1  2  1  0  0  0  0
  1 24  1  0  0  0  0
  1 25  1  0  0  0  0
  1 26  1  0  0  0  0
  2  7  1  0  0  0  0
  2  3  1  0  0  0  0
  2 27  1  0  0  0  0
  3  4  1  0  0  0  0
  3 28  1  0  0  0  0
  3 29  1  0  0  0  0
  4  5  1  0  0  0  0
  4 30  1  0  0  0  0
  4 31  1  0  0  0  0
  5  6  1  0  0  0  0
  5  8  1  0  0  0  0
  5 32  1  0  0  0  0
  6  7  1  0  0  0  0
  6 33  1  0  0  0  0
  6 34  1  0  0  0  0
  7 35  1  0  0  0  0
  7 36  1  0  0  0  0
  8  9  1  0  0  0  0
  8 37  1  0  0  0  0
  8 38  1  0  0  0  0
  9 10  1  0  0  0  0
  9 39  1  0  0  0  0
  9 40  1  0  0  0  0
 10 11  1  0  0  0  0
 10 41  1  0  0  0  0
 10 42  1  0  0  0  0
 11 12  1  0  0  0  0
 11 43  1  0  0  0  0
 12 13  2  0  0  0  0
 12 14  1  0  0  0  0
 14 15  2  0  0  0  0
 14 19  1  0  0  0  0
 15 16  1  0  0  0  0
 15 44  1  0  0  0  0
 16 17  2  0  0  0  0
 16 21  1  0  0  0  0
 17 18  1  0  0  0  0
 17 45  1  0  0  0  0
 18 19  1  0  0  0  0
 18 46  1  0  0  0  0
 19 20  2  0  0  0  0
 21 22  2  0  0  0  0
 21 23  2  0  0  0  0
M  END
> <Name>
ZINC28069362

> <reference>
BDB5195

> <quality>
0.744

> <status>
decoy

> <atoms in reference ligand area>
14

> <score>
-29.1498

$$$$
ZINC01731877
      BALL 1.4.0 (Jan  4 2012, 23:22:29)

 32 32  0999  0  0  0  0  0  0999 V2000
   11.4122   13.5862    1.8360 C   0  0  0  0  0  0  0  0  0  0  0  0
   11.0018   14.5647    0.9515 C   0  0  0  0  0  0  0  0  0  0  0  0
    9.8590   15.3046    1.2187 C   0  0  0  0  0  0  0  0  0  0  0  0
    9.1310   15.0591    2.3739 C   0  0  0  0  0  0  0  0  0  0  0  0
    9.5458   14.0798    3.2553 C   0  0  0  0  0  0  0  0  0  0  0  0
   10.6851   13.3438    2.9867 C   0  0  0  0  0  0  0  0  0  0  0  0
   11.1349   12.2754    3.9497 C   0  0  0  0  0  0  0  0  0  0  0  0
   11.8620   11.1698    3.1817 C   0  0  0  0  0  0  0  0  0  0  0  0
   12.2993   10.1313    4.1179 N   0  0  0  0  0  0  0  0  0  0  0  0
   13.5991   10.1015    4.5496 C   0  0  0  0  0  0  0  0  0  0  0  0
   14.1079    8.9151    5.3272 C   0  0  0  0  0  0  0  0  0  0  0  0
   15.9102    9.0309    5.4966 S   0  0  0  0  0  0  0  0  0  0  0  0
   16.1873   10.6000    6.7866 S   0  0  0  0  0  0  0  0  0  0  0  0
   15.8479   11.7794    6.0705 O   0  0  0  0  0  0  0  0  0  0  0  0
   15.5528   10.2399    8.0061 O   0  0  0  0  0  0  0  0  0  0  0  0
   17.6783   10.6832    7.0801 O   0  5  0  0  0  0  0  0  0  0  0  0
    9.4533   16.2680    0.3502 O   0  0  0  0  0  0  0  0  0  0  0  0
   14.3514   11.1384    4.2533 N   0  3  0  0  0  0  0  0  0  0  0  0
   12.3183   12.9994    1.6246 H   0  0  0  0  0  0  0  0  0  0  0  0
   11.5805   14.7570    0.0361 H   0  0  0  0  0  0  0  0  0  0  0  0
    8.2241   15.6438    2.5877 H   0  0  0  0  0  0  0  0  0  0  0  0
    8.9692   13.8853    4.1717 H   0  0  0  0  0  0  0  0  0  0  0  0
   11.8170   12.7146    4.6925 H   0  0  0  0  0  0  0  0  0  0  0  0
   10.2594   11.8500    4.4621 H   0  0  0  0  0  0  0  0  0  0  0  0
   11.1803   10.7298    2.4391 H   0  0  0  0  0  0  0  0  0  0  0  0
   12.7385   11.5932    2.6693 H   0  0  0  0  0  0  0  0  0  0  0  0
   11.6294    9.4235    4.4516 H   0  0  0  0  0  0  0  0  0  0  0  0
   13.8494    7.9879    4.7947 H   0  0  0  0  0  0  0  0  0  0  0  0
   13.6463    8.9055    6.3256 H   0  0  0  0  0  0  0  0  0  0  0  0
    8.4741   16.1452    0.2730 H   0  0  0  0  0  0  0  0  0  0  0  0
   13.9917   11.9433    3.7209 H   0  0  0  0  0  0  0  0  0  0  0  0
   15.3324   11.1390    4.5671 H   0  0  0  0  0  0  0  0  0  0  0  0
  1  6  2  0  0  0  0
  1  2  1  0  0  0  0
  1 19  1  0  0  0  0
  2  3  2  0  0  0  0
  2 20  1  0  0  0  0
  3  4  1  0  0  0  0
  3 17  1  0  0  0  0
  4  5  2  0  0  0  0
  4 21  1  0  0  0  0
  5  6  1  0  0  0  0
  5 22  1  0  0  0  0
  6  7  1  0  0  0  0
  7  8  1  0  0  0  0
  7 23  1  0  0  0  0
  7 24  1  0  0  0  0
  8  9  1  0  0  0  0
  8 25  1  0  0  0  0
  8 26  1  0  0  0  0
  9 10  1  0  0  0  0
  9 27  1  0  0  0  0
 10 11  1  0  0  0  0
 10 18  2  0  0  0  0
 11 12  1  0  0  0  0
 11 28  1  0  0  0  0
 11 29  1  0  0  0  0
 12 13  1  0  0  0  0
 13 14  2  0  0  0  0
 13 15  2  0  0  0  0
 13 16  1  0  0  0  0
 17 30  1  0  0  0  0
 18 31  1  0  0  0  0
 18 32  1  0  0  0  0
M  END
> <Name>
ZINC01731877

> <reference>
BDB5009

> <quality>
0.768

> <status>
decoy

> <atoms in reference ligand area>
10

> <score>
-29.0237

$$$$
ZINC31392821
      BALL 1.4.0 (Jan  4 2012, 23:22:29)

 50 52  0999  0  0  0  0  0  0999 V2000
    5.4038   10.4101   -0.0598 C   0  0  0  0  0  0  0  0  0  0  0  0
    6.4673    9.4323    0.2068 N   0  3  0  0  0  0  0  0  0  0  0  0
    6.0212    8.0694   -0.1122 C   0  0  0  0  0  0  0  0  0  0  0  0
    5.7859    7.9494   -1.6191 C   0  0  0  0  0  0  0  0  0  0  0  0
    5.3214    6.5299   -1.9513 C   0  0  0  0  0  0  0  0  0  0  0  0
    4.8679    6.4773   -3.3476 N   0  0  0  0  0  0  0  0  0  0  0  0
    5.5865    7.4411   -4.1655 N   0  0  0  0  0  0  0  0  0  0  0  0
    6.9289    9.5230    1.5984 C   0  0  0  0  0  0  0  0  0  0  0  0
    7.6121   10.8736    1.8221 C   0  0  0  0  0  0  0  0  0  0  0  0
    8.3670   11.2965    0.5470 C   0  0  0  0  0  0  0  0  0  0  0  0
    9.8351   11.4575    1.0110 C   0  0  0  0  0  0  0  0  0  0  0  0
    9.6733   11.6467    2.5408 C   0  0  0  0  0  0  0  0  0  0  0  0
    8.5830   10.7615    2.8762 O   0  0  0  0  0  0  0  0  0  0  0  0
   10.8960   11.2478    3.2422 N   0  0  0  0  0  0  0  0  0  0  0  0
   11.0769   10.1035    3.9608 C   0  0  0  0  0  0  0  0  0  0  0  0
   12.2829   10.0710    4.4489 N   0  0  0  0  0  0  0  0  0  0  0  0
   12.9507   11.1891    4.0758 C   0  0  0  0  0  0  0  0  0  0  0  0
   12.0688   11.9575    3.2970 C   0  0  0  0  0  0  0  0  0  0  0  0
   12.4872   13.1182    2.8031 N   0  0  0  0  0  0  0  0  0  0  0  0
   13.7101   13.5455    3.0378 C   0  0  0  0  0  0  0  0  0  0  0  0
   14.5736   12.8591    3.7636 N   0  0  0  0  0  0  0  0  0  0  0  0
   14.2452   11.6877    4.2988 C   0  0  0  0  0  0  0  0  0  0  0  0
   15.1573   10.9754    5.0576 N   0  0  0  0  0  0  0  0  0  0  0  0
   10.4348   12.6097    0.4153 O   0  0  0  0  0  0  0  0  0  0  0  0
    7.8594   12.5379    0.0538 O   0  0  0  0  0  0  0  0  0  0  0  0
    5.8545   11.4093   -0.1513 H   0  0  0  0  0  0  0  0  0  0  0  0
    4.6996   10.4088    0.7852 H   0  0  0  0  0  0  0  0  0  0  0  0
    4.8745   10.1514   -0.9888 H   0  0  0  0  0  0  0  0  0  0  0  0
    7.2642    9.6561   -0.4062 H   0  0  0  0  0  0  0  0  0  0  0  0
    6.7933    7.3491    0.1963 H   0  0  0  0  0  0  0  0  0  0  0  0
    5.0844    7.8544    0.4227 H   0  0  0  0  0  0  0  0  0  0  0  0
    5.0136    8.6691   -1.9282 H   0  0  0  0  0  0  0  0  0  0  0  0
    6.7221    8.1631   -2.1558 H   0  0  0  0  0  0  0  0  0  0  0  0
    6.1569    5.8283   -1.8111 H   0  0  0  0  0  0  0  0  0  0  0  0
    4.4914    6.2495   -1.2862 H   0  0  0  0  0  0  0  0  0  0  0  0
    3.8597    6.6849   -3.3864 H   0  0  0  0  0  0  0  0  0  0  0  0
    6.5934    7.2287   -4.1227 H   0  0  0  0  0  0  0  0  0  0  0  0
    5.4248    8.3853   -3.7867 H   0  0  0  0  0  0  0  0  0  0  0  0
    7.6445    8.7128    1.8020 H   0  0  0  0  0  0  0  0  0  0  0  0
    6.0682    9.4312    2.2771 H   0  0  0  0  0  0  0  0  0  0  0  0
    6.8387   11.6119    2.0807 H   0  0  0  0  0  0  0  0  0  0  0  0
    8.2592   10.5673   -0.2696 H   0  0  0  0  0  0  0  0  0  0  0  0
   10.4837   10.6132    0.7341 H   0  0  0  0  0  0  0  0  0  0  0  0
    9.4825   12.6915    2.8271 H   0  0  0  0  0  0  0  0  0  0  0  0
   10.3158    9.3228    4.1065 H   0  0  0  0  0  0  0  0  0  0  0  0
   14.0243   14.5105    2.6135 H   0  0  0  0  0  0  0  0  0  0  0  0
   14.8192   10.2513    5.7075 H   0  0  0  0  0  0  0  0  0  0  0  0
   16.1660   11.1662    4.9746 H   0  0  0  0  0  0  0  0  0  0  0  0
    9.8310   13.3846    0.5383 H   0  0  0  0  0  0  0  0  0  0  0  0
    6.8998   12.6102    0.2864 H   0  0  0  0  0  0  0  0  0  0  0  0
  1  2  1  0  0  0  0
  1 26  1  0  0  0  0
  1 27  1  0  0  0  0
  1 28  1  0  0  0  0
  2  3  1  0  0  0  0
  2  8  1  0  0  0  0
  2 29  1  0  0  0  0
  3  4  1  0  0  0  0
  3 30  1  0  0  0  0
  3 31  1  0  0  0  0
  4  5  1  0  0  0  0
  4 32  1  0  0  0  0
  4 33  1  0  0  0  0
  5  6  1  0  0  0  0
  5 34  1  0  0  0  0
  5 35  1  0  0  0  0
  6  7  1  0  0  0  0
  6 36  1  0  0  0  0
  7 37  1  0  0  0  0
  7 38  1  0  0  0  0
  8  9  1  0  0  0  0
  8 39  1  0  0  0  0
  8 40  1  0  0  0  0
  9 13  1  0  0  0  0
  9 10  1  0  0  0  0
  9 41  1  0  0  0  0
 10 11  1  0  0  0  0
 10 25  1  0  0  0  0
 10 42  1  0  0  0  0
 11 12  1  0  0  0  0
 11 24  1  0  0  0  0
 11 43  1  0  0  0  0
 12 13  1  0  0  0  0
 12 14  1  0  0  0  0
 12 44  1  0  0  0  0
 14 18  1  0  0  0  0
 14 15  1  0  0  0  0
 15 16  2  0  0  0  0
 15 45  1  0  0  0  0
 16 17  1  0  0  0  0
 17 22  2  0  0  0  0
 17 18  1  0  0  0  0
 18 19  2  0  0  0  0
 19 20  1  0  0  0  0
 20 21  2  0  0  0  0
 20 46  1  0  0  0  0
 21 22  1  0  0  0  0
 22 23  1  0  0  0  0
 23 47  1  0  0  0  0
 23 48  1  0  0  0  0
 24 49  1  0  0  0  0
 25 50  1  0  0  0  0
M  END
> <Name>
ZINC31392821

> <reference>
BDB4942

> <quality>
0.783

> <status>
decoy

> <atoms in reference ligand area>
17

> <score>
-28.9972

$$$$
ZINC25133930
      BALL 1.4.0 (Jan  4 2012, 23:22:29)

 49 50  0999  0  0  0  0  0  0999 V2000
   12.7789   14.3559   -2.3406 C   0  0  0  0  0  0  0  0  0  0  0  0
   11.8033   13.2745   -2.4990 N   0  0  0  0  0  0  0  0  0  0  0  0
   10.3342   13.3670   -1.7404 S   0  0  0  0  0  0  0  0  0  0  0  0
    9.3740   12.8474   -2.6500 O   0  0  0  0  0  0  0  0  0  0  0  0
   10.2390   14.6771   -1.1982 O   0  0  0  0  0  0  0  0  0  0  0  0
   10.3836   12.2580   -0.3722 C   0  0  0  0  0  0  0  0  0  0  0  0
   11.5904   11.7605    0.0666 C   0  0  0  0  0  0  0  0  0  0  0  0
   11.6286   10.8815    1.1520 C   0  0  0  0  0  0  0  0  0  0  0  0
   10.4413   10.5153    1.7918 C   0  0  0  0  0  0  0  0  0  0  0  0
    9.2382   11.0127    1.3436 C   0  0  0  0  0  0  0  0  0  0  0  0
    9.2046   11.8870    0.2633 C   0  0  0  0  0  0  0  0  0  0  0  0
    8.0173   12.3799   -0.1717 O   0  0  0  0  0  0  0  0  0  0  0  0
    7.4382   11.7576   -1.3204 C   0  0  0  0  0  0  0  0  0  0  0  0
   12.9199   10.3459    1.6254 C   0  0  0  0  0  0  0  0  0  0  0  0
   13.7147   11.0785    2.1819 O   0  0  0  0  0  0  0  0  0  0  0  0
   13.2181    9.0446    1.4406 N   0  0  0  0  0  0  0  0  0  0  0  0
   14.4998    8.5129    1.9104 C   0  0  0  0  0  0  0  0  0  0  0  0
   14.6953    7.0968    1.3650 C   0  0  0  0  0  0  0  0  0  0  0  0
   14.6887    7.1324   -0.0996 N   0  0  0  0  0  0  0  0  0  0  0  0
   13.2619    7.3301   -0.9166 S   0  0  0  0  0  0  0  0  0  0  0  0
   12.3324    7.8680    0.0139 O   0  0  0  0  0  0  0  0  0  0  0  0
   13.5805    7.9817   -2.1385 O   0  0  0  0  0  0  0  0  0  0  0  0
   12.6773    5.7229   -1.3405 C   0  0  0  0  0  0  0  0  0  0  0  0
   13.5770    4.6988   -1.5716 C   0  0  0  0  0  0  0  0  0  0  0  0
   13.1189    3.4366   -1.8994 C   0  0  0  0  0  0  0  0  0  0  0  0
   11.7612    3.2000   -2.0070 C   0  0  0  0  0  0  0  0  0  0  0  0
   10.8608    4.2255   -1.7811 C   0  0  0  0  0  0  0  0  0  0  0  0
   11.3197    5.4876   -1.4478 C   0  0  0  0  0  0  0  0  0  0  0  0
    9.1556    3.9293   -1.9165 Cl  0  0  0  0  0  0  0  0  0  0  0  0
   12.2975   15.2305   -2.8025 H   0  0  0  0  0  0  0  0  0  0  0  0
   13.6121   14.0735   -3.0010 H   0  0  0  0  0  0  0  0  0  0  0  0
   13.1005   14.5438   -1.3056 H   0  0  0  0  0  0  0  0  0  0  0  0
   12.0311   12.4566   -3.0822 H   0  0  0  0  0  0  0  0  0  0  0  0
   12.5231   12.0547   -0.4368 H   0  0  0  0  0  0  0  0  0  0  0  0
   10.4680    9.8306    2.6523 H   0  0  0  0  0  0  0  0  0  0  0  0
    8.3024   10.7178    1.8409 H   0  0  0  0  0  0  0  0  0  0  0  0
    6.3644   11.6521   -1.1066 H   0  0  0  0  0  0  0  0  0  0  0  0
    7.8718   10.7483   -1.3770 H   0  0  0  0  0  0  0  0  0  0  0  0
    7.6131   12.3261   -2.2457 H   0  0  0  0  0  0  0  0  0  0  0  0
   12.5448    8.4239    0.9691 H   0  0  0  0  0  0  0  0  0  0  0  0
   15.3169    9.1580    1.5552 H   0  0  0  0  0  0  0  0  0  0  0  0
   14.5057    8.4856    3.0101 H   0  0  0  0  0  0  0  0  0  0  0  0
   13.8787    6.4505    1.7190 H   0  0  0  0  0  0  0  0  0  0  0  0
   15.6579    6.6977    1.7173 H   0  0  0  0  0  0  0  0  0  0  0  0
   15.5715    7.0343   -0.6211 H   0  0  0  0  0  0  0  0  0  0  0  0
   14.6577    4.8887   -1.4945 H   0  0  0  0  0  0  0  0  0  0  0  0
   13.8350    2.6201   -2.0748 H   0  0  0  0  0  0  0  0  0  0  0  0
   11.3969    2.1965   -2.2721 H   0  0  0  0  0  0  0  0  0  0  0  0
   10.6041    6.3035   -1.2681 H   0  0  0  0  0  0  0  0  0  0  0  0
  1  2  1  0  0  0  0
  1 30  1  0  0  0  0
  1 31  1  0  0  0  0
  1 32  1  0  0  0  0
  2  3  1  0  0  0  0
  2 33  1  0  0  0  0
  3  4  2  0  0  0  0
  3  5  2  0  0  0  0
  3  6  1  0  0  0  0
  6 11  2  0  0  0  0
  6  7  1  0  0  0  0
  7  8  2  0  0  0  0
  7 34  1  0  0  0  0
  8  9  1  0  0  0  0
  8 14  1  0  0  0  0
  9 10  2  0  0  0  0
  9 35  1  0  0  0  0
 10 11  1  0  0  0  0
 10 36  1  0  0  0  0
 11 12  1  0  0  0  0
 12 13  1  0  0  0  0
 13 37  1  0  0  0  0
 13 38  1  0  0  0  0
 13 39  1  0  0  0  0
 14 15  2  0  0  0  0
 14 16  1  0  0  0  0
 16 17  1  0  0  0  0
 16 40  1  0  0  0  0
 17 18  1  0  0  0  0
 17 41  1  0  0  0  0
 17 42  1  0  0  0  0
 18 19  1  0  0  0  0
 18 43  1  0  0  0  0
 18 44  1  0  0  0  0
 19 20  1  0  0  0  0
 19 45  1  0  0  0  0
 20 21  2  0  0  0  0
 20 22  2  0  0  0  0
 20 23  1  0  0  0  0
 23 28  2  0  0  0  0
 23 24  1  0  0  0  0
 24 25  2  0  0  0  0
 24 46  1  0  0  0  0
 25 26  1  0  0  0  0
 25 47  1  0  0  0  0
 26 27  2  0  0  0  0
 26 48  1  0  0  0  0
 27 28  1  0  0  0  0
 27 29  1  0  0  0  0
 28 49  1  0  0  0  0
M  END
> <Name>
ZINC25133930

> <reference>
BDB4972

> <quality>
0.693

> <status>
decoy

> <atoms in reference ligand area>
17

> <score>
-28.9807

$$$$
ZINC31971727
      BALL 1.4.0 (Jan  4 2012, 23:22:29)

 47 48  0999  0  0  0  0  0  0999 V2000
    9.6621   12.3713    5.2739 C   0  0  0  0  0  0  0  0  0  0  0  0
    9.8083   13.4639    4.3646 O   0  0  0  0  0  0  0  0  0  0  0  0
    9.7575   13.1733    3.0365 C   0  0  0  0  0  0  0  0  0  0  0  0
    9.5711   11.8648    2.6209 C   0  0  0  0  0  0  0  0  0  0  0  0
    9.5194   11.5679    1.2670 C   0  0  0  0  0  0  0  0  0  0  0  0
    9.6602   12.5860    0.3254 C   0  0  0  0  0  0  0  0  0  0  0  0
    9.8410   13.8960    0.7438 C   0  0  0  0  0  0  0  0  0  0  0  0
    9.8923   14.1902    2.0968 C   0  0  0  0  0  0  0  0  0  0  0  0
   10.0744   15.4747    2.5066 O   0  0  0  0  0  0  0  0  0  0  0  0
    8.9116   16.1941    2.9221 C   0  0  0  0  0  0  0  0  0  0  0  0
    9.6139   12.2868   -1.0438 N   0  0  0  0  0  0  0  0  0  0  0  0
    9.4439   13.2752   -1.9441 C   0  0  0  0  0  0  0  0  0  0  0  0
    9.2309   14.4085   -1.5678 O   0  0  0  0  0  0  0  0  0  0  0  0
    9.5184   12.9724   -3.4185 C   0  0  0  0  0  0  0  0  0  0  0  0
   10.7101   13.5351   -4.1959 C   0  0  0  0  0  0  0  0  0  0  0  0
    9.3170   14.1371   -4.3900 C   0  0  0  0  0  0  0  0  0  0  0  0
    9.3313   10.2436    0.8458 N   0  0  0  0  0  0  0  0  0  0  0  0
    8.3927    9.4761    1.4344 C   0  0  0  0  0  0  0  0  0  0  0  0
    7.7801    9.8957    2.3934 O   0  0  0  0  0  0  0  0  0  0  0  0
    8.1046    8.0964    0.9009 C   0  0  0  0  0  0  0  0  0  0  0  0
    7.0053    8.1793   -0.1601 C   0  0  0  0  0  0  0  0  0  0  0  0
    5.9392    9.1813    0.2873 C   0  0  0  0  0  0  0  0  0  0  0  0
    4.8838    9.2610   -0.7314 N   0  3  0  0  0  0  0  0  0  0  0  0
    9.9558   12.7512    6.2635 H   0  0  0  0  0  0  0  0  0  0  0  0
   10.4009   11.6152    4.9699 H   0  0  0  0  0  0  0  0  0  0  0  0
    8.6420   11.9599    5.2842 H   0  0  0  0  0  0  0  0  0  0  0  0
    9.4642   11.0614    3.3646 H   0  0  0  0  0  0  0  0  0  0  0  0
    9.9436   14.7012    0.0015 H   0  0  0  0  0  0  0  0  0  0  0  0
    8.3430   16.4177    2.0073 H   0  0  0  0  0  0  0  0  0  0  0  0
    9.2700   17.1473    3.3380 H   0  0  0  0  0  0  0  0  0  0  0  0
    8.3042   15.6370    3.6506 H   0  0  0  0  0  0  0  0  0  0  0  0
    9.7099   11.3118   -1.3614 H   0  0  0  0  0  0  0  0  0  0  0  0
    9.0704   11.9754   -3.2951 H   0  0  0  0  0  0  0  0  0  0  0  0
   10.9876   12.8829   -5.0371 H   0  0  0  0  0  0  0  0  0  0  0  0
   11.3401   14.1747   -3.5603 H   0  0  0  0  0  0  0  0  0  0  0  0
    9.2143   15.0940   -3.8573 H   0  0  0  0  0  0  0  0  0  0  0  0
    8.8610   13.8011   -5.3330 H   0  0  0  0  0  0  0  0  0  0  0  0
    9.9104    9.8575    0.0866 H   0  0  0  0  0  0  0  0  0  0  0  0
    9.0174    7.6791    0.4507 H   0  0  0  0  0  0  0  0  0  0  0  0
    7.7711    7.4463    1.7232 H   0  0  0  0  0  0  0  0  0  0  0  0
    7.4409    8.5099   -1.1145 H   0  0  0  0  0  0  0  0  0  0  0  0
    6.5448    7.1889   -0.2907 H   0  0  0  0  0  0  0  0  0  0  0  0
    6.3978   10.1726    0.4175 H   0  0  0  0  0  0  0  0  0  0  0  0
    5.5028    8.8510    1.2415 H   0  0  0  0  0  0  0  0  0  0  0  0
    5.1206    9.9933   -1.4158 H   0  0  0  0  0  0  0  0  0  0  0  0
    3.9866    9.4903   -0.2805 H   0  0  0  0  0  0  0  0  0  0  0  0
    4.8025    8.3547   -1.2141 H   0  0  0  0  0  0  0  0  0  0  0  0
  1  2  1  0  0  0  0
  1 24  1  0  0  0  0
  1 25  1  0  0  0  0
  1 26  1  0  0  0  0
  2  3  1  0  0  0  0
  3  8  2  0  0  0  0
  3  4  1  0  0  0  0
  4  5  2  0  0  0  0
  4 27  1  0  0  0  0
  5  6  1  0  0  0  0
  5 17  1  0  0  0  0
  6  7  2  0  0  0  0
  6 11  1  0  0  0  0
  7  8  1  0  0  0  0
  7 28  1  0  0  0  0
  8  9  1  0  0  0  0
  9 10  1  0  0  0  0
 10 29  1  0  0  0  0
 10 30  1  0  0  0  0
 10 31  1  0  0  0  0
 11 12  1  0  0  0  0
 11 32  1  0  0  0  0
 12 13  2  0  0  0  0
 12 14  1  0  0  0  0
 14 16  1  0  0  0  0
 14 15  1  0  0  0  0
 14 33  1  0  0  0  0
 15 16  1  0  0  0  0
 15 34  1  0  0  0  0
 15 35  1  0  0  0  0
 16 36  1  0  0  0  0
 16 37  1  0  0  0  0
 17 18  1  0  0  0  0
 17 38  1  0  0  0  0
 18 19  2  0  0  0  0
 18 20  1  0  0  0  0
 20 21  1  0  0  0  0
 20 39  1  0  0  0  0
 20 40  1  0  0  0  0
 21 22  1  0  0  0  0
 21 41  1  0  0  0  0
 21 42  1  0  0  0  0
 22 23  1  0  0  0  0
 22 43  1  0  0  0  0
 22 44  1  0  0  0  0
 23 45  1  0  0  0  0
 23 46  1  0  0  0  0
 23 47  1  0  0  0  0
M  END
> <Name>
ZINC31971727

> <reference>
BDB5023

> <quality>
0.658

> <status>
decoy

> <atoms in reference ligand area>
18

> <score>
-28.8893

$$$$
ZINC23365452
      BALL 1.4.0 (Jan  4 2012, 23:22:29)

 51 53  0999  0  0  0  0  0  0999 V2000
    0.0677    7.1332    5.5660 C   0  0  0  0  0  0  0  0  0  0  0  0
    1.2641    7.0773    4.6511 C   0  0  0  0  0  0  0  0  0  0  0  0
    1.1343    6.5593    3.3753 C   0  0  0  0  0  0  0  0  0  0  0  0
    2.2307    6.5011    2.5350 C   0  0  0  0  0  0  0  0  0  0  0  0
    3.4585    6.9648    2.9659 C   0  0  0  0  0  0  0  0  0  0  0  0
    3.5908    7.4901    4.2443 C   0  0  0  0  0  0  0  0  0  0  0  0
    2.4874    7.5477    5.0859 C   0  0  0  0  0  0  0  0  0  0  0  0
    2.6265    8.1172    6.4742 C   0  0  0  0  0  0  0  0  0  0  0  0
    4.8330    7.9611    4.6837 N   0  0  0  0  0  0  0  0  0  0  0  0
    5.8632    7.1052    4.8343 C   0  0  0  0  0  0  0  0  0  0  0  0
    5.6977    5.9182    4.6478 O   0  0  0  0  0  0  0  0  0  0  0  0
    7.2207    7.6230    5.2345 C   0  0  0  0  0  0  0  0  0  0  0  0
    7.6789    9.0067    4.1615 S   0  0  0  0  0  0  0  0  0  0  0  0
    9.3886    8.6546    3.9214 C   0  0  0  0  0  0  0  0  0  0  0  0
    9.9481    7.4669    3.9183 N   0  0  0  0  0  0  0  0  0  0  0  0
   11.2120    7.5802    3.7146 N   0  0  0  0  0  0  0  0  0  0  0  0
   11.5321    8.8357    3.5767 C   0  0  0  0  0  0  0  0  0  0  0  0
   10.3814    9.5648    3.6976 N   0  0  0  0  0  0  0  0  0  0  0  0
   10.2432   11.0206    3.6089 C   0  0  0  0  0  0  0  0  0  0  0  0
    9.1128   11.3675    2.6379 C   0  0  0  0  0  0  0  0  0  0  0  0
    8.8059   12.8400    2.7297 C   0  0  0  0  0  0  0  0  0  0  0  0
    9.3885   13.6267    2.0139 O   0  0  0  0  0  0  0  0  0  0  0  0
    7.8837   13.2826    3.6074 N   0  0  0  0  0  0  0  0  0  0  0  0
   12.9135    9.3826    3.3244 C   0  0  0  0  0  0  0  0  0  0  0  0
   13.2995   10.6818    4.0343 C   0  0  0  0  0  0  0  0  0  0  0  0
   13.0233   10.6849    2.5288 C   0  0  0  0  0  0  0  0  0  0  0  0
    4.6317    6.9020    2.0656 N   0  0  0  0  0  0  0  0  0  0  0  0
    4.4912    7.0795    0.8688 O   0  0  0  0  0  0  0  0  0  0  0  0
    5.7376    6.6729    2.5215 O   0  0  0  0  0  0  0  0  0  0  0  0
   -0.7988    6.9415    4.9161 H   0  0  0  0  0  0  0  0  0  0  0  0
    0.0049    8.1821    5.8912 H   0  0  0  0  0  0  0  0  0  0  0  0
    0.1220    6.4327    6.4125 H   0  0  0  0  0  0  0  0  0  0  0  0
    0.1568    6.1929    3.0284 H   0  0  0  0  0  0  0  0  0  0  0  0
    2.1251    6.0850    1.5221 H   0  0  0  0  0  0  0  0  0  0  0  0
    2.6438    7.2427    7.1412 H   0  0  0  0  0  0  0  0  0  0  0  0
    1.6820    8.6494    6.6605 H   0  0  0  0  0  0  0  0  0  0  0  0
    3.5070    8.7637    6.6042 H   0  0  0  0  0  0  0  0  0  0  0  0
    4.9601    8.9618    4.8920 H   0  0  0  0  0  0  0  0  0  0  0  0
    7.1894    7.9649    6.2795 H   0  0  0  0  0  0  0  0  0  0  0  0
    7.9652    6.8196    5.1336 H   0  0  0  0  0  0  0  0  0  0  0  0
   10.0094   11.4281    4.6035 H   0  0  0  0  0  0  0  0  0  0  0  0
   11.1849   11.4579    3.2455 H   0  0  0  0  0  0  0  0  0  0  0  0
    8.2139   10.7894    2.8983 H   0  0  0  0  0  0  0  0  0  0  0  0
    9.4225   11.1214    1.6115 H   0  0  0  0  0  0  0  0  0  0  0  0
    6.9104   12.9520    3.5423 H   0  0  0  0  0  0  0  0  0  0  0  0
    8.1523   13.9515    4.3432 H   0  0  0  0  0  0  0  0  0  0  0  0
   13.3577    8.3798    3.2408 H   0  0  0  0  0  0  0  0  0  0  0  0
   14.3784   10.7213    4.2455 H   0  0  0  0  0  0  0  0  0  0  0  0
   12.4532   11.0991    4.5997 H   0  0  0  0  0  0  0  0  0  0  0  0
   12.0321   11.1046    2.3025 H   0  0  0  0  0  0  0  0  0  0  0  0
   13.9568   10.7251    1.9483 H   0  0  0  0  0  0  0  0  0  0  0  0
  1  2  1  0  0  0  0
  1 30  1  0  0  0  0
  1 31  1  0  0  0  0
  1 32  1  0  0  0  0
  2  7  2  0  0  0  0
  2  3  1  0  0  0  0
  3  4  2  0  0  0  0
  3 33  1  0  0  0  0
  4  5  1  0  0  0  0
  4 34  1  0  0  0  0
  5  6  2  0  0  0  0
  5 27  1  0  0  0  0
  6  7  1  0  0  0  0
  6  9  1  0  0  0  0
  7  8  1  0  0  0  0
  8 35  1  0  0  0  0
  8 36  1  0  0  0  0
  8 37  1  0  0  0  0
  9 10  1  0  0  0  0
  9 38  1  0  0  0  0
 10 11  2  0  0  0  0
 10 12  1  0  0  0  0
 12 13  1  0  0  0  0
 12 39  1  0  0  0  0
 12 40  1  0  0  0  0
 13 14  1  0  0  0  0
 14 18  1  0  0  0  0
 14 15  2  0  0  0  0
 15 16  1  0  0  0  0
 16 17  2  0  0  0  0
 17 18  1  0  0  0  0
 17 24  1  0  0  0  0
 18 19  1  0  0  0  0
 19 20  1  0  0  0  0
 19 41  1  0  0  0  0
 19 42  1  0  0  0  0
 20 21  1  0  0  0  0
 20 43  1  0  0  0  0
 20 44  1  0  0  0  0
 21 22  2  0  0  0  0
 21 23  1  0  0  0  0
 23 45  1  0  0  0  0
 23 46  1  0  0  0  0
 24 26  1  0  0  0  0
 24 25  1  0  0  0  0
 24 47  1  0  0  0  0
 25 26  1  0  0  0  0
 25 48  1  0  0  0  0
 25 49  1  0  0  0  0
 26 50  1  0  0  0  0
 26 51  1  0  0  0  0
 27 28  2  0  0  0  0
 27 29  2  0  0  0  0
M  END
> <Name>
ZINC23365452

> <reference>
BDB4965

> <quality>
0.690

> <status>
decoy

> <atoms in reference ligand area>
12

> <score>
-28.786

$$$$
ZINC17002242
      BALL 1.4.0 (Jan  4 2012, 23:22:29)

 35 35  0999  0  0  0  0  0  0999 V2000
   15.4119   10.3464    5.0516 C   0  0  0  0  0  0  0  0  0  0  0  0
   15.4072   12.7227    5.5160 C   0  0  0  0  0  0  0  0  0  0  0  0
   14.1438   11.8527    3.6425 C   0  0  0  0  0  0  0  0  0  0  0  0
   12.7124   11.3341    3.4912 C   0  0  0  0  0  0  0  0  0  0  0  0
   12.1239   11.8387    2.1722 C   0  0  0  0  0  0  0  0  0  0  0  0
   10.7533   11.3422    2.0272 N   0  0  0  0  0  0  0  0  0  0  0  0
   10.0043   11.6746    0.8909 N   0  0  0  0  0  0  0  0  0  0  0  0
    8.7436   11.4045    0.8475 N   0  0  0  0  0  0  0  0  0  0  0  0
    8.0128   11.7289   -0.2613 C   0  0  0  0  0  0  0  0  0  0  0  0
    6.7866   11.1831   -0.6312 C   0  0  0  0  0  0  0  0  0  0  0  0
    6.4328   11.8109   -1.8125 N   0  0  0  0  0  0  0  0  0  0  0  0
    7.4162   12.6780   -2.1151 C   0  0  0  0  0  0  0  0  0  0  0  0
    8.3439   12.6333   -1.1975 N   0  0  0  0  0  0  0  0  0  0  0  0
    6.0282   10.1566    0.0821 C   0  0  0  0  0  0  0  0  0  0  0  0
    6.4631    9.6883    1.1184 O   0  0  0  0  0  0  0  0  0  0  0  0
    4.8476    9.7288   -0.4075 N   0  0  0  0  0  0  0  0  0  0  0  0
   14.6049   11.5843    5.0210 N   0  3  0  0  0  0  0  0  0  0  0  0
   15.7327   10.1469    6.0847 H   0  0  0  0  0  0  0  0  0  0  0  0
   16.2987   10.4746    4.4134 H   0  0  0  0  0  0  0  0  0  0  0  0
   14.8112    9.5020    4.6826 H   0  0  0  0  0  0  0  0  0  0  0  0
   15.4195   12.7079    6.6158 H   0  0  0  0  0  0  0  0  0  0  0  0
   14.9553   13.6639    5.1696 H   0  0  0  0  0  0  0  0  0  0  0  0
   16.4361   12.6456    5.1347 H   0  0  0  0  0  0  0  0  0  0  0  0
   14.1663   12.9357    3.4516 H   0  0  0  0  0  0  0  0  0  0  0  0
   14.8005   11.3353    2.9276 H   0  0  0  0  0  0  0  0  0  0  0  0
   12.7188   10.2341    3.4923 H   0  0  0  0  0  0  0  0  0  0  0  0
   12.0989   11.6981    4.3286 H   0  0  0  0  0  0  0  0  0  0  0  0
   12.1170   12.9387    2.1707 H   0  0  0  0  0  0  0  0  0  0  0  0
   12.7355   11.4747    1.3335 H   0  0  0  0  0  0  0  0  0  0  0  0
   10.3402   10.7486    2.7608 H   0  0  0  0  0  0  0  0  0  0  0  0
    5.5755   11.6451   -2.3590 H   0  0  0  0  0  0  0  0  0  0  0  0
    7.4356   13.3274   -3.0027 H   0  0  0  0  0  0  0  0  0  0  0  0
    4.0613    9.5442    0.2318 H   0  0  0  0  0  0  0  0  0  0  0  0
    4.7315    9.5864   -1.4210 H   0  0  0  0  0  0  0  0  0  0  0  0
   13.7837   11.4636    5.6309 H   0  0  0  0  0  0  0  0  0  0  0  0
  1 17  1  0  0  0  0
  1 18  1  0  0  0  0
  1 19  1  0  0  0  0
  1 20  1  0  0  0  0
  2 17  1  0  0  0  0
  2 21  1  0  0  0  0
  2 22  1  0  0  0  0
  2 23  1  0  0  0  0
  3  4  1  0  0  0  0
  3 17  1  0  0  0  0
  3 24  1  0  0  0  0
  3 25  1  0  0  0  0
  4  5  1  0  0  0  0
  4 26  1  0  0  0  0
  4 27  1  0  0  0  0
  5  6  1  0  0  0  0
  5 28  1  0  0  0  0
  5 29  1  0  0  0  0
  6  7  1  0  0  0  0
  6 30  1  0  0  0  0
  7  8  2  0  0  0  0
  8  9  1  0  0  0  0
  9 13  1  0  0  0  0
  9 10  2  0  0  0  0
 10 11  1  0  0  0  0
 10 14  1  0  0  0  0
 11 12  1  0  0  0  0
 11 31  1  0  0  0  0
 12 13  2  0  0  0  0
 12 32  1  0  0  0  0
 14 15  2  0  0  0  0
 14 16  1  0  0  0  0
 16 33  1  0  0  0  0
 16 34  1  0  0  0  0
 17 35  1  0  0  0  0
M  END
> <Name>
ZINC17002242

> <reference>
BDB5021

> <quality>
0.654

> <status>
decoy

> <atoms in reference ligand area>
14

> <score>
-28.7847

$$$$
ZINC15775177
      BALL 1.4.0 (Jan  4 2012, 23:22:29)

 38 39  0999  0  0  0  0  0  0999 V2000
    3.8283    6.1524   -2.1383 C   0  0  0  0  0  0  0  0  0  0  0  0
    4.7586    7.0075   -1.3172 C   0  0  0  0  0  0  0  0  0  0  0  0
    4.4302    7.3281   -0.0128 C   0  0  0  0  0  0  0  0  0  0  0  0
    5.2806    8.1112    0.7426 C   0  0  0  0  0  0  0  0  0  0  0  0
    6.4672    8.5773    0.1905 C   0  0  0  0  0  0  0  0  0  0  0  0
    6.7911    8.2584   -1.1223 C   0  0  0  0  0  0  0  0  0  0  0  0
    5.9388    7.4702   -1.8701 C   0  0  0  0  0  0  0  0  0  0  0  0
    7.3301    9.3698    0.9520 N   0  0  0  0  0  0  0  0  0  0  0  0
    7.7243   10.6149    0.4829 C   0  0  0  0  0  0  0  0  0  0  0  0
    7.8125   11.0700   -0.7600 N   0  0  0  0  0  0  0  0  0  0  0  0
    8.1904   12.2467   -1.0119 N   0  0  0  0  0  0  0  0  0  0  0  0
    8.5309   13.0934   -0.0614 C   0  0  0  0  0  0  0  0  0  0  0  0
    8.2609   12.0679    1.3813 S   0  0  0  0  0  0  0  0  0  0  0  0
    9.0056   14.5203   -0.1602 C   0  0  0  0  0  0  0  0  0  0  0  0
   10.5182   14.5397   -0.3896 C   0  0  0  0  0  0  0  0  0  0  0  0
   10.8137   14.2694   -1.8663 C   0  0  0  0  0  0  0  0  0  0  0  0
   12.2626   14.6515   -2.1748 C   0  0  0  0  0  0  0  0  0  0  0  0
   12.6468   14.0879   -3.4305 O   0  0  0  0  0  0  0  0  0  0  0  0
    9.9325   15.0478   -2.6785 O   0  0  0  0  0  0  0  0  0  0  0  0
   11.0387   15.8200   -0.0263 O   0  0  0  0  0  0  0  0  0  0  0  0
    8.3497   15.1660   -1.2532 O   0  0  0  0  0  0  0  0  0  0  0  0
    4.1930    5.1232   -2.0052 H   0  0  0  0  0  0  0  0  0  0  0  0
    4.0261    6.4353   -3.1827 H   0  0  0  0  0  0  0  0  0  0  0  0
    2.7680    6.2614   -1.8665 H   0  0  0  0  0  0  0  0  0  0  0  0
    3.4903    6.9590    0.4236 H   0  0  0  0  0  0  0  0  0  0  0  0
    5.0188    8.3655    1.7803 H   0  0  0  0  0  0  0  0  0  0  0  0
    7.7255    8.6332   -1.5655 H   0  0  0  0  0  0  0  0  0  0  0  0
    6.1989    7.2101   -2.9068 H   0  0  0  0  0  0  0  0  0  0  0  0
    7.6736    9.0299    1.8616 H   0  0  0  0  0  0  0  0  0  0  0  0
    8.7696   15.0508    0.7741 H   0  0  0  0  0  0  0  0  0  0  0  0
   10.9926   13.7624    0.2275 H   0  0  0  0  0  0  0  0  0  0  0  0
   10.6626   13.2012   -2.0809 H   0  0  0  0  0  0  0  0  0  0  0  0
   12.3509   15.7469   -2.2226 H   0  0  0  0  0  0  0  0  0  0  0  0
   12.9215   14.2647   -1.3833 H   0  0  0  0  0  0  0  0  0  0  0  0
   12.1677   14.5521   -4.1621 H   0  0  0  0  0  0  0  0  0  0  0  0
    9.9497   15.9903   -2.3762 H   0  0  0  0  0  0  0  0  0  0  0  0
   11.4702   16.2374   -0.8135 H   0  0  0  0  0  0  0  0  0  0  0  0
    7.4404   15.4430   -0.9766 H   0  0  0  0  0  0  0  0  0  0  0  0
  1  2  1  0  0  0  0
  1 22  1  0  0  0  0
  1 23  1  0  0  0  0
  1 24  1  0  0  0  0
  2  7  2  0  0  0  0
  2  3  1  0  0  0  0
  3  4  2  0  0  0  0
  3 25  1  0  0  0  0
  4  5  1  0  0  0  0
  4 26  1  0  0  0  0
  5  6  2  0  0  0  0
  5  8  1  0  0  0  0
  6  7  1  0  0  0  0
  6 27  1  0  0  0  0
  7 28  1  0  0  0  0
  8  9  1  0  0  0  0
  8 29  1  0  0  0  0
  9 13  1  0  0  0  0
  9 10  2  0  0  0  0
 10 11  1  0  0  0  0
 11 12  2  0  0  0  0
 12 13  1  0  0  0  0
 12 14  1  0  0  0  0
 14 15  1  0  0  0  0
 14 21  1  0  0  0  0
 14 30  1  0  0  0  0
 15 16  1  0  0  0  0
 15 20  1  0  0  0  0
 15 31  1  0  0  0  0
 16 17  1  0  0  0  0
 16 19  1  0  0  0  0
 16 32  1  0  0  0  0
 17 18  1  0  0  0  0
 17 33  1  0  0  0  0
 17 34  1  0  0  0  0
 18 35  1  0  0  0  0
 19 36  1  0  0  0  0
 20 37  1  0  0  0  0
 21 38  1  0  0  0  0
M  END
> <Name>
ZINC15775177

> <reference>
BDB5219

> <quality>
0.676

> <status>
decoy

> <atoms in reference ligand area>
11

> <score>
-28.6905

$$$$
ZINC31599770
      BALL 1.4.0 (Jan  4 2012, 23:22:29)

 38 38  0999  0  0  0  0  0  0999 V2000
    6.0970    5.8282   -0.3838 C   0  0  0  0  0  0  0  0  0  0  0  0
    4.7274    6.3508    0.0545 C   0  0  0  0  0  0  0  0  0  0  0  0
    4.8744    7.7734    0.5980 C   0  0  0  0  0  0  0  0  0  0  0  0
    5.4404    8.6813   -0.4957 C   0  0  0  0  0  0  0  0  0  0  0  0
    6.8100    8.1587   -0.9341 C   0  0  0  0  0  0  0  0  0  0  0  0
    6.6631    6.7361   -1.4775 C   0  0  0  0  0  0  0  0  0  0  0  0
    5.6147   10.3680    0.1487 S   0  0  0  0  0  0  0  0  0  0  0  0
    7.2587   10.8860   -0.4166 C   0  0  0  0  0  0  0  0  0  0  0  0
    7.1257   12.1246   -1.3050 C   0  0  0  0  0  0  0  0  0  0  0  0
    8.0609   13.1557   -0.8486 N   0  3  0  0  0  0  0  0  0  0  0  0
    8.3178   14.1750   -1.6019 C   0  0  0  0  0  0  0  0  0  0  0  0
    9.1621   15.3071   -1.0758 C   0  0  0  0  0  0  0  0  0  0  0  0
   10.5288   14.6347   -0.0905 S   0  0  0  0  0  0  0  0  0  0  0  0
   12.0362   14.3639   -1.4532 S   0  0  0  0  0  0  0  0  0  0  0  0
   13.1157   15.1873   -1.0336 O   0  0  0  0  0  0  0  0  0  0  0  0
   12.1735   12.9611   -1.6334 O   0  0  0  0  0  0  0  0  0  0  0  0
   11.5496   14.9274   -2.7805 O   0  5  0  0  0  0  0  0  0  0  0  0
    7.8225   14.2256   -2.8782 N   0  0  0  0  0  0  0  0  0  0  0  0
    5.9907    4.8055   -0.7746 H   0  0  0  0  0  0  0  0  0  0  0  0
    6.7795    5.8220    0.4789 H   0  0  0  0  0  0  0  0  0  0  0  0
    4.3196    5.6989    0.8411 H   0  0  0  0  0  0  0  0  0  0  0  0
    4.0441    6.3568   -0.8075 H   0  0  0  0  0  0  0  0  0  0  0  0
    3.8897    8.1494    0.9126 H   0  0  0  0  0  0  0  0  0  0  0  0
    5.5578    7.7691    1.4599 H   0  0  0  0  0  0  0  0  0  0  0  0
    4.7571    8.6869   -1.3577 H   0  0  0  0  0  0  0  0  0  0  0  0
    7.2168    8.8110   -1.7209 H   0  0  0  0  0  0  0  0  0  0  0  0
    7.4942    8.1525   -0.0727 H   0  0  0  0  0  0  0  0  0  0  0  0
    7.6480    6.3608   -1.7923 H   0  0  0  0  0  0  0  0  0  0  0  0
    5.9804    6.7425   -2.3400 H   0  0  0  0  0  0  0  0  0  0  0  0
    7.8872   11.1256    0.4538 H   0  0  0  0  0  0  0  0  0  0  0  0
    7.7235   10.0715   -0.9916 H   0  0  0  0  0  0  0  0  0  0  0  0
    6.0975   12.5111   -1.2457 H   0  0  0  0  0  0  0  0  0  0  0  0
    7.3569   11.8557   -2.3463 H   0  0  0  0  0  0  0  0  0  0  0  0
    8.5139   13.0687    0.0724 H   0  0  0  0  0  0  0  0  0  0  0  0
    8.5449   15.9639   -0.4451 H   0  0  0  0  0  0  0  0  0  0  0  0
    9.5684   15.8845   -1.9194 H   0  0  0  0  0  0  0  0  0  0  0  0
    7.3789   13.3931   -3.2919 H   0  0  0  0  0  0  0  0  0  0  0  0
    7.8937   15.0962   -3.4240 H   0  0  0  0  0  0  0  0  0  0  0  0
  1  6  1  0  0  0  0
  1  2  1  0  0  0  0
  1 19  1  0  0  0  0
  1 20  1  0  0  0  0
  2  3  1  0  0  0  0
  2 21  1  0  0  0  0
  2 22  1  0  0  0  0
  3  4  1  0  0  0  0
  3 23  1  0  0  0  0
  3 24  1  0  0  0  0
  4  5  1  0  0  0  0
  4  7  1  0  0  0  0
  4 25  1  0  0  0  0
  5  6  1  0  0  0  0
  5 26  1  0  0  0  0
  5 27  1  0  0  0  0
  6 28  1  0  0  0  0
  6 29  1  0  0  0  0
  7  8  1  0  0  0  0
  8  9  1  0  0  0  0
  8 30  1  0  0  0  0
  8 31  1  0  0  0  0
  9 10  1  0  0  0  0
  9 32  1  0  0  0  0
  9 33  1  0  0  0  0
 10 11  2  0  0  0  0
 10 34  1  0  0  0  0
 11 12  1  0  0  0  0
 11 18  1  0  0  0  0
 12 13  1  0  0  0  0
 12 35  1  0  0  0  0
 12 36  1  0  0  0  0
 13 14  1  0  0  0  0
 14 15  2  0  0  0  0
 14 16  2  0  0  0  0
 14 17  1  0  0  0  0
 18 37  1  0  0  0  0
 18 38  1  0  0  0  0
M  END
> <Name>
ZINC31599770

> <reference>
BDB5023

> <quality>
0.664

> <status>
decoy

> <atoms in reference ligand area>
14

> <score>
-28.6756

$$$$
ZINC08615535
      BALL 1.4.0 (Jan  4 2012, 23:22:29)

 49 50  0999  0  0  0  0  0  0999 V2000
    9.4423   13.7772    1.9808 C   0  0  0  0  0  0  0  0  0  0  0  0
    9.7152   12.8909    3.1977 C   0  0  0  0  0  0  0  0  0  0  0  0
   10.9308   13.3548    3.8917 N   0  0  0  0  0  0  0  0  0  0  0  0
   12.1500   13.0631    3.2926 C   0  0  0  0  0  0  0  0  0  0  0  0
   12.2981   11.7707    2.7926 N   0  0  0  0  0  0  0  0  0  0  0  0
   11.1766   11.2230    2.1718 C   0  0  0  0  0  0  0  0  0  0  0  0
    9.9505   11.5018    2.7623 N   0  0  0  0  0  0  0  0  0  0  0  0
    8.9795   10.5065    2.9364 C   0  0  0  0  0  0  0  0  0  0  0  0
    8.2294   10.0711    1.8522 C   0  0  0  0  0  0  0  0  0  0  0  0
    7.2765    9.0866    2.0227 C   0  0  0  0  0  0  0  0  0  0  0  0
    7.0601    8.5401    3.2810 C   0  0  0  0  0  0  0  0  0  0  0  0
    7.8066    8.9798    4.3665 C   0  0  0  0  0  0  0  0  0  0  0  0
    8.7636    9.9600    4.1945 C   0  0  0  0  0  0  0  0  0  0  0  0
    6.0898    7.5469    3.4551 N   0  0  0  0  0  0  0  0  0  0  0  0
    5.8614    6.9708    4.7826 C   0  0  0  0  0  0  0  0  0  0  0  0
    5.6826    8.0967    5.8031 C   0  0  0  0  0  0  0  0  0  0  0  0
    4.3879    8.6808    5.6462 O   0  0  0  0  0  0  0  0  0  0  0  0
    5.3026    7.0832    2.3100 C   0  0  0  0  0  0  0  0  0  0  0  0
    4.0251    6.4055    2.8100 C   0  0  0  0  0  0  0  0  0  0  0  0
    3.3135    7.3024    3.6650 O   0  0  0  0  0  0  0  0  0  0  0  0
    8.5214   12.9401    4.1534 C   0  0  0  0  0  0  0  0  0  0  0  0
   13.0761   14.0076    3.2334 N   0  3  0  0  0  0  0  0  0  0  0  0
   11.2069   10.4717    1.0817 N   0  3  0  0  0  0  0  0  0  0  0  0
   10.3922   14.1885    1.6086 H   0  0  0  0  0  0  0  0  0  0  0  0
    8.7768   14.6030    2.2727 H   0  0  0  0  0  0  0  0  0  0  0  0
    8.9640   13.1818    1.1891 H   0  0  0  0  0  0  0  0  0  0  0  0
   10.8784   13.8719    4.7810 H   0  0  0  0  0  0  0  0  0  0  0  0
   13.1835   11.2512    2.8768 H   0  0  0  0  0  0  0  0  0  0  0  0
    8.3943   10.5105    0.8574 H   0  0  0  0  0  0  0  0  0  0  0  0
    6.6887    8.7351    1.1619 H   0  0  0  0  0  0  0  0  0  0  0  0
    7.6353    8.5472    5.3633 H   0  0  0  0  0  0  0  0  0  0  0  0
    9.3551   10.3080    5.0541 H   0  0  0  0  0  0  0  0  0  0  0  0
    6.7245    6.3516    5.0684 H   0  0  0  0  0  0  0  0  0  0  0  0
    4.9545    6.3486    4.7613 H   0  0  0  0  0  0  0  0  0  0  0  0
    5.7794    7.6888    6.8200 H   0  0  0  0  0  0  0  0  0  0  0  0
    6.4528    8.8652    5.6414 H   0  0  0  0  0  0  0  0  0  0  0  0
    4.2080    9.2945    6.4019 H   0  0  0  0  0  0  0  0  0  0  0  0
    5.8936    6.3634    1.7247 H   0  0  0  0  0  0  0  0  0  0  0  0
    5.0374    7.9417    1.6756 H   0  0  0  0  0  0  0  0  0  0  0  0
    3.3917    6.1381    1.9514 H   0  0  0  0  0  0  0  0  0  0  0  0
    4.2866    5.4957    3.3703 H   0  0  0  0  0  0  0  0  0  0  0  0
    3.0765    8.1214    3.1618 H   0  0  0  0  0  0  0  0  0  0  0  0
    8.8783   13.1497    5.1727 H   0  0  0  0  0  0  0  0  0  0  0  0
    8.0036   11.9697    4.1408 H   0  0  0  0  0  0  0  0  0  0  0  0
    7.8263   13.7319    3.8372 H   0  0  0  0  0  0  0  0  0  0  0  0
   12.9002   14.9445    3.6237 H   0  0  0  0  0  0  0  0  0  0  0  0
   13.9828   13.8002    2.7909 H   0  0  0  0  0  0  0  0  0  0  0  0
   12.1359   10.2888    0.6763 H   0  0  0  0  0  0  0  0  0  0  0  0
   10.3550   10.0843    0.6515 H   0  0  0  0  0  0  0  0  0  0  0  0
  1  2  1  0  0  0  0
  1 24  1  0  0  0  0
  1 25  1  0  0  0  0
  1 26  1  0  0  0  0
  2  7  1  0  0  0  0
  2  3  1  0  0  0  0
  2 21  1  0  0  0  0
  3  4  1  0  0  0  0
  3 27  1  0  0  0  0
  4  5  1  0  0  0  0
  4 22  2  0  0  0  0
  5  6  1  0  0  0  0
  5 28  1  0  0  0  0
  6  7  1  0  0  0  0
  6 23  2  0  0  0  0
  7  8  1  0  0  0  0
  8 13  2  0  0  0  0
  8  9  1  0  0  0  0
  9 10  2  0  0  0  0
  9 29  1  0  0  0  0
 10 11  1  0  0  0  0
 10 30  1  0  0  0  0
 11 12  2  0  0  0  0
 11 14  1  0  0  0  0
 12 13  1  0  0  0  0
 12 31  1  0  0  0  0
 13 32  1  0  0  0  0
 14 15  1  0  0  0  0
 14 18  1  0  0  0  0
 15 16  1  0  0  0  0
 15 33  1  0  0  0  0
 15 34  1  0  0  0  0
 16 17  1  0  0  0  0
 16 35  1  0  0  0  0
 16 36  1  0  0  0  0
 17 37  1  0  0  0  0
 18 19  1  0  0  0  0
 18 38  1  0  0  0  0
 18 39  1  0  0  0  0
 19 20  1  0  0  0  0
 19 40  1  0  0  0  0
 19 41  1  0  0  0  0
 20 42  1  0  0  0  0
 21 43  1  0  0  0  0
 21 44  1  0  0  0  0
 21 45  1  0  0  0  0
 22 46  1  0  0  0  0
 22 47  1  0  0  0  0
 23 48  1  0  0  0  0
 23 49  1  0  0  0  0
M  END
> <Name>
ZINC08615535

> <reference>
BDB5228

> <quality>
0.725

> <status>
decoy

> <atoms in reference ligand area>
15

> <score>
-28.5618

$$$$
ZINC28887676
      BALL 1.4.0 (Jan  4 2012, 23:22:29)

 56 59  0999  0  0  0  0  0  0999 V2000
    3.6099    7.0657   -2.2208 C   0  0  0  0  0  0  0  0  0  0  0  0
    4.3265    8.0097   -1.4225 O   0  0  0  0  0  0  0  0  0  0  0  0
    5.5595    7.6382   -0.9848 C   0  0  0  0  0  0  0  0  0  0  0  0
    6.4118    6.9382   -1.8228 C   0  0  0  0  0  0  0  0  0  0  0  0
    7.6652    6.5611   -1.3764 C   0  0  0  0  0  0  0  0  0  0  0  0
    8.0715    6.8806   -0.0942 C   0  0  0  0  0  0  0  0  0  0  0  0
    7.2290    7.5836    0.7465 C   0  0  0  0  0  0  0  0  0  0  0  0
    5.9682    7.9605    0.3074 C   0  0  0  0  0  0  0  0  0  0  0  0
    5.1112    8.6677    1.1585 N   0  5  0  0  0  0  0  0  0  0  0  0
    5.6876    9.9477    2.0371 S   0  0  0  0  0  0  0  0  0  0  0  0
    5.8472    9.4854    3.3713 O   0  0  0  0  0  0  0  0  0  0  0  0
    4.8723   11.0646    1.7104 O   0  0  0  0  0  0  0  0  0  0  0  0
    7.3028   10.3092    1.4328 C   0  0  0  0  0  0  0  0  0  0  0  0
    7.4803   10.6620    0.1076 C   0  0  0  0  0  0  0  0  0  0  0  0
    8.7452   10.9464   -0.3723 C   0  0  0  0  0  0  0  0  0  0  0  0
    9.8395   10.8782    0.4749 C   0  0  0  0  0  0  0  0  0  0  0  0
    9.6620   10.5177    1.8086 C   0  0  0  0  0  0  0  0  0  0  0  0
    8.3890   10.2389    2.2843 C   0  0  0  0  0  0  0  0  0  0  0  0
   10.7656   10.4415    2.6686 N   0  0  0  0  0  0  0  0  0  0  0  0
   11.9566   10.0183    2.2008 C   0  0  0  0  0  0  0  0  0  0  0  0
   12.0501    9.6075    1.0634 O   0  0  0  0  0  0  0  0  0  0  0  0
   13.1721   10.0554    3.0909 C   0  0  0  0  0  0  0  0  0  0  0  0
   12.8886    9.3625    4.4438 C   0  0  0  0  0  0  0  0  0  0  0  0
   14.1845    8.6571    4.7781 C   0  0  0  0  0  0  0  0  0  0  0  0
   14.4807    8.2308    5.8742 O   0  0  0  0  0  0  0  0  0  0  0  0
   14.9596    8.5709    3.6833 N   0  0  0  0  0  0  0  0  0  0  0  0
   14.3045    9.1751    2.5172 C   0  0  0  0  0  0  0  0  0  0  0  0
   16.2877    7.9530    3.6573 C   0  0  0  0  0  0  0  0  0  0  0  0
   16.9662    8.2586    2.3204 C   0  0  0  0  0  0  0  0  0  0  0  0
   18.4779    8.0406    2.2294 C   0  0  0  0  0  0  0  0  0  0  0  0
   17.9100    9.4616    2.2660 C   0  0  0  0  0  0  0  0  0  0  0  0
   11.0843   11.1571    0.0041 O   0  0  0  0  0  0  0  0  0  0  0  0
    3.2286    7.6219   -3.0898 H   0  0  0  0  0  0  0  0  0  0  0  0
    2.7461    6.7450   -1.6199 H   0  0  0  0  0  0  0  0  0  0  0  0
    4.2299    6.2104   -2.5275 H   0  0  0  0  0  0  0  0  0  0  0  0
    6.0916    6.6822   -2.8436 H   0  0  0  0  0  0  0  0  0  0  0  0
    8.3406    6.0054   -2.0434 H   0  0  0  0  0  0  0  0  0  0  0  0
    9.0677    6.5747    0.2579 H   0  0  0  0  0  0  0  0  0  0  0  0
    7.5581    7.8439    1.7633 H   0  0  0  0  0  0  0  0  0  0  0  0
    6.6128   10.7166   -0.5665 H   0  0  0  0  0  0  0  0  0  0  0  0
    8.8829   11.2268   -1.4270 H   0  0  0  0  0  0  0  0  0  0  0  0
    8.2443    9.9620    3.3390 H   0  0  0  0  0  0  0  0  0  0  0  0
   10.6666   10.7090    3.6583 H   0  0  0  0  0  0  0  0  0  0  0  0
   13.4344   11.1200    3.1797 H   0  0  0  0  0  0  0  0  0  0  0  0
   12.0765    8.6290    4.3312 H   0  0  0  0  0  0  0  0  0  0  0  0
   12.6575   10.1145    5.2127 H   0  0  0  0  0  0  0  0  0  0  0  0
   15.0219    9.7986    1.9636 H   0  0  0  0  0  0  0  0  0  0  0  0
   13.8801    8.3895    1.8747 H   0  0  0  0  0  0  0  0  0  0  0  0
   16.1891    6.8639    3.7771 H   0  0  0  0  0  0  0  0  0  0  0  0
   16.8972    8.3584    4.4783 H   0  0  0  0  0  0  0  0  0  0  0  0
   16.0954    7.9256    1.7367 H   0  0  0  0  0  0  0  0  0  0  0  0
   18.7842    7.7559    1.2120 H   0  0  0  0  0  0  0  0  0  0  0  0
   18.9029    7.7518    3.2020 H   0  0  0  0  0  0  0  0  0  0  0  0
   18.0371    9.9203    3.2578 H   0  0  0  0  0  0  0  0  0  0  0  0
   17.9169    9.9237    1.2678 H   0  0  0  0  0  0  0  0  0  0  0  0
   11.2625   10.4581   -0.6739 H   0  0  0  0  0  0  0  0  0  0  0  0
  1  2  1  0  0  0  0
  1 33  1  0  0  0  0
  1 34  1  0  0  0  0
  1 35  1  0  0  0  0
  2  3  1  0  0  0  0
  3  8  2  0  0  0  0
  3  4  1  0  0  0  0
  4  5  2  0  0  0  0
  4 36  1  0  0  0  0
  5  6  1  0  0  0  0
  5 37  1  0  0  0  0
  6  7  2  0  0  0  0
  6 38  1  0  0  0  0
  7  8  1  0  0  0  0
  7 39  1  0  0  0  0
  8  9  1  0  0  0  0
  9 10  1  0  0  0  0
 10 11  2  0  0  0  0
 10 12  2  0  0  0  0
 10 13  1  0  0  0  0
 13 18  2  0  0  0  0
 13 14  1  0  0  0  0
 14 15  2  0  0  0  0
 14 40  1  0  0  0  0
 15 16  1  0  0  0  0
 15 41  1  0  0  0  0
 16 17  2  0  0  0  0
 16 32  1  0  0  0  0
 17 18  1  0  0  0  0
 17 19  1  0  0  0  0
 18 42  1  0  0  0  0
 19 20  1  0  0  0  0
 19 43  1  0  0  0  0
 20 21  2  0  0  0  0
 20 22  1  0  0  0  0
 22 27  1  0  0  0  0
 22 23  1  0  0  0  0
 22 44  1  0  0  0  0
 23 24  1  0  0  0  0
 23 45  1  0  0  0  0
 23 46  1  0  0  0  0
 24 25  2  0  0  0  0
 24 26  1  0  0  0  0
 26 27  1  0  0  0  0
 26 28  1  0  0  0  0
 27 47  1  0  0  0  0
 27 48  1  0  0  0  0
 28 29  1  0  0  0  0
 28 49  1  0  0  0  0
 28 50  1  0  0  0  0
 29 31  1  0  0  0  0
 29 30  1  0  0  0  0
 29 51  1  0  0  0  0
 30 31  1  0  0  0  0
 30 52  1  0  0  0  0
 30 53  1  0  0  0  0
 31 54  1  0  0  0  0
 31 55  1  0  0  0  0
 32 56  1  0  0  0  0
M  END
> <Name>
ZINC28887676

> <reference>
BDB4968

> <quality>
0.761

> <status>
decoy

> <atoms in reference ligand area>
12

> <score>
-28.2517

$$$$
ZINC15084765
      BALL 1.4.0 (Jan  4 2012, 23:22:29)

 52 54  0999  0  0  0  0  0  0999 V2000
   14.5746    8.1264   -3.2587 C   0  0  0  0  0  0  0  0  0  0  0  0
   13.8592    6.7768   -3.3455 C   0  0  0  0  0  0  0  0  0  0  0  0
   12.8168    6.7158   -2.3365 O   0  0  0  0  0  0  0  0  0  0  0  0
   13.1612    6.2244   -1.1300 C   0  0  0  0  0  0  0  0  0  0  0  0
   14.2419    5.6911   -0.9774 O   0  0  0  0  0  0  0  0  0  0  0  0
   12.2262    6.3340    0.0051 C   0  0  0  0  0  0  0  0  0  0  0  0
   10.9810    5.9949   -0.0055 N   0  0  0  0  0  0  0  0  0  0  0  0
   10.3378    6.2234    1.2332 O   0  0  0  0  0  0  0  0  0  0  0  0
   11.3642    6.3777    2.2345 C   0  0  0  0  0  0  0  0  0  0  0  0
   12.5627    6.8646    1.3857 C   0  0  0  0  0  0  0  0  0  0  0  0
   10.9641    7.4293    3.2714 C   0  0  0  0  0  0  0  0  0  0  0  0
    9.6779    8.0897    2.8465 C   0  0  0  0  0  0  0  0  0  0  0  0
    9.7006    9.3722    2.2897 C   0  0  0  0  0  0  0  0  0  0  0  0
    8.5027    9.9807    1.8962 C   0  0  0  0  0  0  0  0  0  0  0  0
    7.2989    9.3093    2.0603 C   0  0  0  0  0  0  0  0  0  0  0  0
    7.2839    8.0340    2.6150 C   0  0  0  0  0  0  0  0  0  0  0  0
    8.4762    7.4262    3.0016 C   0  0  0  0  0  0  0  0  0  0  0  0
    8.4566    6.1763    3.5388 O   0  0  0  0  0  0  0  0  0  0  0  0
    8.2050    6.0771    4.9420 C   0  0  0  0  0  0  0  0  0  0  0  0
    5.9909    7.5961    2.6675 O   0  0  0  0  0  0  0  0  0  0  0  0
    5.2597    8.4470    1.7653 C   0  0  0  0  0  0  0  0  0  0  0  0
    6.0153    9.6726    1.7642 O   0  0  0  0  0  0  0  0  0  0  0  0
    8.5184   11.2276    1.3538 O   0  0  0  0  0  0  0  0  0  0  0  0
    7.8790   12.2668    2.0977 C   0  0  0  0  0  0  0  0  0  0  0  0
   10.9810   10.0806    2.1172 C   0  0  0  0  0  0  0  0  0  0  0  0
   11.1524   11.2508    2.6519 N   0  0  0  0  0  0  0  0  0  0  0  0
   10.1215   11.8386    3.3965 N   0  0  0  0  0  0  0  0  0  0  0  0
   10.4108   12.7540    4.3425 C   0  0  0  0  0  0  0  0  0  0  0  0
   11.4363   13.4032    4.2670 O   0  0  0  0  0  0  0  0  0  0  0  0
    9.5635   12.9498    5.3721 N   0  0  0  0  0  0  0  0  0  0  0  0
   14.4694    8.6606   -4.2145 H   0  0  0  0  0  0  0  0  0  0  0  0
   15.6415    7.9640   -3.0457 H   0  0  0  0  0  0  0  0  0  0  0  0
   14.1283    8.7276   -2.4528 H   0  0  0  0  0  0  0  0  0  0  0  0
   13.4101    6.6632   -4.3433 H   0  0  0  0  0  0  0  0  0  0  0  0
   14.5821    5.9656   -3.1743 H   0  0  0  0  0  0  0  0  0  0  0  0
   11.5670    5.4635    2.8117 H   0  0  0  0  0  0  0  0  0  0  0  0
   13.4967    6.4134    1.7519 H   0  0  0  0  0  0  0  0  0  0  0  0
   12.5999    7.9640    1.3756 H   0  0  0  0  0  0  0  0  0  0  0  0
   11.7565    8.1883    3.3501 H   0  0  0  0  0  0  0  0  0  0  0  0
   10.8216    6.9451    4.2487 H   0  0  0  0  0  0  0  0  0  0  0  0
    7.1225    6.2212    5.0731 H   0  0  0  0  0  0  0  0  0  0  0  0
    8.7180    6.9306    5.4093 H   0  0  0  0  0  0  0  0  0  0  0  0
    8.5407    5.1200    5.3680 H   0  0  0  0  0  0  0  0  0  0  0  0
    4.2447    8.6272    2.1492 H   0  0  0  0  0  0  0  0  0  0  0  0
    5.2453    8.0088    0.7565 H   0  0  0  0  0  0  0  0  0  0  0  0
    6.8064   12.1997    1.8635 H   0  0  0  0  0  0  0  0  0  0  0  0
    8.2550   13.2162    1.6887 H   0  0  0  0  0  0  0  0  0  0  0  0
    8.0630   12.1906    3.1795 H   0  0  0  0  0  0  0  0  0  0  0  0
   11.7917    9.6177    1.5352 H   0  0  0  0  0  0  0  0  0  0  0  0
    9.1425   11.5712    3.2211 H   0  0  0  0  0  0  0  0  0  0  0  0
    9.0984   12.1455    5.8165 H   0  0  0  0  0  0  0  0  0  0  0  0
    9.3811   13.9039    5.7146 H   0  0  0  0  0  0  0  0  0  0  0  0
  1  2  1  0  0  0  0
  1 31  1  0  0  0  0
  1 32  1  0  0  0  0
  1 33  1  0  0  0  0
  2  3  1  0  0  0  0
  2 34  1  0  0  0  0
  2 35  1  0  0  0  0
  3  4  1  0  0  0  0
  4  5  2  0  0  0  0
  4  6  1  0  0  0  0
  6 10  1  0  0  0  0
  6  7  2  0  0  0  0
  7  8  1  0  0  0  0
  8  9  1  0  0  0  0
  9 10  1  0  0  0  0
  9 11  1  0  0  0  0
  9 36  1  0  0  0  0
 10 37  1  0  0  0  0
 10 38  1  0  0  0  0
 11 12  1  0  0  0  0
 11 39  1  0  0  0  0
 11 40  1  0  0  0  0
 12 17  2  0  0  0  0
 12 13  1  0  0  0  0
 13 14  2  0  0  0  0
 13 25  1  0  0  0  0
 14 15  1  0  0  0  0
 14 23  1  0  0  0  0
 15 22  1  0  0  0  0
 15 16  2  0  0  0  0
 16 17  1  0  0  0  0
 16 20  1  0  0  0  0
 17 18  1  0  0  0  0
 18 19  1  0  0  0  0
 19 41  1  0  0  0  0
 19 42  1  0  0  0  0
 19 43  1  0  0  0  0
 20 21  1  0  0  0  0
 21 22  1  0  0  0  0
 21 44  1  0  0  0  0
 21 45  1  0  0  0  0
 23 24  1  0  0  0  0
 24 46  1  0  0  0  0
 24 47  1  0  0  0  0
 24 48  1  0  0  0  0
 25 26  2  0  0  0  0
 25 49  1  0  0  0  0
 26 27  1  0  0  0  0
 27 28  1  0  0  0  0
 27 50  1  0  0  0  0
 28 29  2  0  0  0  0
 28 30  1  0  0  0  0
 30 51  1  0  0  0  0
 30 52  1  0  0  0  0
M  END
> <Name>
ZINC15084765

> <reference>
BDB4965

> <quality>
0.659

> <status>
decoy

> <atoms in reference ligand area>
10

> <score>
-28.2021

$$$$
ZINC00481078
      BALL 1.4.0 (Jan  4 2012, 23:22:29)

 40 40  0999  0  0  0  0  0  0999 V2000
    4.4510    9.0732    5.1576 C   0  0  0  0  0  0  0  0  0  0  0  0
    5.7730    9.0884    5.9278 C   0  0  0  0  0  0  0  0  0  0  0  0
    6.8253    8.5357    5.0939 O   0  0  0  0  0  0  0  0  0  0  0  0
    8.0721    9.0015    5.2946 C   0  0  0  0  0  0  0  0  0  0  0  0
    8.6694    8.7188    6.3138 O   0  0  0  0  0  0  0  0  0  0  0  0
    8.6578    9.7817    4.3646 N   0  0  0  0  0  0  0  0  0  0  0  0
    8.8523    9.3120    3.1164 C   0  0  0  0  0  0  0  0  0  0  0  0
    8.4148    8.2217    2.8020 O   0  0  0  0  0  0  0  0  0  0  0  0
    9.5931   10.1173    2.1354 C   0  0  0  0  0  0  0  0  0  0  0  0
    9.0914   11.3220    1.6803 C   0  0  0  0  0  0  0  0  0  0  0  0
    9.8043   12.0391    0.7739 N   0  0  0  0  0  0  0  0  0  0  0  0
   10.9838   11.6026    0.3051 C   0  0  0  0  0  0  0  0  0  0  0  0
   11.5801   12.2800   -0.5092 O   0  0  0  0  0  0  0  0  0  0  0  0
   11.5295   10.4431    0.7106 N   0  0  0  0  0  0  0  0  0  0  0  0
   10.8913    9.6644    1.6095 C   0  0  0  0  0  0  0  0  0  0  0  0
   11.3779    8.6114    1.9765 O   0  0  0  0  0  0  0  0  0  0  0  0
    9.2709   13.3157    0.2920 C   0  0  0  0  0  0  0  0  0  0  0  0
    9.9511   14.4662    1.0367 C   0  0  0  0  0  0  0  0  0  0  0  0
    9.6652   16.8191    1.5319 C   0  0  0  0  0  0  0  0  0  0  0  0
    9.9720   16.0923   -0.7573 C   0  0  0  0  0  0  0  0  0  0  0  0
    9.3875   15.7450    0.5552 N   0  3  0  0  0  0  0  0  0  0  0  0
    4.2514   10.0752    4.7501 H   0  0  0  0  0  0  0  0  0  0  0  0
    3.6340    8.7841    5.8351 H   0  0  0  0  0  0  0  0  0  0  0  0
    4.5151    8.3488    4.3323 H   0  0  0  0  0  0  0  0  0  0  0  0
    6.0271   10.1235    6.2000 H   0  0  0  0  0  0  0  0  0  0  0  0
    5.6737    8.4830    6.8408 H   0  0  0  0  0  0  0  0  0  0  0  0
    8.9568   10.7369    4.6079 H   0  0  0  0  0  0  0  0  0  0  0  0
    8.1246   11.6959    2.0484 H   0  0  0  0  0  0  0  0  0  0  0  0
   12.4408   10.1469    0.3328 H   0  0  0  0  0  0  0  0  0  0  0  0
    9.4662   13.4113   -0.7863 H   0  0  0  0  0  0  0  0  0  0  0  0
    8.1865   13.3531    0.4730 H   0  0  0  0  0  0  0  0  0  0  0  0
   11.0333   14.4444    0.8407 H   0  0  0  0  0  0  0  0  0  0  0  0
    9.7665   14.3663    2.1164 H   0  0  0  0  0  0  0  0  0  0  0  0
   10.0599   16.3754    2.4579 H   0  0  0  0  0  0  0  0  0  0  0  0
    8.7324   17.3576    1.7551 H   0  0  0  0  0  0  0  0  0  0  0  0
   10.4041   17.5189    1.1144 H   0  0  0  0  0  0  0  0  0  0  0  0
   10.9931   15.6879   -0.8191 H   0  0  0  0  0  0  0  0  0  0  0  0
   10.0070   17.1868   -0.8616 H   0  0  0  0  0  0  0  0  0  0  0  0
    9.3568   15.6647   -1.5627 H   0  0  0  0  0  0  0  0  0  0  0  0
    8.3679   15.6431    0.4510 H   0  0  0  0  0  0  0  0  0  0  0  0
  1  2  1  0  0  0  0
  1 22  1  0  0  0  0
  1 23  1  0  0  0  0
  1 24  1  0  0  0  0
  2  3  1  0  0  0  0
  2 25  1  0  0  0  0
  2 26  1  0  0  0  0
  3  4  1  0  0  0  0
  4  5  2  0  0  0  0
  4  6  1  0  0  0  0
  6  7  1  0  0  0  0
  6 27  1  0  0  0  0
  7  8  2  0  0  0  0
  7  9  1  0  0  0  0
  9 15  1  0  0  0  0
  9 10  2  0  0  0  0
 10 11  1  0  0  0  0
 10 28  1  0  0  0  0
 11 12  1  0  0  0  0
 11 17  1  0  0  0  0
 12 13  2  0  0  0  0
 12 14  1  0  0  0  0
 14 15  1  0  0  0  0
 14 29  1  0  0  0  0
 15 16  2  0  0  0  0
 17 18  1  0  0  0  0
 17 30  1  0  0  0  0
 17 31  1  0  0  0  0
 18 21  1  0  0  0  0
 18 32  1  0  0  0  0
 18 33  1  0  0  0  0
 19 21  1  0  0  0  0
 19 34  1  0  0  0  0
 19 35  1  0  0  0  0
 19 36  1  0  0  0  0
 20 21  1  0  0  0  0
 20 37  1  0  0  0  0
 20 38  1  0  0  0  0
 20 39  1  0  0  0  0
 21 40  1  0  0  0  0
M  END
> <Name>
ZINC00481078

> <reference>
BDB5195

> <quality>
0.756

> <status>
decoy

> <atoms in reference ligand area>
13

> <score>
-28.1708

$$$$
ZINC05132239
      BALL 1.4.0 (Jan  4 2012, 23:22:29)

 33 32  0999  0  0  0  0  0  0999 V2000
    9.6783   12.7377    4.0194 C   0  0  0  0  0  0  0  0  0  0  0  0
    8.5846   12.1094    3.1946 C   0  0  0  0  0  0  0  0  0  0  0  0
    8.2799   12.6158    1.9732 C   0  0  0  0  0  0  0  0  0  0  0  0
    7.2433   12.1267    1.2870 N   0  0  0  0  0  0  0  0  0  0  0  0
    6.9547   10.8717    1.3616 N   0  0  0  0  0  0  0  0  0  0  0  0
    5.9665   10.3536    0.5835 C   0  0  0  0  0  0  0  0  0  0  0  0
    6.1484    9.2154   -0.0319 N   0  3  0  0  0  0  0  0  0  0  0  0
    7.3638    8.4356    0.2146 C   0  0  0  0  0  0  0  0  0  0  0  0
    4.7716   11.0304    0.4440 N   0  0  0  0  0  0  0  0  0  0  0  0
    7.9008   11.0310    3.6763 N   0  0  0  0  0  0  0  0  0  0  0  0
    8.1390   10.5755    4.9796 N   0  0  0  0  0  0  0  0  0  0  0  0
    8.5201    9.2720    5.1934 C   0  0  0  0  0  0  0  0  0  0  0  0
    8.2916    8.7771    2.7919 C   0  0  0  0  0  0  0  0  0  0  0  0
    8.8171    8.8425    6.4651 N   0  0  0  0  0  0  0  0  0  0  0  0
    8.6205    8.3769    4.2033 N   0  3  0  0  0  0  0  0  0  0  0  0
   10.5380   12.0586    3.9209 H   0  0  0  0  0  0  0  0  0  0  0  0
    9.3273   12.6711    5.0598 H   0  0  0  0  0  0  0  0  0  0  0  0
    9.9208   13.7687    3.7226 H   0  0  0  0  0  0  0  0  0  0  0  0
    8.8864   13.4290    1.5480 H   0  0  0  0  0  0  0  0  0  0  0  0
    5.4374    8.8666   -0.6904 H   0  0  0  0  0  0  0  0  0  0  0  0
    8.1955    9.1317    0.0308 H   0  0  0  0  0  0  0  0  0  0  0  0
    7.3874    7.6783   -0.5829 H   0  0  0  0  0  0  0  0  0  0  0  0
    7.4067    7.9878    1.2185 H   0  0  0  0  0  0  0  0  0  0  0  0
    3.8900   10.5843    0.7353 H   0  0  0  0  0  0  0  0  0  0  0  0
    4.7615   11.9814    0.0488 H   0  0  0  0  0  0  0  0  0  0  0  0
    7.2096   10.5520    3.0816 H   0  0  0  0  0  0  0  0  0  0  0  0
    8.0286   11.2173    5.7777 H   0  0  0  0  0  0  0  0  0  0  0  0
    8.3378    7.8445    2.2103 H   0  0  0  0  0  0  0  0  0  0  0  0
    9.1333    9.4068    2.4679 H   0  0  0  0  0  0  0  0  0  0  0  0
    7.3223    9.2873    2.6911 H   0  0  0  0  0  0  0  0  0  0  0  0
    8.9518    7.8385    6.6513 H   0  0  0  0  0  0  0  0  0  0  0  0
    8.9051    9.5248    7.2317 H   0  0  0  0  0  0  0  0  0  0  0  0
    8.9231    7.4140    4.4083 H   0  0  0  0  0  0  0  0  0  0  0  0
  1  2  1  0  0  0  0
  1 16  1  0  0  0  0
  1 17  1  0  0  0  0
  1 18  1  0  0  0  0
  2  3  2  0  0  0  0
  2 10  1  0  0  0  0
  3  4  1  0  0  0  0
  3 19  1  0  0  0  0
  4  5  2  0  0  0  0
  5  6  1  0  0  0  0
  6  7  2  0  0  0  0
  6  9  1  0  0  0  0
  7  8  1  0  0  0  0
  7 20  1  0  0  0  0
  8 21  1  0  0  0  0
  8 22  1  0  0  0  0
  8 23  1  0  0  0  0
  9 24  1  0  0  0  0
  9 25  1  0  0  0  0
 10 11  1  0  0  0  0
 10 26  1  0  0  0  0
 11 12  1  0  0  0  0
 11 27  1  0  0  0  0
 12 14  1  0  0  0  0
 12 15  2  0  0  0  0
 13 15  1  0  0  0  0
 13 28  1  0  0  0  0
 13 29  1  0  0  0  0
 13 30  1  0  0  0  0
 14 31  1  0  0  0  0
 14 32  1  0  0  0  0
 15 33  1  0  0  0  0
M  END
> <Name>
ZINC05132239

> <reference>
BDB5234

> <quality>
0.762

> <status>
decoy

> <atoms in reference ligand area>
13

> <score>
-28.1573

$$$$
ZINC20423298
      BALL 1.4.0 (Jan  4 2012, 23:22:29)

 41 41  0999  0  0  0  0  0  0999 V2000
    9.1512   15.1516    2.6587 C   0  0  0  0  0  0  0  0  0  0  0  0
    9.8481   13.9487    2.3276 O   0  0  0  0  0  0  0  0  0  0  0  0
    9.1003   12.8244    2.1752 C   0  0  0  0  0  0  0  0  0  0  0  0
    9.1862   11.8026    3.1089 C   0  0  0  0  0  0  0  0  0  0  0  0
    8.4197   10.6571    2.9556 C   0  0  0  0  0  0  0  0  0  0  0  0
    7.5742   10.5295    1.8638 C   0  0  0  0  0  0  0  0  0  0  0  0
    7.4922   11.5491    0.9274 C   0  0  0  0  0  0  0  0  0  0  0  0
    8.2554   12.6964    1.0830 C   0  0  0  0  0  0  0  0  0  0  0  0
    6.6637   11.4240   -0.1424 O   0  0  0  0  0  0  0  0  0  0  0  0
    7.0519   12.0910   -1.3452 C   0  0  0  0  0  0  0  0  0  0  0  0
    6.7441    9.2831    1.6953 C   0  0  0  0  0  0  0  0  0  0  0  0
    6.2011    9.2212    0.2662 C   0  0  0  0  0  0  0  0  0  0  0  0
    6.1521    7.7642   -0.1981 C   0  0  0  0  0  0  0  0  0  0  0  0
    5.0086    7.5861   -1.1989 C   0  0  0  0  0  0  0  0  0  0  0  0
    5.5637    7.1079   -2.5159 C   0  0  0  0  0  0  0  0  0  0  0  0
    5.6688    5.9240   -2.7330 O   0  0  0  0  0  0  0  0  0  0  0  0
    5.9414    7.9973   -3.4477 O   0  5  0  0  0  0  0  0  0  0  0  0
    5.6231    9.3093    2.6444 N   0  3  0  0  0  0  0  0  0  0  0  0
    8.4998    9.6581    3.8735 O   0  0  0  0  0  0  0  0  0  0  0  0
    9.3911    9.8570    4.9725 C   0  0  0  0  0  0  0  0  0  0  0  0
    9.8326   15.7398    3.2908 H   0  0  0  0  0  0  0  0  0  0  0  0
    8.2924   14.8512    3.2769 H   0  0  0  0  0  0  0  0  0  0  0  0
    8.8329   15.7170    1.7705 H   0  0  0  0  0  0  0  0  0  0  0  0
    9.8624   11.9006    3.9709 H   0  0  0  0  0  0  0  0  0  0  0  0
    8.1906   13.5050    0.3401 H   0  0  0  0  0  0  0  0  0  0  0  0
    6.2069   11.9889   -2.0420 H   0  0  0  0  0  0  0  0  0  0  0  0
    7.8985   11.5209   -1.7555 H   0  0  0  0  0  0  0  0  0  0  0  0
    7.3159   13.1460   -1.1803 H   0  0  0  0  0  0  0  0  0  0  0  0
    7.3680    8.3981    1.8891 H   0  0  0  0  0  0  0  0  0  0  0  0
    5.1877    9.6481    0.2401 H   0  0  0  0  0  0  0  0  0  0  0  0
    6.8586    9.7964   -0.4022 H   0  0  0  0  0  0  0  0  0  0  0  0
    7.1050    7.5007   -0.6803 H   0  0  0  0  0  0  0  0  0  0  0  0
    5.9856    7.1074    0.6684 H   0  0  0  0  0  0  0  0  0  0  0  0
    4.4953    8.5478   -1.3458 H   0  0  0  0  0  0  0  0  0  0  0  0
    4.2944    6.8445   -0.8117 H   0  0  0  0  0  0  0  0  0  0  0  0
    5.5842    8.4162    3.1561 H   0  0  0  0  0  0  0  0  0  0  0  0
    4.7409    9.4492    2.1315 H   0  0  0  0  0  0  0  0  0  0  0  0
    5.7565   10.0813    3.3130 H   0  0  0  0  0  0  0  0  0  0  0  0
    9.3210   10.9219    5.2390 H   0  0  0  0  0  0  0  0  0  0  0  0
   10.4044    9.6719    4.5864 H   0  0  0  0  0  0  0  0  0  0  0  0
    9.1599    9.2086    5.8305 H   0  0  0  0  0  0  0  0  0  0  0  0
  1  2  1  0  0  0  0
  1 21  1  0  0  0  0
  1 22  1  0  0  0  0
  1 23  1  0  0  0  0
  2  3  1  0  0  0  0
  3  8  2  0  0  0  0
  3  4  1  0  0  0  0
  4  5  2  0  0  0  0
  4 24  1  0  0  0  0
  5  6  1  0  0  0  0
  5 19  1  0  0  0  0
  6  7  2  0  0  0  0
  6 11  1  0  0  0  0
  7  8  1  0  0  0  0
  7  9  1  0  0  0  0
  8 25  1  0  0  0  0
  9 10  1  0  0  0  0
 10 26  1  0  0  0  0
 10 27  1  0  0  0  0
 10 28  1  0  0  0  0
 11 12  1  0  0  0  0
 11 18  1  0  0  0  0
 11 29  1  0  0  0  0
 12 13  1  0  0  0  0
 12 30  1  0  0  0  0
 12 31  1  0  0  0  0
 13 14  1  0  0  0  0
 13 32  1  0  0  0  0
 13 33  1  0  0  0  0
 14 15  1  0  0  0  0
 14 34  1  0  0  0  0
 14 35  1  0  0  0  0
 15 16  2  0  0  0  0
 15 17  1  0  0  0  0
 18 36  1  0  0  0  0
 18 37  1  0  0  0  0
 18 38  1  0  0  0  0
 19 20  1  0  0  0  0
 20 39  1  0  0  0  0
 20 40  1  0  0  0  0
 20 41  1  0  0  0  0
M  END
> <Name>
ZINC20423298

> <reference>
BDB4986

> <quality>
0.824

> <status>
decoy

> <atoms in reference ligand area>
14

> <score>
-28.1378

$$$$
ZINC05594650
      BALL 1.4.0 (Jan  4 2012, 23:22:29)

 33 34  0999  0  0  0  0  0  0999 V2000
   11.8123   13.6838   -1.9857 C   0  0  0  0  0  0  0  0  0  0  0  0
   10.5180   13.8903   -2.1490 N   0  0  0  0  0  0  0  0  0  0  0  0
    9.6941   13.9508   -1.1081 C   0  0  0  0  0  0  0  0  0  0  0  0
   10.2306   13.7896    0.1808 C   0  0  0  0  0  0  0  0  0  0  0  0
   11.6133   13.5724    0.3014 C   0  0  0  0  0  0  0  0  0  0  0  0
   12.3584   13.5275   -0.7984 N   0  0  0  0  0  0  0  0  0  0  0  0
   11.8616   13.4520    1.6453 N   0  0  0  0  0  0  0  0  0  0  0  0
   10.6714   13.5925    2.2949 C   0  0  0  0  0  0  0  0  0  0  0  0
    9.7158   13.7904    1.4340 N   0  0  0  0  0  0  0  0  0  0  0  0
   13.1665   13.2164    2.2681 C   0  0  0  0  0  0  0  0  0  0  0  0
   13.0892   11.9757    3.1602 C   0  0  0  0  0  0  0  0  0  0  0  0
   13.6436   10.8555    2.4674 O   0  0  0  0  0  0  0  0  0  0  0  0
   14.2419    9.8805    3.3236 C   0  0  0  0  0  0  0  0  0  0  0  0
   14.7990    8.7330    2.4788 C   0  0  0  0  0  0  0  0  0  0  0  0
   14.6323    7.4143    3.2365 C   0  0  0  0  0  0  0  0  0  0  0  0
   13.5589    6.6667    2.6611 O   0  0  0  0  0  0  0  0  0  0  0  0
   14.0883    8.6643    1.2409 O   0  0  0  0  0  0  0  0  0  0  0  0
    8.3392   14.1670   -1.2893 N   0  0  0  0  0  0  0  0  0  0  0  0
   12.4580   13.6409   -2.8752 H   0  0  0  0  0  0  0  0  0  0  0  0
   10.5384   13.5455    3.3858 H   0  0  0  0  0  0  0  0  0  0  0  0
   13.9232   13.0581    1.4856 H   0  0  0  0  0  0  0  0  0  0  0  0
   13.4460   14.0884    2.8775 H   0  0  0  0  0  0  0  0  0  0  0  0
   13.6585   12.1526    4.0847 H   0  0  0  0  0  0  0  0  0  0  0  0
   12.0385   11.7677    3.4107 H   0  0  0  0  0  0  0  0  0  0  0  0
   13.4857    9.4888    4.0197 H   0  0  0  0  0  0  0  0  0  0  0  0
   15.0594   10.3456    3.8941 H   0  0  0  0  0  0  0  0  0  0  0  0
   15.8663    8.9090    2.2795 H   0  0  0  0  0  0  0  0  0  0  0  0
   14.4079    7.6230    4.2930 H   0  0  0  0  0  0  0  0  0  0  0  0
   15.5627    6.8315    3.1675 H   0  0  0  0  0  0  0  0  0  0  0  0
   13.9102    6.0818    1.9438 H   0  0  0  0  0  0  0  0  0  0  0  0
   14.4402    9.3493    0.6188 H   0  0  0  0  0  0  0  0  0  0  0  0
    7.8341   14.7875   -0.6407 H   0  0  0  0  0  0  0  0  0  0  0  0
    7.8385   13.7118   -2.0658 H   0  0  0  0  0  0  0  0  0  0  0  0
  1  6  1  0  0  0  0
  1  2  2  0  0  0  0
  1 19  1  0  0  0  0
  2  3  1  0  0  0  0
  3  4  2  0  0  0  0
  3 18  1  0  0  0  0
  4  9  1  0  0  0  0
  4  5  1  0  0  0  0
  5  6  2  0  0  0  0
  5  7  1  0  0  0  0
  7  8  1  0  0  0  0
  7 10  1  0  0  0  0
  8  9  2  0  0  0  0
  8 20  1  0  0  0  0
 10 11  1  0  0  0  0
 10 21  1  0  0  0  0
 10 22  1  0  0  0  0
 11 12  1  0  0  0  0
 11 23  1  0  0  0  0
 11 24  1  0  0  0  0
 12 13  1  0  0  0  0
 13 14  1  0  0  0  0
 13 25  1  0  0  0  0
 13 26  1  0  0  0  0
 14 15  1  0  0  0  0
 14 17  1  0  0  0  0
 14 27  1  0  0  0  0
 15 16  1  0  0  0  0
 15 28  1  0  0  0  0
 15 29  1  0  0  0  0
 16 30  1  0  0  0  0
 17 31  1  0  0  0  0
 18 32  1  0  0  0  0
 18 33  1  0  0  0  0
M  END
> <Name>
ZINC05594650

> <reference>
BDB5015

> <quality>
0.709

> <status>
decoy

> <atoms in reference ligand area>
13

> <score>
-28.0723

$$$$
ZINC26449470
      BALL 1.4.0 (Jan  4 2012, 23:22:29)

 47 48  0999  0  0  0  0  0  0999 V2000
   13.6169    9.6469    2.1659 C   0  0  0  0  0  0  0  0  0  0  0  0
   12.3825    9.2980    2.7958 O   0  0  0  0  0  0  0  0  0  0  0  0
   12.5312    8.4487    3.9353 C   0  0  0  0  0  0  0  0  0  0  0  0
   11.1498    8.0423    4.4522 C   0  0  0  0  0  0  0  0  0  0  0  0
   10.6900    9.0235    5.4441 N   0  3  0  0  0  0  0  0  0  0  0  0
    9.9753   10.1315    4.7963 C   0  0  0  0  0  0  0  0  0  0  0  0
   10.9486   10.9242    3.9215 C   0  0  0  0  0  0  0  0  0  0  0  0
   10.8145   10.5070    2.5614 O   0  0  0  0  0  0  0  0  0  0  0  0
   11.0751   11.4347    1.6030 C   0  0  0  0  0  0  0  0  0  0  0  0
   10.5849   11.2615    0.3168 C   0  0  0  0  0  0  0  0  0  0  0  0
   10.8508   12.2061   -0.6556 C   0  0  0  0  0  0  0  0  0  0  0  0
   11.6048   13.3235   -0.3476 C   0  0  0  0  0  0  0  0  0  0  0  0
   12.0945   13.4985    0.9335 C   0  0  0  0  0  0  0  0  0  0  0  0
   11.8318   12.5564    1.9093 C   0  0  0  0  0  0  0  0  0  0  0  0
   11.9427   14.5262   -1.5902 S   0  0  0  0  0  0  0  0  0  0  0  0
   10.9362   15.5228   -1.4752 O   0  0  0  0  0  0  0  0  0  0  0  0
   13.3281   14.8283   -1.4970 O   0  0  0  0  0  0  0  0  0  0  0  0
   11.7160   13.7917   -3.0570 N   0  0  0  0  0  0  0  0  0  0  0  0
    9.8531    8.3844    6.4682 C   0  0  0  0  0  0  0  0  0  0  0  0
    8.4631    8.1779    5.9240 C   0  0  0  0  0  0  0  0  0  0  0  0
    8.0562    7.1324    5.1816 C   0  0  0  0  0  0  0  0  0  0  0  0
    6.6887    7.3436    4.8914 C   0  0  0  0  0  0  0  0  0  0  0  0
    6.3416    8.5055    5.4738 C   0  0  0  0  0  0  0  0  0  0  0  0
    7.4189    9.0033    6.1026 O   0  0  0  0  0  0  0  0  0  0  0  0
   13.4311   10.5324    1.5403 H   0  0  0  0  0  0  0  0  0  0  0  0
   13.9024    8.8112    1.5101 H   0  0  0  0  0  0  0  0  0  0  0  0
   14.4051    9.8497    2.9059 H   0  0  0  0  0  0  0  0  0  0  0  0
   13.0743    8.9864    4.7264 H   0  0  0  0  0  0  0  0  0  0  0  0
   13.0951    7.5481    3.6505 H   0  0  0  0  0  0  0  0  0  0  0  0
   10.4392    8.0093    3.6132 H   0  0  0  0  0  0  0  0  0  0  0  0
   11.2101    7.0489    4.9209 H   0  0  0  0  0  0  0  0  0  0  0  0
   11.5206    9.4133    5.9122 H   0  0  0  0  0  0  0  0  0  0  0  0
    9.5507   10.7944    5.5646 H   0  0  0  0  0  0  0  0  0  0  0  0
    9.1650    9.7293    4.1706 H   0  0  0  0  0  0  0  0  0  0  0  0
   10.7209   11.9976    3.9994 H   0  0  0  0  0  0  0  0  0  0  0  0
   11.9792   10.7424    4.2602 H   0  0  0  0  0  0  0  0  0  0  0  0
    9.9851   10.3727    0.0713 H   0  0  0  0  0  0  0  0  0  0  0  0
   10.4624   12.0693   -1.6756 H   0  0  0  0  0  0  0  0  0  0  0  0
   12.6938   14.3885    1.1760 H   0  0  0  0  0  0  0  0  0  0  0  0
   12.2222   12.6956    2.9282 H   0  0  0  0  0  0  0  0  0  0  0  0
   11.7710   12.7661   -3.1333 H   0  0  0  0  0  0  0  0  0  0  0  0
   11.5199   14.3606   -3.8929 H   0  0  0  0  0  0  0  0  0  0  0  0
   10.2873    7.4116    6.7421 H   0  0  0  0  0  0  0  0  0  0  0  0
    9.8054    9.0285    7.3586 H   0  0  0  0  0  0  0  0  0  0  0  0
    8.6698    6.2773    4.8617 H   0  0  0  0  0  0  0  0  0  0  0  0
    6.0342    6.6843    4.3025 H   0  0  0  0  0  0  0  0  0  0  0  0
    5.3447    8.9691    5.4405 H   0  0  0  0  0  0  0  0  0  0  0  0
  1  2  1  0  0  0  0
  1 25  1  0  0  0  0
  1 26  1  0  0  0  0
  1 27  1  0  0  0  0
  2  3  1  0  0  0  0
  3  4  1  0  0  0  0
  3 28  1  0  0  0  0
  3 29  1  0  0  0  0
  4  5  1  0  0  0  0
  4 30  1  0  0  0  0
  4 31  1  0  0  0  0
  5  6  1  0  0  0  0
  5 19  1  0  0  0  0
  5 32  1  0  0  0  0
  6  7  1  0  0  0  0
  6 33  1  0  0  0  0
  6 34  1  0  0  0  0
  7  8  1  0  0  0  0
  7 35  1  0  0  0  0
  7 36  1  0  0  0  0
  8  9  1  0  0  0  0
  9 14  2  0  0  0  0
  9 10  1  0  0  0  0
 10 11  2  0  0  0  0
 10 37  1  0  0  0  0
 11 12  1  0  0  0  0
 11 38  1  0  0  0  0
 12 13  2  0  0  0  0
 12 15  1  0  0  0  0
 13 14  1  0  0  0  0
 13 39  1  0  0  0  0
 14 40  1  0  0  0  0
 15 16  2  0  0  0  0
 15 17  2  0  0  0  0
 15 18  1  0  0  0  0
 18 41  1  0  0  0  0
 18 42  1  0  0  0  0
 19 20  1  0  0  0  0
 19 43  1  0  0  0  0
 19 44  1  0  0  0  0
 20 24  1  0  0  0  0
 20 21  2  0  0  0  0
 21 22  1  0  0  0  0
 21 45  1  0  0  0  0
 22 23  2  0  0  0  0
 22 46  1  0  0  0  0
 23 24  1  0  0  0  0
 23 47  1  0  0  0  0
M  END
> <Name>
ZINC26449470

> <reference>
BDB4997

> <quality>
0.675

> <status>
decoy

> <atoms in reference ligand area>
16

> <score>
-27.993

$$$$
ZINC24983928
      BALL 1.4.0 (Jan  4 2012, 23:22:29)

 39 40  0999  0  0  0  0  0  0999 V2000
   11.3966   15.1100   -2.3279 C   0  0  0  0  0  0  0  0  0  0  0  0
   10.0641   14.9122   -2.9038 N   0  0  0  0  0  0  0  0  0  0  0  0
    9.5766   13.3974   -3.3620 S   0  0  0  0  0  0  0  0  0  0  0  0
   10.7514   12.6851   -3.7250 O   0  0  0  0  0  0  0  0  0  0  0  0
    8.4865   13.5748   -4.2562 O   0  0  0  0  0  0  0  0  0  0  0  0
    8.9285   12.6030   -1.9291 C   0  0  0  0  0  0  0  0  0  0  0  0
    7.6181   12.4781   -1.6233 C   0  0  0  0  0  0  0  0  0  0  0  0
    7.5423   11.7803   -0.4078 C   0  0  0  0  0  0  0  0  0  0  0  0
    8.8265   11.5183   -0.0248 C   0  0  0  0  0  0  0  0  0  0  0  0
    9.6534   12.0235   -0.9635 O   0  0  0  0  0  0  0  0  0  0  0  0
    9.2351   10.8068    1.1909 C   0  0  0  0  0  0  0  0  0  0  0  0
   10.2981   11.0699    1.7216 O   0  0  0  0  0  0  0  0  0  0  0  0
    8.4332    9.8616    1.7201 N   0  0  0  0  0  0  0  0  0  0  0  0
    8.8413    9.1508    2.9344 C   0  0  0  0  0  0  0  0  0  0  0  0
    7.7605    8.1394    3.3210 C   0  0  0  0  0  0  0  0  0  0  0  0
    6.9325    8.6955    4.3941 N   0  0  0  0  0  0  0  0  0  0  0  0
    5.6005    8.3287    4.5025 C   0  0  0  0  0  0  0  0  0  0  0  0
    5.0025    7.6014    3.4751 C   0  0  0  0  0  0  0  0  0  0  0  0
    3.6864    7.2410    3.5852 C   0  0  0  0  0  0  0  0  0  0  0  0
    2.9826    7.6208    4.7386 C   0  0  0  0  0  0  0  0  0  0  0  0
    3.6440    8.3535    5.7255 C   0  0  0  0  0  0  0  0  0  0  0  0
    4.9132    8.6750    5.5818 N   0  0  0  0  0  0  0  0  0  0  0  0
    1.6041    7.2669    4.8978 C   0  0  0  0  0  0  0  0  0  0  0  0
    0.5107    6.9862    5.0241 N   0  0  0  0  0  0  0  0  0  0  0  0
   11.2549   15.8940   -1.5695 H   0  0  0  0  0  0  0  0  0  0  0  0
   11.9827   15.5643   -3.1404 H   0  0  0  0  0  0  0  0  0  0  0  0
   11.8660   14.2026   -1.9201 H   0  0  0  0  0  0  0  0  0  0  0  0
    9.4305   15.7153   -3.0236 H   0  0  0  0  0  0  0  0  0  0  0  0
    6.7703   12.8529   -2.2155 H   0  0  0  0  0  0  0  0  0  0  0  0
    6.6258   11.4988    0.1317 H   0  0  0  0  0  0  0  0  0  0  0  0
    7.5335    9.6390    1.2709 H   0  0  0  0  0  0  0  0  0  0  0  0
    9.7881    8.6222    2.7492 H   0  0  0  0  0  0  0  0  0  0  0  0
    8.9781    9.8715    3.7541 H   0  0  0  0  0  0  0  0  0  0  0  0
    7.1296    7.9243    2.4459 H   0  0  0  0  0  0  0  0  0  0  0  0
    8.2343    7.2097    3.6689 H   0  0  0  0  0  0  0  0  0  0  0  0
    7.3405    9.3591    5.0679 H   0  0  0  0  0  0  0  0  0  0  0  0
    5.5826    7.3194    2.5840 H   0  0  0  0  0  0  0  0  0  0  0  0
    3.1919    6.6669    2.7879 H   0  0  0  0  0  0  0  0  0  0  0  0
    3.1012    8.6647    6.6301 H   0  0  0  0  0  0  0  0  0  0  0  0
  1  2  1  0  0  0  0
  1 25  1  0  0  0  0
  1 26  1  0  0  0  0
  1 27  1  0  0  0  0
  2  3  1  0  0  0  0
  2 28  1  0  0  0  0
  3  4  2  0  0  0  0
  3  5  2  0  0  0  0
  3  6  1  0  0  0  0
  6 10  1  0  0  0  0
  6  7  2  0  0  0  0
  7  8  1  0  0  0  0
  7 29  1  0  0  0  0
  8  9  2  0  0  0  0
  8 30  1  0  0  0  0
  9 10  1  0  0  0  0
  9 11  1  0  0  0  0
 11 12  2  0  0  0  0
 11 13  1  0  0  0  0
 13 14  1  0  0  0  0
 13 31  1  0  0  0  0
 14 15  1  0  0  0  0
 14 32  1  0  0  0  0
 14 33  1  0  0  0  0
 15 16  1  0  0  0  0
 15 34  1  0  0  0  0
 15 35  1  0  0  0  0
 16 17  1  0  0  0  0
 16 36  1  0  0  0  0
 17 22  2  0  0  0  0
 17 18  1  0  0  0  0
 18 19  2  0  0  0  0
 18 37  1  0  0  0  0
 19 20  1  0  0  0  0
 19 38  1  0  0  0  0
 20 21  2  0  0  0  0
 20 23  1  0  0  0  0
 21 22  1  0  0  0  0
 21 39  1  0  0  0  0
 23 24  3  0  0  0  0
M  END
> <Name>
ZINC24983928

> <reference>
BDB4942

> <quality>
0.626

> <status>
decoy

> <atoms in reference ligand area>
13

> <score>
-27.9568

$$$$
ZINC04998060
      BALL 1.4.0 (Jan  4 2012, 23:22:29)

 43 44  0999  0  0  0  0  0  0999 V2000
    7.0208   10.9772    0.9230 C   0  0  0  0  0  0  0  0  0  0  0  0
    7.3136   11.1273    2.3136 O   0  0  0  0  0  0  0  0  0  0  0  0
    8.6097   11.3598    2.6496 C   0  0  0  0  0  0  0  0  0  0  0  0
    9.0020   11.3095    3.9801 C   0  0  0  0  0  0  0  0  0  0  0  0
   10.3192   11.5467    4.3224 C   0  0  0  0  0  0  0  0  0  0  0  0
   11.2495   11.8341    3.3417 C   0  0  0  0  0  0  0  0  0  0  0  0
   10.8613   11.8906    2.0108 C   0  0  0  0  0  0  0  0  0  0  0  0
    9.5409   11.6479    1.6641 C   0  0  0  0  0  0  0  0  0  0  0  0
   11.7754   12.1787    1.0473 O   0  0  0  0  0  0  0  0  0  0  0  0
   12.5980   13.3283    1.2562 C   0  0  0  0  0  0  0  0  0  0  0  0
   12.6856   12.0923    3.7186 C   0  0  0  0  0  0  0  0  0  0  0  0
   14.5830   10.9990    4.7517 C   0  0  0  0  0  0  0  0  0  0  0  0
   15.1282    9.6341    5.1764 C   0  0  0  0  0  0  0  0  0  0  0  0
   16.4557    9.8025    5.7728 N   0  0  0  0  0  0  0  0  0  0  0  0
   16.5730   10.2152    7.0505 C   0  0  0  0  0  0  0  0  0  0  0  0
   15.5777   10.4475    7.7077 O   0  0  0  0  0  0  0  0  0  0  0  0
   17.9152   10.3855    7.6535 C   0  0  0  0  0  0  0  0  0  0  0  0
   18.2705   10.6279    9.0703 C   0  0  0  0  0  0  0  0  0  0  0  0
   19.5813   10.6953    9.0282 N   0  0  0  0  0  0  0  0  0  0  0  0
   19.9563   10.5378    7.8902 O   0  0  0  0  0  0  0  0  0  0  0  0
   19.0917   10.3538    7.0660 N   0  0  0  0  0  0  0  0  0  0  0  0
   17.4294   10.7524   10.1674 N   0  0  0  0  0  0  0  0  0  0  0  0
   13.3662   10.8027    3.9414 N   0  3  0  0  0  0  0  0  0  0  0  0
    6.2675   11.7414    0.6813 H   0  0  0  0  0  0  0  0  0  0  0  0
    6.5479    9.9903    0.8113 H   0  0  0  0  0  0  0  0  0  0  0  0
    7.9135   11.0729    0.2874 H   0  0  0  0  0  0  0  0  0  0  0  0
    8.2634   11.0807    4.7625 H   0  0  0  0  0  0  0  0  0  0  0  0
   10.6281   11.5067    5.3774 H   0  0  0  0  0  0  0  0  0  0  0  0
    9.2329   11.6838    0.6087 H   0  0  0  0  0  0  0  0  0  0  0  0
   13.4071   13.2687    0.5135 H   0  0  0  0  0  0  0  0  0  0  0  0
   13.0463   13.2105    2.2538 H   0  0  0  0  0  0  0  0  0  0  0  0
   12.0394   14.2722    1.1720 H   0  0  0  0  0  0  0  0  0  0  0  0
   13.1873   12.6362    2.9047 H   0  0  0  0  0  0  0  0  0  0  0  0
   12.7228   12.6907    4.6408 H   0  0  0  0  0  0  0  0  0  0  0  0
   14.3372   11.5910    5.6456 H   0  0  0  0  0  0  0  0  0  0  0  0
   15.3398   11.5286    4.1545 H   0  0  0  0  0  0  0  0  0  0  0  0
   15.2029    8.9780    4.2966 H   0  0  0  0  0  0  0  0  0  0  0  0
   14.4499    9.1817    5.9147 H   0  0  0  0  0  0  0  0  0  0  0  0
   17.2994    9.6056    5.2158 H   0  0  0  0  0  0  0  0  0  0  0  0
   17.8031   11.3679   10.9039 H   0  0  0  0  0  0  0  0  0  0  0  0
   16.5157   10.2864   10.2623 H   0  0  0  0  0  0  0  0  0  0  0  0
   12.7287   10.1608    4.4339 H   0  0  0  0  0  0  0  0  0  0  0  0
   13.6244   10.3905    3.0335 H   0  0  0  0  0  0  0  0  0  0  0  0
  1  2  1  0  0  0  0
  1 24  1  0  0  0  0
  1 25  1  0  0  0  0
  1 26  1  0  0  0  0
  2  3  1  0  0  0  0
  3  8  2  0  0  0  0
  3  4  1  0  0  0  0
  4  5  2  0  0  0  0
  4 27  1  0  0  0  0
  5  6  1  0  0  0  0
  5 28  1  0  0  0  0
  6  7  2  0  0  0  0
  6 11  1  0  0  0  0
  7  8  1  0  0  0  0
  7  9  1  0  0  0  0
  8 29  1  0  0  0  0
  9 10  1  0  0  0  0
 10 30  1  0  0  0  0
 10 31  1  0  0  0  0
 10 32  1  0  0  0  0
 11 23  1  0  0  0  0
 11 33  1  0  0  0  0
 11 34  1  0  0  0  0
 12 13  1  0  0  0  0
 12 23  1  0  0  0  0
 12 35  1  0  0  0  0
 12 36  1  0  0  0  0
 13 14  1  0  0  0  0
 13 37  1  0  0  0  0
 13 38  1  0  0  0  0
 14 15  1  0  0  0  0
 14 39  1  0  0  0  0
 15 16  2  0  0  0  0
 15 17  1  0  0  0  0
 17 21  2  0  0  0  0
 17 18  1  0  0  0  0
 18 19  2  0  0  0  0
 18 22  1  0  0  0  0
 19 20  1  0  0  0  0
 20 21  1  0  0  0  0
 22 40  1  0  0  0  0
 22 41  1  0  0  0  0
 23 42  1  0  0  0  0
 23 43  1  0  0  0  0
M  END
> <Name>
ZINC04998060

> <reference>
BDB5023

> <quality>
0.730

> <status>
decoy

> <atoms in reference ligand area>
13

> <score>
-27.8728

$$$$
ZINC15939612
      BALL 1.4.0 (Jan  4 2012, 23:22:29)

 54 56  0999  0  0  0  0  0  0999 V2000
    7.9230   13.0398    2.9004 C   0  0  0  0  0  0  0  0  0  0  0  0
    7.4891   12.4496    1.5570 C   0  0  0  0  0  0  0  0  0  0  0  0
    7.4139   10.9907    1.6660 N   0  0  0  0  0  0  0  0  0  0  0  0
    6.2276   10.3932    1.4309 C   0  0  0  0  0  0  0  0  0  0  0  0
    5.2464   11.0510    1.1368 O   0  0  0  0  0  0  0  0  0  0  0  0
    6.1472    8.9299    1.5385 C   0  0  0  0  0  0  0  0  0  0  0  0
    4.9721    8.2190    1.3155 C   0  0  0  0  0  0  0  0  0  0  0  0
    4.9801    6.8457    1.4363 C   0  0  0  0  0  0  0  0  0  0  0  0
    6.1447    6.1698    1.7763 C   0  0  0  0  0  0  0  0  0  0  0  0
    7.3192    6.8562    2.0012 C   0  0  0  0  0  0  0  0  0  0  0  0
    7.3345    8.2413    1.8792 C   0  0  0  0  0  0  0  0  0  0  0  0
    8.5436    9.0486    2.1080 C   0  0  0  0  0  0  0  0  0  0  0  0
    8.4771   10.3514    1.9788 N   0  0  0  0  0  0  0  0  0  0  0  0
    9.8179    8.3983    2.4728 C   0  0  0  0  0  0  0  0  0  0  0  0
   10.1814    8.3811    3.6329 O   0  0  0  0  0  0  0  0  0  0  0  0
   10.5782    7.8237    1.5198 N   0  0  0  0  0  0  0  0  0  0  0  0
   11.9381    7.5850    1.7581 N   0  0  0  0  0  0  0  0  0  0  0  0
   12.7420    7.2004    0.7469 C   0  0  0  0  0  0  0  0  0  0  0  0
   13.6965    7.8819    0.4383 O   0  0  0  0  0  0  0  0  0  0  0  0
   12.4546    5.9237   -0.0003 C   0  0  0  0  0  0  0  0  0  0  0  0
   13.8541    5.5299   -1.0852 S   0  0  0  0  0  0  0  0  0  0  0  0
   13.1522    4.3923   -2.3115 C   0  0  0  0  0  0  0  0  0  0  0  0
   12.1037    5.1281   -3.1484 C   0  0  0  0  0  0  0  0  0  0  0  0
   14.2489    3.8859   -3.2125 C   0  0  0  0  0  0  0  0  0  0  0  0
   13.9891    3.1084   -4.1062 O   0  0  0  0  0  0  0  0  0  0  0  0
   15.5187    4.2971   -3.0251 N   0  0  0  0  0  0  0  0  0  0  0  0
   16.5340    3.8285   -3.8592 C   0  0  0  0  0  0  0  0  0  0  0  0
   16.4386    2.7796   -4.8120 C   0  0  0  0  0  0  0  0  0  0  0  0
   17.6771    2.7152   -5.3514 C   0  0  0  0  0  0  0  0  0  0  0  0
   18.4095    3.6596   -4.7435 O   0  0  0  0  0  0  0  0  0  0  0  0
   17.7625    4.2704   -3.9246 N   0  0  0  0  0  0  0  0  0  0  0  0
   18.1430    1.7676   -6.4266 C   0  0  0  0  0  0  0  0  0  0  0  0
    8.2467   12.2297    3.5704 H   0  0  0  0  0  0  0  0  0  0  0  0
    7.0779   13.5763    3.3564 H   0  0  0  0  0  0  0  0  0  0  0  0
    8.7575   13.7388    2.7422 H   0  0  0  0  0  0  0  0  0  0  0  0
    6.5008   12.8478    1.2835 H   0  0  0  0  0  0  0  0  0  0  0  0
    8.2211   12.7215    0.7823 H   0  0  0  0  0  0  0  0  0  0  0  0
    4.0459    8.7476    1.0454 H   0  0  0  0  0  0  0  0  0  0  0  0
    4.0537    6.2790    1.2615 H   0  0  0  0  0  0  0  0  0  0  0  0
    6.1299    5.0737    1.8672 H   0  0  0  0  0  0  0  0  0  0  0  0
    8.2358    6.3130    2.2747 H   0  0  0  0  0  0  0  0  0  0  0  0
   10.1596    7.5601    0.6164 H   0  0  0  0  0  0  0  0  0  0  0  0
   12.3234    7.7033    2.7059 H   0  0  0  0  0  0  0  0  0  0  0  0
   12.3061    5.1037    0.7178 H   0  0  0  0  0  0  0  0  0  0  0  0
   11.5455    6.0491   -0.6068 H   0  0  0  0  0  0  0  0  0  0  0  0
   12.6799    3.5432   -1.7958 H   0  0  0  0  0  0  0  0  0  0  0  0
   12.5266    6.0733   -3.5197 H   0  0  0  0  0  0  0  0  0  0  0  0
   11.2209    5.3408   -2.5277 H   0  0  0  0  0  0  0  0  0  0  0  0
   11.8079    4.5000   -4.0017 H   0  0  0  0  0  0  0  0  0  0  0  0
   15.7396    4.9575   -2.2661 H   0  0  0  0  0  0  0  0  0  0  0  0
   15.5609    2.1626   -5.0549 H   0  0  0  0  0  0  0  0  0  0  0  0
   19.2159    2.0000   -6.4959 H   0  0  0  0  0  0  0  0  0  0  0  0
   17.6860    2.1954   -7.3311 H   0  0  0  0  0  0  0  0  0  0  0  0
   17.9227    0.7010   -6.2724 H   0  0  0  0  0  0  0  0  0  0  0  0
  1  2  1  0  0  0  0
  1 33  1  0  0  0  0
  1 34  1  0  0  0  0
  1 35  1  0  0  0  0
  2  3  1  0  0  0  0
  2 36  1  0  0  0  0
  2 37  1  0  0  0  0
  3 13  1  0  0  0  0
  3  4  1  0  0  0  0
  4  5  2  0  0  0  0
  4  6  1  0  0  0  0
  6 11  2  0  0  0  0
  6  7  1  0  0  0  0
  7  8  2  0  0  0  0
  7 38  1  0  0  0  0
  8  9  1  0  0  0  0
  8 39  1  0  0  0  0
  9 10  2  0  0  0  0
  9 40  1  0  0  0  0
 10 11  1  0  0  0  0
 10 41  1  0  0  0  0
 11 12  1  0  0  0  0
 12 13  2  0  0  0  0
 12 14  1  0  0  0  0
 14 15  2  0  0  0  0
 14 16  1  0  0  0  0
 16 17  1  0  0  0  0
 16 42  1  0  0  0  0
 17 18  1  0  0  0  0
 17 43  1  0  0  0  0
 18 19  2  0  0  0  0
 18 20  1  0  0  0  0
 20 21  1  0  0  0  0
 20 44  1  0  0  0  0
 20 45  1  0  0  0  0
 21 22  1  0  0  0  0
 22 23  1  0  0  0  0
 22 24  1  0  0  0  0
 22 46  1  0  0  0  0
 23 47  1  0  0  0  0
 23 48  1  0  0  0  0
 23 49  1  0  0  0  0
 24 25  2  0  0  0  0
 24 26  1  0  0  0  0
 26 27  1  0  0  0  0
 26 50  1  0  0  0  0
 27 31  2  0  0  0  0
 27 28  1  0  0  0  0
 28 29  2  0  0  0  0
 28 51  1  0  0  0  0
 29 30  1  0  0  0  0
 29 32  1  0  0  0  0
 30 31  1  0  0  0  0
 32 52  1  0  0  0  0
 32 53  1  0  0  0  0
 32 54  1  0  0  0  0
M  END
> <Name>
ZINC15939612

> <reference>
BDB4968

> <quality>
0.764

> <status>
decoy

> <atoms in reference ligand area>
11

> <score>
-27.8593

$$$$
ZINC22063500
      BALL 1.4.0 (Jan  4 2012, 23:22:29)

 48 49  0999  0  0  0  0  0  0999 V2000
    4.0141    6.1062   -3.5232 C   0  0  0  0  0  0  0  0  0  0  0  0
    4.3223    6.6729   -2.2078 N   0  0  0  0  0  0  0  0  0  0  0  0
    5.7114    6.7428   -1.7476 C   0  0  0  0  0  0  0  0  0  0  0  0
    5.8523    7.8676   -0.7202 C   0  0  0  0  0  0  0  0  0  0  0  0
    7.3030    7.9406   -0.2395 C   0  0  0  0  0  0  0  0  0  0  0  0
    7.3949    8.8730    0.9408 C   0  0  0  0  0  0  0  0  0  0  0  0
    6.3984    9.4248    1.3566 O   0  0  0  0  0  0  0  0  0  0  0  0
    8.6940    9.1140    1.5888 C   0  0  0  0  0  0  0  0  0  0  0  0
    9.8537    8.4777    1.1215 C   0  0  0  0  0  0  0  0  0  0  0  0
   11.0498    8.7427    1.7630 C   0  0  0  0  0  0  0  0  0  0  0  0
   11.0629    9.6097    2.8417 C   0  0  0  0  0  0  0  0  0  0  0  0
    9.9560   10.1910    3.2636 N   0  3  0  0  0  0  0  0  0  0  0  0
    8.7933    9.9765    2.6845 C   0  0  0  0  0  0  0  0  0  0  0  0
   10.0227   11.1007    4.4099 C   0  0  0  0  0  0  0  0  0  0  0  0
    9.0263   12.2460    4.2114 C   0  0  0  0  0  0  0  0  0  0  0  0
    9.4177   13.0421    2.9626 C   0  0  0  0  0  0  0  0  0  0  0  0
   10.8564   13.5440    3.1206 C   0  0  0  0  0  0  0  0  0  0  0  0
   11.7820   12.3485    3.3612 C   0  0  0  0  0  0  0  0  0  0  0  0
   11.3440   11.6341    4.5188 O   0  0  0  0  0  0  0  0  0  0  0  0
   13.1906   12.8390    3.5766 C   0  0  0  0  0  0  0  0  0  0  0  0
   13.7171   13.5460    2.7502 O   0  0  0  0  0  0  0  0  0  0  0  0
   13.8603   12.4906    4.6865 O   0  5  0  0  0  0  0  0  0  0  0  0
   11.2575   14.2265    1.9310 O   0  0  0  0  0  0  0  0  0  0  0  0
    8.5366   14.1568    2.8108 O   0  0  0  0  0  0  0  0  0  0  0  0
    9.0525   13.1051    5.3530 O   0  0  0  0  0  0  0  0  0  0  0  0
    3.3706    7.1101   -1.4548 N   0  0  0  0  0  0  0  0  0  0  0  0
    2.2430    7.2221   -1.9015 O   0  0  0  0  0  0  0  0  0  0  0  0
    4.1073    5.0183   -3.3904 H   0  0  0  0  0  0  0  0  0  0  0  0
    4.8467    6.4229   -4.1686 H   0  0  0  0  0  0  0  0  0  0  0  0
    3.0331    6.4002   -3.9248 H   0  0  0  0  0  0  0  0  0  0  0  0
    5.9927    5.7859   -1.2839 H   0  0  0  0  0  0  0  0  0  0  0  0
    6.3726    6.9440   -2.6034 H   0  0  0  0  0  0  0  0  0  0  0  0
    5.5715    8.8250   -1.1835 H   0  0  0  0  0  0  0  0  0  0  0  0
    5.1925    7.6676    0.1370 H   0  0  0  0  0  0  0  0  0  0  0  0
    7.9415    8.3158   -1.0528 H   0  0  0  0  0  0  0  0  0  0  0  0
    7.6414    6.9374    0.0591 H   0  0  0  0  0  0  0  0  0  0  0  0
    9.8127    7.7859    0.2673 H   0  0  0  0  0  0  0  0  0  0  0  0
   11.9813    8.2693    1.4194 H   0  0  0  0  0  0  0  0  0  0  0  0
   12.0126    9.8179    3.3562 H   0  0  0  0  0  0  0  0  0  0  0  0
    7.8926   10.4800    3.0658 H   0  0  0  0  0  0  0  0  0  0  0  0
    9.7718   10.5507    5.3289 H   0  0  0  0  0  0  0  0  0  0  0  0
    8.0126   11.8374    4.0871 H   0  0  0  0  0  0  0  0  0  0  0  0
    9.3443   12.3984    2.0737 H   0  0  0  0  0  0  0  0  0  0  0  0
   10.9155   14.2355    3.9739 H   0  0  0  0  0  0  0  0  0  0  0  0
   11.7561   11.6819    2.4866 H   0  0  0  0  0  0  0  0  0  0  0  0
   11.7864   15.0278    2.1720 H   0  0  0  0  0  0  0  0  0  0  0  0
    8.3521   14.5554    3.6980 H   0  0  0  0  0  0  0  0  0  0  0  0
    8.9642   12.5629    6.1767 H   0  0  0  0  0  0  0  0  0  0  0  0
  1  2  1  0  0  0  0
  1 28  1  0  0  0  0
  1 29  1  0  0  0  0
  1 30  1  0  0  0  0
  2  3  1  0  0  0  0
  2 26  1  0  0  0  0
  3  4  1  0  0  0  0
  3 31  1  0  0  0  0
  3 32  1  0  0  0  0
  4  5  1  0  0  0  0
  4 33  1  0  0  0  0
  4 34  1  0  0  0  0
  5  6  1  0  0  0  0
  5 35  1  0  0  0  0
  5 36  1  0  0  0  0
  6  7  2  0  0  0  0
  6  8  1  0  0  0  0
  8 13  2  0  0  0  0
  8  9  1  0  0  0  0
  9 10  2  0  0  0  0
  9 37  1  0  0  0  0
 10 11  1  0  0  0  0
 10 38  1  0  0  0  0
 11 12  2  0  0  0  0
 11 39  1  0  0  0  0
 12 13  1  0  0  0  0
 12 14  1  0  0  0  0
 13 40  1  0  0  0  0
 14 19  1  0  0  0  0
 14 15  1  0  0  0  0
 14 41  1  0  0  0  0
 15 16  1  0  0  0  0
 15 25  1  0  0  0  0
 15 42  1  0  0  0  0
 16 17  1  0  0  0  0
 16 24  1  0  0  0  0
 16 43  1  0  0  0  0
 17 18  1  0  0  0  0
 17 23  1  0  0  0  0
 17 44  1  0  0  0  0
 18 19  1  0  0  0  0
 18 20  1  0  0  0  0
 18 45  1  0  0  0  0
 20 21  2  0  0  0  0
 20 22  1  0  0  0  0
 23 46  1  0  0  0  0
 24 47  1  0  0  0  0
 25 48  1  0  0  0  0
 26 27  2  0  0  0  0
M  END
> <Name>
ZINC22063500

> <reference>
BDB4945

> <quality>
0.716

> <status>
decoy

> <atoms in reference ligand area>
14

> <score>
-27.8386

$$$$
ZINC16952887
      BALL 1.4.0 (Jan  4 2012, 23:22:29)

 36 38  0999  0  0  0  0  0  0999 V2000
   12.1333   15.2280   -1.2489 C   0  0  0  0  0  0  0  0  0  0  0  0
   10.6367   14.9746   -1.0559 C   0  0  0  0  0  0  0  0  0  0  0  0
   10.0790   15.9451   -0.1230 O   0  0  0  0  0  0  0  0  0  0  0  0
   10.1758   15.2629    1.1003 C   0  0  0  0  0  0  0  0  0  0  0  0
    9.3242   15.4693    2.3227 C   0  0  0  0  0  0  0  0  0  0  0  0
    9.0941   14.1406    2.8651 O   0  0  0  0  0  0  0  0  0  0  0  0
    9.6367   13.1502    1.9425 C   0  0  0  0  0  0  0  0  0  0  0  0
    9.6019   13.8702    0.6162 C   0  0  0  0  0  0  0  0  0  0  0  0
   10.4299   13.6489   -0.4875 O   0  0  0  0  0  0  0  0  0  0  0  0
    8.7645   11.9217    1.9055 C   0  0  0  0  0  0  0  0  0  0  0  0
    8.7009   10.9169    2.8680 C   0  0  0  0  0  0  0  0  0  0  0  0
    7.7322    9.9991    2.3707 C   0  0  0  0  0  0  0  0  0  0  0  0
    7.3100   10.4752    1.2188 N   0  0  0  0  0  0  0  0  0  0  0  0
    7.8970   11.5800    0.9347 N   0  5  0  0  0  0  0  0  0  0  0  0
    7.2863    8.7517    3.0232 C   0  0  0  0  0  0  0  0  0  0  0  0
    7.7372    7.6820    2.6621 O   0  0  0  0  0  0  0  0  0  0  0  0
    6.3796    8.7990    4.0192 N   0  0  0  0  0  0  0  0  0  0  0  0
    9.4645   10.8264    4.1290 C   0  0  0  0  0  0  0  0  0  0  0  0
    9.8194   11.8434    4.7013 O   0  0  0  0  0  0  0  0  0  0  0  0
    9.7699    9.6360    4.6375 N   0  0  0  0  0  0  0  0  0  0  0  0
    9.2746    9.2852    5.5836 N   0  3  0  0  0  0  0  0  0  0  0  0
    8.7792    8.9345    6.5296 N   0  5  0  0  0  0  0  0  0  0  0  0
    9.9144   15.0803   -2.4005 C   0  0  0  0  0  0  0  0  0  0  0  0
   12.2820   15.9016   -2.1057 H   0  0  0  0  0  0  0  0  0  0  0  0
   12.6433   14.2729   -1.4430 H   0  0  0  0  0  0  0  0  0  0  0  0
   12.5502   15.6896   -0.3416 H   0  0  0  0  0  0  0  0  0  0  0  0
   11.1801   15.5216    1.4671 H   0  0  0  0  0  0  0  0  0  0  0  0
    9.8632   16.0869    3.0561 H   0  0  0  0  0  0  0  0  0  0  0  0
    8.3666   15.9314    2.0409 H   0  0  0  0  0  0  0  0  0  0  0  0
   10.6409   12.7984    2.2215 H   0  0  0  0  0  0  0  0  0  0  0  0
    8.6083   13.6215    0.2153 H   0  0  0  0  0  0  0  0  0  0  0  0
    6.0686    7.9290    4.4744 H   0  0  0  0  0  0  0  0  0  0  0  0
    5.9976    9.7053    4.3252 H   0  0  0  0  0  0  0  0  0  0  0  0
   10.3348   15.9187   -2.9753 H   0  0  0  0  0  0  0  0  0  0  0  0
    8.8431   15.2589   -2.2260 H   0  0  0  0  0  0  0  0  0  0  0  0
   10.0444   14.1454   -2.9653 H   0  0  0  0  0  0  0  0  0  0  0  0
  1  2  1  0  0  0  0
  1 24  1  0  0  0  0
  1 25  1  0  0  0  0
  1 26  1  0  0  0  0
  2  9  1  0  0  0  0
  2  3  1  0  0  0  0
  2 23  1  0  0  0  0
  3  4  1  0  0  0  0
  4  8  1  0  0  0  0
  4  5  1  0  0  0  0
  4 27  1  0  0  0  0
  5  6  1  0  0  0  0
  5 28  1  0  0  0  0
  5 29  1  0  0  0  0
  6  7  1  0  0  0  0
  7  8  1  0  0  0  0
  7 10  1  0  0  0  0
  7 30  1  0  0  0  0
  8  9  1  0  0  0  0
  8 31  1  0  0  0  0
 10 14  1  0  0  0  0
 10 11  2  0  0  0  0
 11 12  1  0  0  0  0
 11 18  1  0  0  0  0
 12 13  2  0  0  0  0
 12 15  1  0  0  0  0
 13 14  1  0  0  0  0
 15 16  2  0  0  0  0
 15 17  1  0  0  0  0
 17 32  1  0  0  0  0
 17 33  1  0  0  0  0
 18 19  2  0  0  0  0
 18 20  1  0  0  0  0
 20 21  2  0  0  0  0
 21 22  2  0  0  0  0
 23 34  1  0  0  0  0
 23 35  1  0  0  0  0
 23 36  1  0  0  0  0
M  END
> <Name>
ZINC16952887

> <reference>
BDB4977

> <quality>
0.733

> <status>
decoy

> <atoms in reference ligand area>
12

> <score>
-27.8038

$$$$
ZINC05974537
      BALL 1.4.0 (Jan  4 2012, 23:22:29)

 35 36  0999  0  0  0  0  0  0999 V2000
   13.1084   13.3355    2.7720 C   0  0  0  0  0  0  0  0  0  0  0  0
   12.2803   13.3574    3.8786 C   0  0  0  0  0  0  0  0  0  0  0  0
   10.9946   12.8572    3.7898 C   0  0  0  0  0  0  0  0  0  0  0  0
   10.5373   12.3348    2.5945 C   0  0  0  0  0  0  0  0  0  0  0  0
   11.3672   12.3077    1.4894 C   0  0  0  0  0  0  0  0  0  0  0  0
   12.6510   12.8131    1.5767 C   0  0  0  0  0  0  0  0  0  0  0  0
    9.1358   11.7891    2.4978 C   0  0  0  0  0  0  0  0  0  0  0  0
    7.7131   10.3194    1.2023 C   0  0  0  0  0  0  0  0  0  0  0  0
    6.9215   11.5591    0.7812 C   0  0  0  0  0  0  0  0  0  0  0  0
    7.7307   12.3606   -0.2057 C   0  0  0  0  0  0  0  0  0  0  0  0
    8.2259   13.6087   -0.0156 C   0  0  0  0  0  0  0  0  0  0  0  0
    8.8814   13.9715   -1.1150 N   0  0  0  0  0  0  0  0  0  0  0  0
    8.8183   12.9951   -1.9960 C   0  0  0  0  0  0  0  0  0  0  0  0
    8.1044   11.9671   -1.4458 N   0  0  0  0  0  0  0  0  0  0  0  0
    9.4189   13.0058   -3.3405 C   0  0  0  0  0  0  0  0  0  0  0  0
   10.2471   12.1695   -3.6428 O   0  0  0  0  0  0  0  0  0  0  0  0
    7.0901    9.7213    2.4373 C   0  0  0  0  0  0  0  0  0  0  0  0
    7.7932    9.2886    3.3196 O   0  0  0  0  0  0  0  0  0  0  0  0
    9.1056   10.7097    1.4929 N   0  3  0  0  0  0  0  0  0  0  0  0
    9.0498   13.9434   -4.2361 O   0  5  0  0  0  0  0  0  0  0  0  0
    5.7543    9.6690    2.5572 O   0  5  0  0  0  0  0  0  0  0  0  0
   14.1313   13.7338    2.8426 H   0  0  0  0  0  0  0  0  0  0  0  0
   12.6443   13.7728    4.8299 H   0  0  0  0  0  0  0  0  0  0  0  0
   10.3355   12.8749    4.6702 H   0  0  0  0  0  0  0  0  0  0  0  0
   11.0062   11.8840    0.5406 H   0  0  0  0  0  0  0  0  0  0  0  0
   13.3086   12.7995    0.6950 H   0  0  0  0  0  0  0  0  0  0  0  0
    8.8288   11.3891    3.4754 H   0  0  0  0  0  0  0  0  0  0  0  0
    8.4478   12.5920    2.1946 H   0  0  0  0  0  0  0  0  0  0  0  0
    7.6986    9.5771    0.3907 H   0  0  0  0  0  0  0  0  0  0  0  0
    5.9757   11.2489    0.3129 H   0  0  0  0  0  0  0  0  0  0  0  0
    6.7073   12.1768    1.6658 H   0  0  0  0  0  0  0  0  0  0  0  0
    8.1061   14.2173    0.8928 H   0  0  0  0  0  0  0  0  0  0  0  0
    7.8910   11.0632   -1.8911 H   0  0  0  0  0  0  0  0  0  0  0  0
    9.5556   11.0373    0.6262 H   0  0  0  0  0  0  0  0  0  0  0  0
    9.6203    9.8931    1.8520 H   0  0  0  0  0  0  0  0  0  0  0  0
  1  6  2  0  0  0  0
  1  2  1  0  0  0  0
  1 22  1  0  0  0  0
  2  3  2  0  0  0  0
  2 23  1  0  0  0  0
  3  4  1  0  0  0  0
  3 24  1  0  0  0  0
  4  5  2  0  0  0  0
  4  7  1  0  0  0  0
  5  6  1  0  0  0  0
  5 25  1  0  0  0  0
  6 26  1  0  0  0  0
  7 19  1  0  0  0  0
  7 27  1  0  0  0  0
  7 28  1  0  0  0  0
  8  9  1  0  0  0  0
  8 17  1  0  0  0  0
  8 19  1  0  0  0  0
  8 29  1  0  0  0  0
  9 10  1  0  0  0  0
  9 30  1  0  0  0  0
  9 31  1  0  0  0  0
 10 14  1  0  0  0  0
 10 11  2  0  0  0  0
 11 12  1  0  0  0  0
 11 32  1  0  0  0  0
 12 13  2  0  0  0  0
 13 14  1  0  0  0  0
 13 15  1  0  0  0  0
 14 33  1  0  0  0  0
 15 16  2  0  0  0  0
 15 20  1  0  0  0  0
 17 18  2  0  0  0  0
 17 21  1  0  0  0  0
 19 34  1  0  0  0  0
 19 35  1  0  0  0  0
M  END
> <Name>
ZINC05974537

> <reference>
BDB5009

> <quality>
0.774

> <status>
decoy

> <atoms in reference ligand area>
23

> <score>
-27.7791

$$$$
ZINC19752740
      BALL 1.4.0 (Jan  4 2012, 23:22:29)

 44 46  0999  0  0  0  0  0  0999 V2000
    9.5245   17.2970    2.4785 C   0  0  0  0  0  0  0  0  0  0  0  0
    9.1439   15.8165    2.4133 C   0  0  0  0  0  0  0  0  0  0  0  0
   10.1975   15.0541    1.6074 C   0  0  0  0  0  0  0  0  0  0  0  0
    9.8729   15.1499    0.1388 C   0  0  0  0  0  0  0  0  0  0  0  0
    8.9128   14.5672   -0.3068 O   0  0  0  0  0  0  0  0  0  0  0  0
   10.6471   15.8869   -0.6729 O   0  5  0  0  0  0  0  0  0  0  0  0
   10.2013   13.6473    2.0160 N   0  0  0  0  0  0  0  0  0  0  0  0
   11.1992   13.0014    2.7213 C   0  0  0  0  0  0  0  0  0  0  0  0
   12.4171   13.4013    3.2535 C   0  0  0  0  0  0  0  0  0  0  0  0
   13.2071   12.4917    3.9328 C   0  0  0  0  0  0  0  0  0  0  0  0
   12.7810   11.1725    4.0923 C   0  0  0  0  0  0  0  0  0  0  0  0
   11.5697   10.7646    3.5706 C   0  0  0  0  0  0  0  0  0  0  0  0
   10.7642   11.6759    2.8817 C   0  0  0  0  0  0  0  0  0  0  0  0
    9.5539   11.5794    2.2720 N   0  0  0  0  0  0  0  0  0  0  0  0
    9.2253   12.7321    1.7663 C   0  0  0  0  0  0  0  0  0  0  0  0
    7.9504   13.0128    1.0134 C   0  0  0  0  0  0  0  0  0  0  0  0
    7.9913   12.3029   -0.3413 C   0  0  0  0  0  0  0  0  0  0  0  0
    6.6992   11.5080   -0.5398 C   0  0  0  0  0  0  0  0  0  0  0  0
    6.5103   11.2295   -1.9698 N   0  3  0  0  0  0  0  0  0  0  0  0
   13.5487   10.2713    4.7668 O   0  0  0  0  0  0  0  0  0  0  0  0
   14.9259   10.6131    4.9563 C   0  0  0  0  0  0  0  0  0  0  0  0
   14.9982   12.0678    5.4393 C   0  0  0  0  0  0  0  0  0  0  0  0
   14.4028   12.9021    4.4401 O   0  0  0  0  0  0  0  0  0  0  0  0
   10.4110   17.4210    3.1178 H   0  0  0  0  0  0  0  0  0  0  0  0
    8.6871   17.8738    2.8980 H   0  0  0  0  0  0  0  0  0  0  0  0
    9.7498   17.6633    1.4661 H   0  0  0  0  0  0  0  0  0  0  0  0
    9.0942   15.4053    3.4324 H   0  0  0  0  0  0  0  0  0  0  0  0
    8.1632   15.7099    1.9266 H   0  0  0  0  0  0  0  0  0  0  0  0
   11.1892   15.4925    1.7931 H   0  0  0  0  0  0  0  0  0  0  0  0
   12.7540   14.4417    3.1350 H   0  0  0  0  0  0  0  0  0  0  0  0
   11.2387    9.7232    3.6968 H   0  0  0  0  0  0  0  0  0  0  0  0
    7.0924   12.6436    1.5944 H   0  0  0  0  0  0  0  0  0  0  0  0
    7.8474   14.0966    0.8557 H   0  0  0  0  0  0  0  0  0  0  0  0
    8.0891   13.0490   -1.1436 H   0  0  0  0  0  0  0  0  0  0  0  0
    8.8510   11.6172   -0.3714 H   0  0  0  0  0  0  0  0  0  0  0  0
    6.7639   10.5589    0.0125 H   0  0  0  0  0  0  0  0  0  0  0  0
    5.8463   12.0929   -0.1652 H   0  0  0  0  0  0  0  0  0  0  0  0
    7.3077   10.6808   -2.3220 H   0  0  0  0  0  0  0  0  0  0  0  0
    6.4494   12.1173   -2.4884 H   0  0  0  0  0  0  0  0  0  0  0  0
    5.6405   10.6944   -2.1041 H   0  0  0  0  0  0  0  0  0  0  0  0
   15.3709    9.9506    5.7133 H   0  0  0  0  0  0  0  0  0  0  0  0
   15.4674   10.5136    4.0040 H   0  0  0  0  0  0  0  0  0  0  0  0
   16.0493   12.3581    5.5845 H   0  0  0  0  0  0  0  0  0  0  0  0
   14.4452   12.1711    6.3846 H   0  0  0  0  0  0  0  0  0  0  0  0
  1  2  1  0  0  0  0
  1 24  1  0  0  0  0
  1 25  1  0  0  0  0
  1 26  1  0  0  0  0
  2  3  1  0  0  0  0
  2 27  1  0  0  0  0
  2 28  1  0  0  0  0
  3  4  1  0  0  0  0
  3  7  1  0  0  0  0
  3 29  1  0  0  0  0
  4  5  2  0  0  0  0
  4  6  1  0  0  0  0
  7 15  1  0  0  0  0
  7  8  1  0  0  0  0
  8 13  1  0  0  0  0
  8  9  2  0  0  0  0
  9 10  1  0  0  0  0
  9 30  1  0  0  0  0
 10 23  1  0  0  0  0
 10 11  2  0  0  0  0
 11 12  1  0  0  0  0
 11 20  1  0  0  0  0
 12 13  2  0  0  0  0
 12 31  1  0  0  0  0
 13 14  1  0  0  0  0
 14 15  2  0  0  0  0
 15 16  1  0  0  0  0
 16 17  1  0  0  0  0
 16 32  1  0  0  0  0
 16 33  1  0  0  0  0
 17 18  1  0  0  0  0
 17 34  1  0  0  0  0
 17 35  1  0  0  0  0
 18 19  1  0  0  0  0
 18 36  1  0  0  0  0
 18 37  1  0  0  0  0
 19 38  1  0  0  0  0
 19 39  1  0  0  0  0
 19 40  1  0  0  0  0
 20 21  1  0  0  0  0
 21 22  1  0  0  0  0
 21 41  1  0  0  0  0
 21 42  1  0  0  0  0
 22 23  1  0  0  0  0
 22 43  1  0  0  0  0
 22 44  1  0  0  0  0
M  END
> <Name>
ZINC19752740

> <reference>
BDB5199

> <quality>
0.777

> <status>
decoy

> <atoms in reference ligand area>
20

> <score>
-27.7155

$$$$
ZINC05667259
      BALL 1.4.0 (Jan  4 2012, 23:22:29)

 39 40  0999  0  0  0  0  0  0999 V2000
   11.2154   14.3080    1.3064 C   0  0  0  0  0  0  0  0  0  0  0  0
   11.0860   13.4645    2.3132 C   0  0  0  0  0  0  0  0  0  0  0  0
   10.1588   12.2826    2.1919 C   0  5  0  0  0  0  0  0  0  0  0  0
    8.8638   12.6235    2.9047 C   0  0  0  0  0  0  0  0  0  0  0  0
    8.2026   13.5868    2.5809 O   0  0  0  0  0  0  0  0  0  0  0  0
    8.4746   11.8142    3.9126 N   0  0  0  0  0  0  0  0  0  0  0  0
    9.1925   10.7473    4.2818 C   0  0  0  0  0  0  0  0  0  0  0  0
    8.7683   10.0732    5.1991 O   0  0  0  0  0  0  0  0  0  0  0  0
   10.3461   10.3715    3.7178 N   0  0  0  0  0  0  0  0  0  0  0  0
   10.8942   11.0526    2.6893 C   0  0  0  0  0  0  0  0  0  0  0  0
   11.9379   10.6973    2.1849 O   0  0  0  0  0  0  0  0  0  0  0  0
   11.0025    9.2323    4.2060 C   0  0  0  0  0  0  0  0  0  0  0  0
   10.3654    8.3989    5.1151 C   0  0  0  0  0  0  0  0  0  0  0  0
   11.0117    7.2744    5.5900 C   0  0  0  0  0  0  0  0  0  0  0  0
   12.2978    6.9848    5.1694 C   0  0  0  0  0  0  0  0  0  0  0  0
   12.9369    7.8170    4.2672 C   0  0  0  0  0  0  0  0  0  0  0  0
   12.2925    8.9394    3.7851 C   0  0  0  0  0  0  0  0  0  0  0  0
   13.1105    5.5750    5.7740 Cl  0  0  0  0  0  0  0  0  0  0  0  0
   13.1361   12.9361    3.5896 C   0  0  0  0  0  0  0  0  0  0  0  0
   13.9378   13.6011    4.7103 C   0  0  0  0  0  0  0  0  0  0  0  0
   15.0709   12.6707    5.1479 C   0  0  0  0  0  0  0  0  0  0  0  0
   16.3267   13.3223    4.9467 O   0  0  0  0  0  0  0  0  0  0  0  0
   11.7967   13.6185    3.5404 N   0  3  0  0  0  0  0  0  0  0  0  0
   10.6463   14.1484    0.3786 H   0  0  0  0  0  0  0  0  0  0  0  0
   11.8921   15.1706    1.3950 H   0  0  0  0  0  0  0  0  0  0  0  0
    7.5988   12.0243    4.4123 H   0  0  0  0  0  0  0  0  0  0  0  0
    9.3467    8.6338    5.4570 H   0  0  0  0  0  0  0  0  0  0  0  0
   10.5037    6.6085    6.3032 H   0  0  0  0  0  0  0  0  0  0  0  0
   13.9590    7.5843    3.9338 H   0  0  0  0  0  0  0  0  0  0  0  0
   12.8011    9.6007    3.0681 H   0  0  0  0  0  0  0  0  0  0  0  0
   13.6568   13.0688    2.6299 H   0  0  0  0  0  0  0  0  0  0  0  0
   13.0008   11.8671    3.8110 H   0  0  0  0  0  0  0  0  0  0  0  0
   14.3620   14.5483    4.3455 H   0  0  0  0  0  0  0  0  0  0  0  0
   13.2769   13.8009    5.5667 H   0  0  0  0  0  0  0  0  0  0  0  0
   15.0385   11.7465    4.5524 H   0  0  0  0  0  0  0  0  0  0  0  0
   14.9526   12.4247    6.2136 H   0  0  0  0  0  0  0  0  0  0  0  0
   16.4245   14.0609    5.5984 H   0  0  0  0  0  0  0  0  0  0  0  0
   11.9325   14.6242    3.7163 H   0  0  0  0  0  0  0  0  0  0  0  0
   11.2127   13.2537    4.3063 H   0  0  0  0  0  0  0  0  0  0  0  0
  1  2  2  0  0  0  0
  1 24  1  0  0  0  0
  1 25  1  0  0  0  0
  2  3  1  0  0  0  0
  2 23  1  0  0  0  0
  3 10  1  0  0  0  0
  3  4  1  0  0  0  0
  4  5  2  0  0  0  0
  4  6  1  0  0  0  0
  6  7  1  0  0  0  0
  6 26  1  0  0  0  0
  7  8  2  0  0  0  0
  7  9  1  0  0  0  0
  9 10  1  0  0  0  0
  9 12  1  0  0  0  0
 10 11  2  0  0  0  0
 12 17  2  0  0  0  0
 12 13  1  0  0  0  0
 13 14  2  0  0  0  0
 13 27  1  0  0  0  0
 14 15  1  0  0  0  0
 14 28  1  0  0  0  0
 15 16  2  0  0  0  0
 15 18  1  0  0  0  0
 16 17  1  0  0  0  0
 16 29  1  0  0  0  0
 17 30  1  0  0  0  0
 19 20  1  0  0  0  0
 19 23  1  0  0  0  0
 19 31  1  0  0  0  0
 19 32  1  0  0  0  0
 20 21  1  0  0  0  0
 20 33  1  0  0  0  0
 20 34  1  0  0  0  0
 21 22  1  0  0  0  0
 21 35  1  0  0  0  0
 21 36  1  0  0  0  0
 22 37  1  0  0  0  0
 23 38  1  0  0  0  0
 23 39  1  0  0  0  0
M  END
> <Name>
ZINC05667259

> <reference>
BDB5198

> <quality>
0.867

> <status>
decoy

> <atoms in reference ligand area>
15

> <score>
-27.7007

$$$$
ZINC03215161
      BALL 1.4.0 (Jan  4 2012, 23:22:29)

 42 43  0999  0  0  0  0  0  0999 V2000
    7.6678   11.3910    1.3990 C   0  0  0  0  0  0  0  0  0  0  0  0
    8.9523   10.7743    1.2916 O   0  0  0  0  0  0  0  0  0  0  0  0
   10.0122   11.5927    1.0544 C   0  0  0  0  0  0  0  0  0  0  0  0
   10.9495   11.8126    2.0455 C   0  0  0  0  0  0  0  0  0  0  0  0
   12.0427   12.6519    1.7988 C   0  0  0  0  0  0  0  0  0  0  0  0
   12.1762   13.2730    0.5511 C   0  0  0  0  0  0  0  0  0  0  0  0
   11.2319   13.0518   -0.4332 C   0  0  0  0  0  0  0  0  0  0  0  0
   10.1483   12.2128   -0.1853 C   0  0  0  0  0  0  0  0  0  0  0  0
    9.2212   11.9980   -1.1560 O   0  0  0  0  0  0  0  0  0  0  0  0
    9.4219   12.6651   -2.4038 C   0  0  0  0  0  0  0  0  0  0  0  0
   11.3606   13.6545   -1.6455 O   0  0  0  0  0  0  0  0  0  0  0  0
   12.0154   14.9243   -1.6724 C   0  0  0  0  0  0  0  0  0  0  0  0
   13.0436   12.8846    2.8477 C   0  0  0  0  0  0  0  0  0  0  0  0
   13.7330   11.8395    3.3718 C   0  0  0  0  0  0  0  0  0  0  0  0
   13.7712   10.4273    2.9428 C   0  0  0  0  0  0  0  0  0  0  0  0
   13.1274   10.0314    1.9888 O   0  0  0  0  0  0  0  0  0  0  0  0
   14.5405    9.6145    3.6471 N   0  0  0  0  0  0  0  0  0  0  0  0
   15.2527   10.0575    4.7032 C   0  0  0  0  0  0  0  0  0  0  0  0
   15.9940    9.4266    5.4325 O   0  0  0  0  0  0  0  0  0  0  0  0
   14.8506   11.7960    4.7663 S   0  0  0  0  0  0  0  0  0  0  0  0
   14.6215    8.2008    3.2713 C   0  0  0  0  0  0  0  0  0  0  0  0
   14.9108    8.0872    1.7732 C   0  0  0  0  0  0  0  0  0  0  0  0
   13.6524    8.2629    1.0267 N   0  3  0  0  0  0  0  0  0  0  0  0
    7.7703   12.1908    2.1472 H   0  0  0  0  0  0  0  0  0  0  0  0
    6.9918   10.6277    1.8116 H   0  0  0  0  0  0  0  0  0  0  0  0
    7.3008   11.7801    0.4378 H   0  0  0  0  0  0  0  0  0  0  0  0
   10.8370   11.3288    3.0270 H   0  0  0  0  0  0  0  0  0  0  0  0
   13.0316   13.9360    0.3547 H   0  0  0  0  0  0  0  0  0  0  0  0
    9.5580   13.7305   -2.1665 H   0  0  0  0  0  0  0  0  0  0  0  0
    8.4811   12.5618   -2.9644 H   0  0  0  0  0  0  0  0  0  0  0  0
   10.2762   12.2633   -2.9684 H   0  0  0  0  0  0  0  0  0  0  0  0
   12.0654   15.2242   -2.7295 H   0  0  0  0  0  0  0  0  0  0  0  0
   13.0435   14.7496   -1.3223 H   0  0  0  0  0  0  0  0  0  0  0  0
   11.5022   15.6808   -1.0605 H   0  0  0  0  0  0  0  0  0  0  0  0
   13.2347   13.9060    3.2087 H   0  0  0  0  0  0  0  0  0  0  0  0
   13.6663    7.7046    3.4983 H   0  0  0  0  0  0  0  0  0  0  0  0
   15.4302    7.7163    3.8381 H   0  0  0  0  0  0  0  0  0  0  0  0
   15.3328    7.0955    1.5532 H   0  0  0  0  0  0  0  0  0  0  0  0
   15.6262    8.8682    1.4763 H   0  0  0  0  0  0  0  0  0  0  0  0
   12.9120    8.5880    1.6647 H   0  0  0  0  0  0  0  0  0  0  0  0
   13.3723    7.3676    0.6014 H   0  0  0  0  0  0  0  0  0  0  0  0
   13.7922    8.9627    0.2840 H   0  0  0  0  0  0  0  0  0  0  0  0
  1  2  1  0  0  0  0
  1 24  1  0  0  0  0
  1 25  1  0  0  0  0
  1 26  1  0  0  0  0
  2  3  1  0  0  0  0
  3  8  2  0  0  0  0
  3  4  1  0  0  0  0
  4  5  2  0  0  0  0
  4 27  1  0  0  0  0
  5  6  1  0  0  0  0
  5 13  1  0  0  0  0
  6  7  2  0  0  0  0
  6 28  1  0  0  0  0
  7  8  1  0  0  0  0
  7 11  1  0  0  0  0
  8  9  1  0  0  0  0
  9 10  1  0  0  0  0
 10 29  1  0  0  0  0
 10 30  1  0  0  0  0
 10 31  1  0  0  0  0
 11 12  1  0  0  0  0
 12 32  1  0  0  0  0
 12 33  1  0  0  0  0
 12 34  1  0  0  0  0
 13 14  2  0  0  0  0
 13 35  1  0  0  0  0
 14 20  1  0  0  0  0
 14 15  1  0  0  0  0
 15 16  2  0  0  0  0
 15 17  1  0  0  0  0
 17 18  1  0  0  0  0
 17 21  1  0  0  0  0
 18 19  2  0  0  0  0
 18 20  1  0  0  0  0
 21 22  1  0  0  0  0
 21 36  1  0  0  0  0
 21 37  1  0  0  0  0
 22 23  1  0  0  0  0
 22 38  1  0  0  0  0
 22 39  1  0  0  0  0
 23 40  1  0  0  0  0
 23 41  1  0  0  0  0
 23 42  1  0  0  0  0
M  END
> <Name>
ZINC03215161

> <reference>
BDB5198

> <quality>
0.776

> <status>
decoy

> <atoms in reference ligand area>
18

> <score>
-27.555

$$$$
ZINC16953706
      BALL 1.4.0 (Jan  4 2012, 23:22:29)

 40 43  0999  0  0  0  0  0  0999 V2000
   11.0000    7.6353    2.4814 C   0  0  0  0  0  0  0  0  0  0  0  0
   10.3302    8.9806    2.7685 C   0  0  0  0  0  0  0  0  0  0  0  0
    8.9005    8.8573    2.6183 O   0  0  0  0  0  0  0  0  0  0  0  0
    8.4360   10.0633    1.9974 C   0  0  0  0  0  0  0  0  0  0  0  0
    7.8167    9.7288    0.6280 C   0  0  0  0  0  0  0  0  0  0  0  0
    8.2712   10.7435   -0.2765 O   0  0  0  0  0  0  0  0  0  0  0  0
    9.5594   11.1992    0.1480 C   0  0  0  0  0  0  0  0  0  0  0  0
    9.7024   10.8809    1.6446 C   0  0  0  0  0  0  0  0  0  0  0  0
   10.7932    9.9630    1.8321 O   0  0  0  0  0  0  0  0  0  0  0  0
    9.6686   12.6447   -0.0640 N   0  0  0  0  0  0  0  0  0  0  0  0
    8.7156   13.5763    0.2226 C   0  0  0  0  0  0  0  0  0  0  0  0
    9.1457   14.7636   -0.0920 N   0  0  0  0  0  0  0  0  0  0  0  0
   10.3984   14.6698   -0.5990 C   0  0  0  0  0  0  0  0  0  0  0  0
   10.7491   13.3090   -0.5873 C   0  0  0  0  0  0  0  0  0  0  0  0
   11.9448   12.9463   -1.0397 N   0  0  0  0  0  0  0  0  0  0  0  0
   12.7918   13.8461   -1.4935 C   0  0  0  0  0  0  0  0  0  0  0  0
   12.5074   15.1351   -1.5243 N   0  0  0  0  0  0  0  0  0  0  0  0
   11.3362   15.5922   -1.0929 C   0  0  0  0  0  0  0  0  0  0  0  0
   11.0471   16.9450   -1.1297 N   0  0  0  0  0  0  0  0  0  0  0  0
    6.2898    9.7534    0.7214 C   0  0  0  0  0  0  0  0  0  0  0  0
    5.7161    9.5928   -0.6170 N   0  0  0  0  0  0  0  0  0  0  0  0
    5.0411    8.7217   -0.8383 N   0  3  0  0  0  0  0  0  0  0  0  0
    4.3660    7.8507   -1.0595 N   0  5  0  0  0  0  0  0  0  0  0  0
   10.6579    9.4292    4.1940 C   0  0  0  0  0  0  0  0  0  0  0  0
   11.9120    7.8005    1.8890 H   0  0  0  0  0  0  0  0  0  0  0  0
   10.3074    6.9961    1.9143 H   0  0  0  0  0  0  0  0  0  0  0  0
   11.2618    7.1430    3.4295 H   0  0  0  0  0  0  0  0  0  0  0  0
    7.7214   10.5756    2.6583 H   0  0  0  0  0  0  0  0  0  0  0  0
    8.1136    8.7258    0.2877 H   0  0  0  0  0  0  0  0  0  0  0  0
   10.3523   10.7002   -0.4284 H   0  0  0  0  0  0  0  0  0  0  0  0
    9.8483   11.7985    2.2335 H   0  0  0  0  0  0  0  0  0  0  0  0
    7.7287   13.3568    0.6559 H   0  0  0  0  0  0  0  0  0  0  0  0
   13.7732   13.5116   -1.8608 H   0  0  0  0  0  0  0  0  0  0  0  0
   10.9849   17.4735   -0.2478 H   0  0  0  0  0  0  0  0  0  0  0  0
   10.8951   17.4211   -2.0303 H   0  0  0  0  0  0  0  0  0  0  0  0
    5.9627   10.7135    1.1469 H   0  0  0  0  0  0  0  0  0  0  0  0
    5.9485    8.9308    1.3670 H   0  0  0  0  0  0  0  0  0  0  0  0
   11.5803   10.0286    4.1851 H   0  0  0  0  0  0  0  0  0  0  0  0
   10.8043    8.5441    4.8306 H   0  0  0  0  0  0  0  0  0  0  0  0
    9.8299   10.0347    4.5910 H   0  0  0  0  0  0  0  0  0  0  0  0
  1  2  1  0  0  0  0
  1 25  1  0  0  0  0
  1 26  1  0  0  0  0
  1 27  1  0  0  0  0
  2  9  1  0  0  0  0
  2  3  1  0  0  0  0
  2 24  1  0  0  0  0
  3  4  1  0  0  0  0
  4  8  1  0  0  0  0
  4  5  1  0  0  0  0
  4 28  1  0  0  0  0
  5  6  1  0  0  0  0
  5 20  1  0  0  0  0
  5 29  1  0  0  0  0
  6  7  1  0  0  0  0
  7  8  1  0  0  0  0
  7 10  1  0  0  0  0
  7 30  1  0  0  0  0
  8  9  1  0  0  0  0
  8 31  1  0  0  0  0
 10 14  1  0  0  0  0
 10 11  1  0  0  0  0
 11 12  2  0  0  0  0
 11 32  1  0  0  0  0
 12 13  1  0  0  0  0
 13 18  2  0  0  0  0
 13 14  1  0  0  0  0
 14 15  2  0  0  0  0
 15 16  1  0  0  0  0
 16 17  2  0  0  0  0
 16 33  1  0  0  0  0
 17 18  1  0  0  0  0
 18 19  1  0  0  0  0
 19 34  1  0  0  0  0
 19 35  1  0  0  0  0
 20 21  1  0  0  0  0
 20 36  1  0  0  0  0
 20 37  1  0  0  0  0
 21 22  2  0  0  0  0
 22 23  2  0  0  0  0
 24 38  1  0  0  0  0
 24 39  1  0  0  0  0
 24 40  1  0  0  0  0
M  END
> <Name>
ZINC16953706

> <reference>
BDB4977

> <quality>
0.780

> <status>
decoy

> <atoms in reference ligand area>
14

> <score>
-27.4628

$$$$
ZINC04226595
      BALL 1.4.0 (Jan  4 2012, 23:22:29)

 39 40  0999  0  0  0  0  0  0999 V2000
    9.3982    8.4041    4.4648 C   0  0  0  0  0  0  0  0  0  0  0  0
   10.2821    9.3211    3.6593 C   0  0  0  0  0  0  0  0  0  0  0  0
   11.4255    8.8066    3.0671 C   0  0  0  0  0  0  0  0  0  0  0  0
   12.2419    9.6379    2.3142 C   0  0  0  0  0  0  0  0  0  0  0  0
   11.8712   10.9997    2.1958 C   0  0  0  0  0  0  0  0  0  0  0  0
   12.6524   11.9049    1.4650 C   0  0  0  0  0  0  0  0  0  0  0  0
   12.2737   13.2126    1.3664 C   0  0  0  0  0  0  0  0  0  0  0  0
   11.1180   13.6707    1.9820 C   0  0  0  0  0  0  0  0  0  0  0  0
   10.3152   12.8064    2.7152 C   0  0  0  0  0  0  0  0  0  0  0  0
   10.6913   11.4438    2.8364 C   0  0  0  0  0  0  0  0  0  0  0  0
    9.0899   13.3004    3.3649 C   0  0  0  0  0  0  0  0  0  0  0  0
    8.7912   12.9090    4.4760 O   0  0  0  0  0  0  0  0  0  0  0  0
   13.3909    9.1547    1.7100 N   0  0  0  0  0  0  0  0  0  0  0  0
   13.7521    7.7416    1.8476 C   0  0  0  0  0  0  0  0  0  0  0  0
   13.3382    6.9841    0.5843 C   0  0  0  0  0  0  0  0  0  0  0  0
   13.9199    7.6121   -0.5598 O   0  0  0  0  0  0  0  0  0  0  0  0
   13.5940    6.9792   -1.7988 C   0  0  0  0  0  0  0  0  0  0  0  0
   14.2670    7.7318   -2.9485 C   0  0  0  0  0  0  0  0  0  0  0  0
   13.8486    7.1709   -4.1945 O   0  0  0  0  0  0  0  0  0  0  0  0
    9.8812   10.6124    3.5728 N   0  3  0  0  0  0  0  0  0  0  0  0
    8.3024   14.1909    2.7297 O   0  5  0  0  0  0  0  0  0  0  0  0
   10.0834    7.7153    4.9806 H   0  0  0  0  0  0  0  0  0  0  0  0
    8.8355    7.8154    3.7252 H   0  0  0  0  0  0  0  0  0  0  0  0
    8.7367    8.9357    5.1647 H   0  0  0  0  0  0  0  0  0  0  0  0
   11.6839    7.7449    3.1936 H   0  0  0  0  0  0  0  0  0  0  0  0
   13.5726   11.5611    0.9700 H   0  0  0  0  0  0  0  0  0  0  0  0
   12.8946   13.9141    0.7898 H   0  0  0  0  0  0  0  0  0  0  0  0
   10.8344   14.7294    1.8884 H   0  0  0  0  0  0  0  0  0  0  0  0
   13.9912    9.7890    1.1639 H   0  0  0  0  0  0  0  0  0  0  0  0
   13.2339    7.3126    2.7178 H   0  0  0  0  0  0  0  0  0  0  0  0
   14.8396    7.6530    1.9879 H   0  0  0  0  0  0  0  0  0  0  0  0
   13.6893    5.9436    0.6490 H   0  0  0  0  0  0  0  0  0  0  0  0
   12.2423    6.9961    0.4907 H   0  0  0  0  0  0  0  0  0  0  0  0
   12.5035    6.9913   -1.9424 H   0  0  0  0  0  0  0  0  0  0  0  0
   13.9504    5.9387   -1.7841 H   0  0  0  0  0  0  0  0  0  0  0  0
   13.9802    8.7929   -2.9099 H   0  0  0  0  0  0  0  0  0  0  0  0
   15.3597    7.6437   -2.8561 H   0  0  0  0  0  0  0  0  0  0  0  0
   13.3976    7.8665   -4.7357 H   0  0  0  0  0  0  0  0  0  0  0  0
    9.0226   10.9503    4.0305 H   0  0  0  0  0  0  0  0  0  0  0  0
  1  2  1  0  0  0  0
  1 22  1  0  0  0  0
  1 23  1  0  0  0  0
  1 24  1  0  0  0  0
  2  3  2  0  0  0  0
  2 20  1  0  0  0  0
  3  4  1  0  0  0  0
  3 25  1  0  0  0  0
  4  5  2  0  0  0  0
  4 13  1  0  0  0  0
  5 10  1  0  0  0  0
  5  6  1  0  0  0  0
  6  7  2  0  0  0  0
  6 26  1  0  0  0  0
  7  8  1  0  0  0  0
  7 27  1  0  0  0  0
  8  9  2  0  0  0  0
  8 28  1  0  0  0  0
  9 10  1  0  0  0  0
  9 11  1  0  0  0  0
 10 20  2  0  0  0  0
 11 12  2  0  0  0  0
 11 21  1  0  0  0  0
 13 14  1  0  0  0  0
 13 29  1  0  0  0  0
 14 15  1  0  0  0  0
 14 30  1  0  0  0  0
 14 31  1  0  0  0  0
 15 16  1  0  0  0  0
 15 32  1  0  0  0  0
 15 33  1  0  0  0  0
 16 17  1  0  0  0  0
 17 18  1  0  0  0  0
 17 34  1  0  0  0  0
 17 35  1  0  0  0  0
 18 19  1  0  0  0  0
 18 36  1  0  0  0  0
 18 37  1  0  0  0  0
 19 38  1  0  0  0  0
 20 39  1  0  0  0  0
M  END
> <Name>
ZINC04226595

> <reference>
BDB5222

> <quality>
0.855

> <status>
decoy

> <atoms in reference ligand area>
10

> <score>
-27.4195

$$$$
ZINC21991926
      BALL 1.4.0 (Jan  4 2012, 23:22:29)

 42 42  0999  0  0  0  0  0  0999 V2000
    9.3355   17.7064    0.8554 C   0  0  0  0  0  0  0  0  0  0  0  0
    9.6405   16.2539    1.1163 C   0  0  0  0  0  0  0  0  0  0  0  0
    9.4320   15.7189    2.3738 C   0  0  0  0  0  0  0  0  0  0  0  0
    9.7117   14.3865    2.6131 C   0  0  0  0  0  0  0  0  0  0  0  0
   10.1992   13.5887    1.5947 C   0  0  0  0  0  0  0  0  0  0  0  0
   10.4122   14.1249    0.3385 C   0  0  0  0  0  0  0  0  0  0  0  0
   10.1284   15.4563    0.0980 C   0  0  0  0  0  0  0  0  0  0  0  0
   10.5556   11.8904    1.8998 S   0  0  0  0  0  0  0  0  0  0  0  0
   11.0192   11.8071    3.2405 O   0  0  0  0  0  0  0  0  0  0  0  0
   11.3268   11.4330    0.7974 O   0  0  0  0  0  0  0  0  0  0  0  0
    9.1178   11.0707    1.8443 N   0  0  0  0  0  0  0  0  0  0  0  0
    8.6295   10.4619    2.9761 C   0  0  0  0  0  0  0  0  0  0  0  0
    9.2982   10.5300    4.0928 N   0  0  0  0  0  0  0  0  0  0  0  0
    7.4357    9.7814    2.9301 N   0  0  0  0  0  0  0  0  0  0  0  0
    6.9153    9.1327    4.1361 C   0  0  0  0  0  0  0  0  0  0  0  0
    5.5838    8.4512    3.8146 C   0  0  0  0  0  0  0  0  0  0  0  0
    5.0403    7.7737    5.0741 C   0  0  0  0  0  0  0  0  0  0  0  0
    3.7088    7.0922    4.7526 C   0  0  0  0  0  0  0  0  0  0  0  0
    2.6022    7.7616    5.5262 C   0  0  0  0  0  0  0  0  0  0  0  0
    2.8685    8.5628    6.3905 O   0  0  0  0  0  0  0  0  0  0  0  0
    1.3208    7.4678    5.2550 O   0  5  0  0  0  0  0  0  0  0  0  0
    3.4367    7.2034    3.3132 N   0  3  0  0  0  0  0  0  0  0  0  0
    8.9358   17.7350   -0.1690 H   0  0  0  0  0  0  0  0  0  0  0  0
   10.3157   18.2052    0.8358 H   0  0  0  0  0  0  0  0  0  0  0  0
    8.6490   18.1557    1.5880 H   0  0  0  0  0  0  0  0  0  0  0  0
    9.0435   16.3534    3.1841 H   0  0  0  0  0  0  0  0  0  0  0  0
    9.5464   13.9609    3.6138 H   0  0  0  0  0  0  0  0  0  0  0  0
   10.8074   13.4922   -0.4698 H   0  0  0  0  0  0  0  0  0  0  0  0
   10.2907   15.8810   -0.9036 H   0  0  0  0  0  0  0  0  0  0  0  0
   10.1003    9.9036    4.2519 H   0  0  0  0  0  0  0  0  0  0  0  0
    9.0245   11.2101    4.8163 H   0  0  0  0  0  0  0  0  0  0  0  0
    6.9073    9.7277    2.0475 H   0  0  0  0  0  0  0  0  0  0  0  0
    7.6363    8.3800    4.4879 H   0  0  0  0  0  0  0  0  0  0  0  0
    6.7601    9.8870    4.9215 H   0  0  0  0  0  0  0  0  0  0  0  0
    4.8622    9.2034    3.4631 H   0  0  0  0  0  0  0  0  0  0  0  0
    5.7374    7.6957    3.0300 H   0  0  0  0  0  0  0  0  0  0  0  0
    4.8850    8.5280    5.8595 H   0  0  0  0  0  0  0  0  0  0  0  0
    5.7613    7.0211    5.4259 H   0  0  0  0  0  0  0  0  0  0  0  0
    3.7629    6.0303    5.0345 H   0  0  0  0  0  0  0  0  0  0  0  0
    4.2648    6.8989    2.7818 H   0  0  0  0  0  0  0  0  0  0  0  0
    3.2198    8.1826    3.0784 H   0  0  0  0  0  0  0  0  0  0  0  0
    2.6339    6.6067    3.0678 H   0  0  0  0  0  0  0  0  0  0  0  0
  1  2  1  0  0  0  0
  1 23  1  0  0  0  0
  1 24  1  0  0  0  0
  1 25  1  0  0  0  0
  2  7  2  0  0  0  0
  2  3  1  0  0  0  0
  3  4  2  0  0  0  0
  3 26  1  0  0  0  0
  4  5  1  0  0  0  0
  4 27  1  0  0  0  0
  5  6  2  0  0  0  0
  5  8  1  0  0  0  0
  6  7  1  0  0  0  0
  6 28  1  0  0  0  0
  7 29  1  0  0  0  0
  8  9  2  0  0  0  0
  8 10  2  0  0  0  0
  8 11  1  0  0  0  0
 11 12  2  0  0  0  0
 12 13  1  0  0  0  0
 12 14  1  0  0  0  0
 13 30  1  0  0  0  0
 13 31  1  0  0  0  0
 14 15  1  0  0  0  0
 14 32  1  0  0  0  0
 15 16  1  0  0  0  0
 15 33  1  0  0  0  0
 15 34  1  0  0  0  0
 16 17  1  0  0  0  0
 16 35  1  0  0  0  0
 16 36  1  0  0  0  0
 17 18  1  0  0  0  0
 17 37  1  0  0  0  0
 17 38  1  0  0  0  0
 18 19  1  0  0  0  0
 18 22  1  0  0  0  0
 18 39  1  0  0  0  0
 19 20  2  0  0  0  0
 19 21  1  0  0  0  0
 22 40  1  0  0  0  0
 22 41  1  0  0  0  0
 22 42  1  0  0  0  0
M  END
> <Name>
ZINC21991926

> <reference>
BDB5024

> <quality>
0.756

> <status>
decoy

> <atoms in reference ligand area>
11

> <score>
-27.414

$$$$
ZINC31220835
      BALL 1.4.0 (Jan  4 2012, 23:22:29)

 42 42  0999  0  0  0  0  0  0999 V2000
   17.7947    7.8266    9.9890 C   0  0  0  0  0  0  0  0  0  0  0  0
   18.9572    8.7222    9.5562 C   0  0  0  0  0  0  0  0  0  0  0  0
   18.5113   10.4608    9.8188 S   0  0  0  0  0  0  0  0  0  0  0  0
   19.6670   11.2175   10.1520 O   0  0  0  0  0  0  0  0  0  0  0  0
   17.3340   10.5502   10.6095 O   0  0  0  0  0  0  0  0  0  0  0  0
   18.0599   11.0147    8.3248 N   0  0  0  0  0  0  0  0  0  0  0  0
   16.7622   10.6320    7.7631 C   0  0  0  0  0  0  0  0  0  0  0  0
   16.5402   11.3713    6.4421 C   0  0  0  0  0  0  0  0  0  0  0  0
   15.2424   10.9887    5.8804 N   0  0  0  0  0  0  0  0  0  0  0  0
   14.6463   11.7764    4.9635 C   0  0  0  0  0  0  0  0  0  0  0  0
   15.1866   12.7994    4.5998 O   0  0  0  0  0  0  0  0  0  0  0  0
   13.3113   11.3827    4.3857 C   0  0  0  0  0  0  0  0  0  0  0  0
   13.1951   11.9204    2.9580 C   0  0  0  0  0  0  0  0  0  0  0  0
   11.8601   11.5267    2.3801 C   0  0  0  0  0  0  0  0  0  0  0  0
   10.7638   12.2787    2.6163 C   0  0  0  0  0  0  0  0  0  0  0  0
    9.5603   11.9094    2.0801 N   0  0  0  0  0  0  0  0  0  0  0  0
    9.4572   10.7988    1.3277 C   0  0  0  0  0  0  0  0  0  0  0  0
    8.3771   10.4866    0.8647 O   0  0  0  0  0  0  0  0  0  0  0  0
   10.5328   10.0282    1.0807 N   0  0  0  0  0  0  0  0  0  0  0  0
   11.7375   10.3603    1.5871 C   0  0  0  0  0  0  0  0  0  0  0  0
   12.7112    9.6636    1.3642 O   0  0  0  0  0  0  0  0  0  0  0  0
   10.8661   13.5214    3.4626 C   0  0  0  0  0  0  0  0  0  0  0  0
   16.8433    8.2826    9.6777 H   0  0  0  0  0  0  0  0  0  0  0  0
   17.8055    7.7129   11.0831 H   0  0  0  0  0  0  0  0  0  0  0  0
   17.8975    6.8379    9.5179 H   0  0  0  0  0  0  0  0  0  0  0  0
   19.1720    8.5565    8.4901 H   0  0  0  0  0  0  0  0  0  0  0  0
   19.8492    8.4791   10.1522 H   0  0  0  0  0  0  0  0  0  0  0  0
   18.6915   11.6282    7.7906 H   0  0  0  0  0  0  0  0  0  0  0  0
   16.7461    9.5470    7.5826 H   0  0  0  0  0  0  0  0  0  0  0  0
   15.9626   10.8979    8.4702 H   0  0  0  0  0  0  0  0  0  0  0  0
   16.5558   12.4563    6.6220 H   0  0  0  0  0  0  0  0  0  0  0  0
   17.3383   11.1056    5.7334 H   0  0  0  0  0  0  0  0  0  0  0  0
   14.7855   10.1177    6.1862 H   0  0  0  0  0  0  0  0  0  0  0  0
   13.2265   10.2861    4.3720 H   0  0  0  0  0  0  0  0  0  0  0  0
   12.5045   11.8052    5.0026 H   0  0  0  0  0  0  0  0  0  0  0  0
   13.2793   13.0171    2.9711 H   0  0  0  0  0  0  0  0  0  0  0  0
   14.0005   11.4980    2.3393 H   0  0  0  0  0  0  0  0  0  0  0  0
    8.7255   12.4871    2.2540 H   0  0  0  0  0  0  0  0  0  0  0  0
   10.4352    9.1814    0.5026 H   0  0  0  0  0  0  0  0  0  0  0  0
   10.9738   14.3481    2.7449 H   0  0  0  0  0  0  0  0  0  0  0  0
   11.8233   13.4261    3.9961 H   0  0  0  0  0  0  0  0  0  0  0  0
   10.0158   13.6649    4.1456 H   0  0  0  0  0  0  0  0  0  0  0  0
  1  2  1  0  0  0  0
  1 23  1  0  0  0  0
  1 24  1  0  0  0  0
  1 25  1  0  0  0  0
  2  3  1  0  0  0  0
  2 26  1  0  0  0  0
  2 27  1  0  0  0  0
  3  4  2  0  0  0  0
  3  5  2  0  0  0  0
  3  6  1  0  0  0  0
  6  7  1  0  0  0  0
  6 28  1  0  0  0  0
  7  8  1  0  0  0  0
  7 29  1  0  0  0  0
  7 30  1  0  0  0  0
  8  9  1  0  0  0  0
  8 31  1  0  0  0  0
  8 32  1  0  0  0  0
  9 10  1  0  0  0  0
  9 33  1  0  0  0  0
 10 11  2  0  0  0  0
 10 12  1  0  0  0  0
 12 13  1  0  0  0  0
 12 34  1  0  0  0  0
 12 35  1  0  0  0  0
 13 14  1  0  0  0  0
 13 36  1  0  0  0  0
 13 37  1  0  0  0  0
 14 20  1  0  0  0  0
 14 15  2  0  0  0  0
 15 16  1  0  0  0  0
 15 22  1  0  0  0  0
 16 17  1  0  0  0  0
 16 38  1  0  0  0  0
 17 18  2  0  0  0  0
 17 19  1  0  0  0  0
 19 20  1  0  0  0  0
 19 39  1  0  0  0  0
 20 21  2  0  0  0  0
 22 40  1  0  0  0  0
 22 41  1  0  0  0  0
 22 42  1  0  0  0  0
M  END
> <Name>
ZINC31220835

> <reference>
BDB5024

> <quality>
0.667

> <status>
decoy

> <atoms in reference ligand area>
11

> <score>
-27.3933

$$$$
ZINC24195016
      BALL 1.4.0 (Jan  4 2012, 23:22:29)

 49 50  0999  0  0  0  0  0  0999 V2000
   12.1481   14.1479   -0.6017 C   0  0  0  0  0  0  0  0  0  0  0  0
   11.4124   12.8549   -0.9590 C   0  0  0  0  0  0  0  0  0  0  0  0
   10.4448   12.5627    0.0512 O   0  0  0  0  0  0  0  0  0  0  0  0
   10.8081   12.7883    1.3310 C   0  0  0  0  0  0  0  0  0  0  0  0
   11.6061   13.6694    1.5906 O   0  0  0  0  0  0  0  0  0  0  0  0
   10.2613   12.0004    2.3708 C   0  0  0  0  0  0  0  0  0  0  0  0
   10.7255   10.7576    2.6231 C   0  0  0  0  0  0  0  0  0  0  0  0
   10.1973    9.9984    3.6278 N   0  0  0  0  0  0  0  0  0  0  0  0
    9.2032   10.4094    4.4250 C   0  0  0  0  0  0  0  0  0  0  0  0
    8.7985    9.6614    5.2936 O   0  0  0  0  0  0  0  0  0  0  0  0
    8.6359   11.6250    4.2953 N   0  0  0  0  0  0  0  0  0  0  0  0
    9.1350   12.5224    3.2397 C   0  0  0  0  0  0  0  0  0  0  0  0
    7.9595   12.8757    2.3263 C   0  0  0  0  0  0  0  0  0  0  0  0
   11.8450   10.1997    1.7826 C   0  0  0  0  0  0  0  0  0  0  0  0
   12.2567    8.9138    2.3167 O   0  0  0  0  0  0  0  0  0  0  0  0
   12.9291    8.0975    1.4900 C   0  0  0  0  0  0  0  0  0  0  0  0
   14.1097    8.2696    1.2995 O   0  0  0  0  0  0  0  0  0  0  0  0
   12.2113    6.9667    0.7994 C   0  0  0  0  0  0  0  0  0  0  0  0
   12.8530    6.6954   -0.4893 N   0  0  0  0  0  0  0  0  0  0  0  0
   13.0202    7.7746   -1.4658 C   0  0  0  0  0  0  0  0  0  0  0  0
   13.3897    5.1691   -0.8421 S   0  0  0  0  0  0  0  0  0  0  0  0
   14.4089    5.3132   -1.8217 O   0  0  0  0  0  0  0  0  0  0  0  0
   13.6149    4.5201    0.4018 O   0  0  0  0  0  0  0  0  0  0  0  0
   12.0593    4.3163   -1.6215 C   0  0  0  0  0  0  0  0  0  0  0  0
   12.0051    3.7693   -2.8605 C   0  0  0  0  0  0  0  0  0  0  0  0
   10.8437    3.1378   -3.2644 C   0  0  0  0  0  0  0  0  0  0  0  0
    9.7896    3.0935   -2.4133 C   0  0  0  0  0  0  0  0  0  0  0  0
   10.4300    3.9554   -0.9871 S   0  0  0  0  0  0  0  0  0  0  0  0
   12.7612   14.4702   -1.4563 H   0  0  0  0  0  0  0  0  0  0  0  0
   12.7970   13.9732    0.2691 H   0  0  0  0  0  0  0  0  0  0  0  0
   11.4159   14.9325   -0.3605 H   0  0  0  0  0  0  0  0  0  0  0  0
   10.9052   12.9769   -1.9274 H   0  0  0  0  0  0  0  0  0  0  0  0
   12.1340   12.0273   -1.0247 H   0  0  0  0  0  0  0  0  0  0  0  0
   10.5855    9.0567    3.7808 H   0  0  0  0  0  0  0  0  0  0  0  0
    7.8714   11.9194    4.9197 H   0  0  0  0  0  0  0  0  0  0  0  0
    9.5664   13.3795    3.7775 H   0  0  0  0  0  0  0  0  0  0  0  0
    8.2131   12.6560    1.2788 H   0  0  0  0  0  0  0  0  0  0  0  0
    7.7031   13.9403    2.4317 H   0  0  0  0  0  0  0  0  0  0  0  0
    7.0891   12.2692    2.6168 H   0  0  0  0  0  0  0  0  0  0  0  0
   11.4974   10.0716    0.7469 H   0  0  0  0  0  0  0  0  0  0  0  0
   12.6986   10.8933    1.7998 H   0  0  0  0  0  0  0  0  0  0  0  0
   12.2568    6.0651    1.4280 H   0  0  0  0  0  0  0  0  0  0  0  0
   11.1601    7.2452    0.6333 H   0  0  0  0  0  0  0  0  0  0  0  0
   13.7306    8.4715   -0.9970 H   0  0  0  0  0  0  0  0  0  0  0  0
   12.0447    8.2824   -1.4946 H   0  0  0  0  0  0  0  0  0  0  0  0
   13.3512    7.4393   -2.4598 H   0  0  0  0  0  0  0  0  0  0  0  0
   12.8725    3.8270   -3.5345 H   0  0  0  0  0  0  0  0  0  0  0  0
   10.7759    2.6781   -4.2614 H   0  0  0  0  0  0  0  0  0  0  0  0
    8.7971    2.6433   -2.5627 H   0  0  0  0  0  0  0  0  0  0  0  0
  1  2  1  0  0  0  0
  1 29  1  0  0  0  0
  1 30  1  0  0  0  0
  1 31  1  0  0  0  0
  2  3  1  0  0  0  0
  2 32  1  0  0  0  0
  2 33  1  0  0  0  0
  3  4  1  0  0  0  0
  4  5  2  0  0  0  0
  4  6  1  0  0  0  0
  6 12  1  0  0  0  0
  6  7  2  0  0  0  0
  7  8  1  0  0  0  0
  7 14  1  0  0  0  0
  8  9  1  0  0  0  0
  8 34  1  0  0  0  0
  9 10  2  0  0  0  0
  9 11  1  0  0  0  0
 11 12  1  0  0  0  0
 11 35  1  0  0  0  0
 12 13  1  0  0  0  0
 12 36  1  0  0  0  0
 13 37  1  0  0  0  0
 13 38  1  0  0  0  0
 13 39  1  0  0  0  0
 14 15  1  0  0  0  0
 14 40  1  0  0  0  0
 14 41  1  0  0  0  0
 15 16  1  0  0  0  0
 16 17  2  0  0  0  0
 16 18  1  0  0  0  0
 18 19  1  0  0  0  0
 18 42  1  0  0  0  0
 18 43  1  0  0  0  0
 19 20  1  0  0  0  0
 19 21  1  0  0  0  0
 20 44  1  0  0  0  0
 20 45  1  0  0  0  0
 20 46  1  0  0  0  0
 21 22  2  0  0  0  0
 21 23  2  0  0  0  0
 21 24  1  0  0  0  0
 24 28  1  0  0  0  0
 24 25  2  0  0  0  0
 25 26  1  0  0  0  0
 25 47  1  0  0  0  0
 26 27  2  0  0  0  0
 26 48  1  0  0  0  0
 27 28  1  0  0  0  0
 27 49  1  0  0  0  0
M  END
> <Name>
ZINC24195016

> <reference>
BDB4946

> <quality>
0.742

> <status>
decoy

> <atoms in reference ligand area>
17

> <score>
-27.3815

$$$$
ZINC06414339
      BALL 1.4.0 (Jan  4 2012, 23:22:29)

 58 60  0999  0  0  0  0  0  0999 V2000
   -1.5908    4.2400    2.1707 C   0  0  0  0  0  0  0  0  0  0  0  0
   -0.5615    3.6652    2.9782 O   0  0  0  0  0  0  0  0  0  0  0  0
    0.4266    4.4973    3.4036 C   0  0  0  0  0  0  0  0  0  0  0  0
    0.1180    5.7843    3.8186 C   0  0  0  0  0  0  0  0  0  0  0  0
    1.1208    6.6302    4.2503 C   0  0  0  0  0  0  0  0  0  0  0  0
    2.4383    6.1917    4.2690 C   0  0  0  0  0  0  0  0  0  0  0  0
    2.7460    4.9027    3.8545 C   0  0  0  0  0  0  0  0  0  0  0  0
    1.7421    4.0584    3.4223 C   0  0  0  0  0  0  0  0  0  0  0  0
    3.4550    7.0482    4.7058 N   0  0  0  0  0  0  0  0  0  0  0  0
    4.1062    7.7151    3.5696 C   0  0  0  0  0  0  0  0  0  0  0  0
    5.1550    8.6997    4.0922 C   0  0  0  0  0  0  0  0  0  0  0  0
    5.4881    7.3085    6.0447 C   0  0  0  0  0  0  0  0  0  0  0  0
    4.4392    6.3240    5.5221 C   0  0  0  0  0  0  0  0  0  0  0  0
    7.2065    8.8745    5.3671 C   0  0  0  0  0  0  0  0  0  0  0  0
    7.8564    9.5476    4.1565 C   0  0  0  0  0  0  0  0  0  0  0  0
    8.9671   10.4870    4.6304 C   0  0  0  0  0  0  0  0  0  0  0  0
   10.0367   10.4762    3.6829 O   0  0  0  0  0  0  0  0  0  0  0  0
   10.0928   11.5097    2.8052 C   0  0  0  0  0  0  0  0  0  0  0  0
   10.6366   11.3163    1.5406 C   0  0  0  0  0  0  0  0  0  0  0  0
   10.6910   12.3611    0.6453 C   0  0  0  0  0  0  0  0  0  0  0  0
   10.2078   13.6196    1.0131 C   0  0  0  0  0  0  0  0  0  0  0  0
    9.6668   13.8112    2.2871 C   0  0  0  0  0  0  0  0  0  0  0  0
    9.6116   12.7601    3.1750 C   0  0  0  0  0  0  0  0  0  0  0  0
   10.2684   14.7435    0.0581 C   0  0  0  0  0  0  0  0  0  0  0  0
    9.6885   15.7832    0.3054 O   0  0  0  0  0  0  0  0  0  0  0  0
   10.9665   14.6172   -1.0877 N   0  0  0  0  0  0  0  0  0  0  0  0
   10.5789   15.3043   -2.2029 N   0  0  0  0  0  0  0  0  0  0  0  0
    8.4109    8.5496    3.2972 O   0  0  0  0  0  0  0  0  0  0  0  0
    6.1501    7.9554    4.8925 N   0  3  0  0  0  0  0  0  0  0  0  0
   -2.0921    4.9921    2.7977 H   0  0  0  0  0  0  0  0  0  0  0  0
   -2.3119    3.4342    1.9691 H   0  0  0  0  0  0  0  0  0  0  0  0
   -1.2050    4.6807    1.2397 H   0  0  0  0  0  0  0  0  0  0  0  0
   -0.9258    6.1313    3.8040 H   0  0  0  0  0  0  0  0  0  0  0  0
    0.8759    7.6509    4.5792 H   0  0  0  0  0  0  0  0  0  0  0  0
    3.7892    4.5540    3.8704 H   0  0  0  0  0  0  0  0  0  0  0  0
    1.9859    3.0376    3.0929 H   0  0  0  0  0  0  0  0  0  0  0  0
    3.3530    8.2602    2.9817 H   0  0  0  0  0  0  0  0  0  0  0  0
    4.5950    6.9627    2.9333 H   0  0  0  0  0  0  0  0  0  0  0  0
    5.6563    9.1884    3.2438 H   0  0  0  0  0  0  0  0  0  0  0  0
    4.6679    9.4575    4.7234 H   0  0  0  0  0  0  0  0  0  0  0  0
    6.2364    6.7680    6.6429 H   0  0  0  0  0  0  0  0  0  0  0  0
    4.9983    8.0737    6.6648 H   0  0  0  0  0  0  0  0  0  0  0  0
    3.9304    5.8454    6.3719 H   0  0  0  0  0  0  0  0  0  0  0  0
    4.9321    5.5554    4.9086 H   0  0  0  0  0  0  0  0  0  0  0  0
    7.9658    8.3059    5.9240 H   0  0  0  0  0  0  0  0  0  0  0  0
    6.7618    9.6396    6.0203 H   0  0  0  0  0  0  0  0  0  0  0  0
    7.0980   10.1244    3.6068 H   0  0  0  0  0  0  0  0  0  0  0  0
    8.5693   11.5085    4.7220 H   0  0  0  0  0  0  0  0  0  0  0  0
    9.3412   10.1502    5.6085 H   0  0  0  0  0  0  0  0  0  0  0  0
   11.0239   10.3272    1.2547 H   0  0  0  0  0  0  0  0  0  0  0  0
   11.1141   12.2052   -0.3579 H   0  0  0  0  0  0  0  0  0  0  0  0
    9.2854   14.8004    2.5804 H   0  0  0  0  0  0  0  0  0  0  0  0
    9.1862   12.9102    4.1782 H   0  0  0  0  0  0  0  0  0  0  0  0
   11.7923   14.0026   -1.1226 H   0  0  0  0  0  0  0  0  0  0  0  0
   10.8938   14.9953   -3.1337 H   0  0  0  0  0  0  0  0  0  0  0  0
    9.9717   16.1314   -2.1131 H   0  0  0  0  0  0  0  0  0  0  0  0
    8.6870    8.9653    2.4422 H   0  0  0  0  0  0  0  0  0  0  0  0
    6.5797    7.2291    4.3018 H   0  0  0  0  0  0  0  0  0  0  0  0
  1  2  1  0  0  0  0
  1 30  1  0  0  0  0
  1 31  1  0  0  0  0
  1 32  1  0  0  0  0
  2  3  1  0  0  0  0
  3  8  2  0  0  0  0
  3  4  1  0  0  0  0
  4  5  2  0  0  0  0
  4 33  1  0  0  0  0
  5  6  1  0  0  0  0
  5 34  1  0  0  0  0
  6  7  2  0  0  0  0
  6  9  1  0  0  0  0
  7  8  1  0  0  0  0
  7 35  1  0  0  0  0
  8 36  1  0  0  0  0
  9 13  1  0  0  0  0
  9 10  1  0  0  0  0
 10 11  1  0  0  0  0
 10 37  1  0  0  0  0
 10 38  1  0  0  0  0
 11 29  1  0  0  0  0
 11 39  1  0  0  0  0
 11 40  1  0  0  0  0
 12 13  1  0  0  0  0
 12 29  1  0  0  0  0
 12 41  1  0  0  0  0
 12 42  1  0  0  0  0
 13 43  1  0  0  0  0
 13 44  1  0  0  0  0
 14 15  1  0  0  0  0
 14 29  1  0  0  0  0
 14 45  1  0  0  0  0
 14 46  1  0  0  0  0
 15 16  1  0  0  0  0
 15 28  1  0  0  0  0
 15 47  1  0  0  0  0
 16 17  1  0  0  0  0
 16 48  1  0  0  0  0
 16 49  1  0  0  0  0
 17 18  1  0  0  0  0
 18 23  2  0  0  0  0
 18 19  1  0  0  0  0
 19 20  2  0  0  0  0
 19 50  1  0  0  0  0
 20 21  1  0  0  0  0
 20 51  1  0  0  0  0
 21 22  2  0  0  0  0
 21 24  1  0  0  0  0
 22 23  1  0  0  0  0
 22 52  1  0  0  0  0
 23 53  1  0  0  0  0
 24 25  2  0  0  0  0
 24 26  1  0  0  0  0
 26 27  1  0  0  0  0
 26 54  1  0  0  0  0
 27 55  1  0  0  0  0
 27 56  1  0  0  0  0
 28 57  1  0  0  0  0
 29 58  1  0  0  0  0
M  END
> <Name>
ZINC06414339

> <reference>
BDB5007

> <quality>
0.715

> <status>
decoy

> <atoms in reference ligand area>
14

> <score>
-27.3721

$$$$
ZINC15910386
      BALL 1.4.0 (Jan  4 2012, 23:22:29)

 54 55  0999  0  0  0  0  0  0999 V2000
    5.3717    7.2511    5.5053 C   0  0  0  0  0  0  0  0  0  0  0  0
    6.5034    8.0846    4.9620 C   0  0  0  0  0  0  0  0  0  0  0  0
    7.0274    9.1147    5.7158 C   0  0  0  0  0  0  0  0  0  0  0  0
    8.0696    9.8778    5.2204 C   0  0  0  0  0  0  0  0  0  0  0  0
    8.5864    9.6207    3.9627 C   0  0  0  0  0  0  0  0  0  0  0  0
    8.0716    8.5940    3.1988 C   0  0  0  0  0  0  0  0  0  0  0  0
    7.0236    7.8168    3.6949 C   0  0  0  0  0  0  0  0  0  0  0  0
    6.4667    6.7150    2.8815 C   0  0  0  0  0  0  0  0  0  0  0  0
    5.6338    5.9687    3.3578 O   0  0  0  0  0  0  0  0  0  0  0  0
    6.8824    6.5381    1.6117 N   0  0  0  0  0  0  0  0  0  0  0  0
    6.8956    5.2541    1.0514 N   0  0  0  0  0  0  0  0  0  0  0  0
    6.5130    5.0733   -0.2283 C   0  0  0  0  0  0  0  0  0  0  0  0
    6.5290    3.5043   -0.9130 S   0  0  0  0  0  0  0  0  0  0  0  0
    6.1178    6.1278   -0.9688 N   0  0  0  0  0  0  0  0  0  0  0  0
    6.1232    6.0390   -2.4311 C   0  0  0  0  0  0  0  0  0  0  0  0
    5.8766    7.4263   -3.0272 C   0  0  0  0  0  0  0  0  0  0  0  0
    5.6341    7.2990   -4.5325 C   0  0  0  0  0  0  0  0  0  0  0  0
    5.8650    8.5616   -5.1607 O   0  0  0  0  0  0  0  0  0  0  0  0
    6.7307    8.4964   -6.2956 C   0  0  0  0  0  0  0  0  0  0  0  0
    9.9096   10.6027    3.3386 S   0  0  0  0  0  0  0  0  0  0  0  0
    9.9669   10.3645    1.9388 O   0  0  0  0  0  0  0  0  0  0  0  0
   11.0208   10.3787    4.1956 O   0  0  0  0  0  0  0  0  0  0  0  0
    9.4754   12.1891    3.5313 N   0  0  0  0  0  0  0  0  0  0  0  0
   10.2828   13.1004    4.3578 C   0  0  0  0  0  0  0  0  0  0  0  0
   10.5694   14.3665    3.5347 C   0  0  0  0  0  0  0  0  0  0  0  0
    9.3367   14.8889    3.0333 O   0  0  0  0  0  0  0  0  0  0  0  0
    8.6493   14.0104    2.1391 C   0  0  0  0  0  0  0  0  0  0  0  0
    8.2675   12.7275    2.8862 C   0  0  0  0  0  0  0  0  0  0  0  0
    4.8500    7.9084    6.2164 H   0  0  0  0  0  0  0  0  0  0  0  0
    5.8584    6.4590    6.0932 H   0  0  0  0  0  0  0  0  0  0  0  0
    4.7009    6.8500    4.7313 H   0  0  0  0  0  0  0  0  0  0  0  0
    6.6156    9.3295    6.7129 H   0  0  0  0  0  0  0  0  0  0  0  0
    8.4893   10.6924    5.8290 H   0  0  0  0  0  0  0  0  0  0  0  0
    8.4861    8.3881    2.2009 H   0  0  0  0  0  0  0  0  0  0  0  0
    7.1905    7.3469    1.0532 H   0  0  0  0  0  0  0  0  0  0  0  0
    7.1976    4.4482    1.6174 H   0  0  0  0  0  0  0  0  0  0  0  0
    5.8120    6.9960   -0.5067 H   0  0  0  0  0  0  0  0  0  0  0  0
    7.0987    5.6622   -2.7721 H   0  0  0  0  0  0  0  0  0  0  0  0
    5.3293    5.3527   -2.7609 H   0  0  0  0  0  0  0  0  0  0  0  0
    4.9940    7.8785   -2.5511 H   0  0  0  0  0  0  0  0  0  0  0  0
    6.7554    8.0639   -2.8507 H   0  0  0  0  0  0  0  0  0  0  0  0
    6.3214    6.5500   -4.9526 H   0  0  0  0  0  0  0  0  0  0  0  0
    4.5953    6.9852   -4.7124 H   0  0  0  0  0  0  0  0  0  0  0  0
    7.3688    9.3923   -6.2778 H   0  0  0  0  0  0  0  0  0  0  0  0
    6.1003    8.5361   -7.1963 H   0  0  0  0  0  0  0  0  0  0  0  0
    7.3414    7.5816   -6.2862 H   0  0  0  0  0  0  0  0  0  0  0  0
   11.2314   12.6139    4.6286 H   0  0  0  0  0  0  0  0  0  0  0  0
    9.7241   13.3695    5.2663 H   0  0  0  0  0  0  0  0  0  0  0  0
   11.0539   15.1189    4.1744 H   0  0  0  0  0  0  0  0  0  0  0  0
   11.2314   14.1164    2.6925 H   0  0  0  0  0  0  0  0  0  0  0  0
    7.7388   14.5031    1.7674 H   0  0  0  0  0  0  0  0  0  0  0  0
    9.3049   13.7599    1.2921 H   0  0  0  0  0  0  0  0  0  0  0  0
    7.8693   11.9905    2.1732 H   0  0  0  0  0  0  0  0  0  0  0  0
    7.5104   12.9576    3.6503 H   0  0  0  0  0  0  0  0  0  0  0  0
  1  2  1  0  0  0  0
  1 29  1  0  0  0  0
  1 30  1  0  0  0  0
  1 31  1  0  0  0  0
  2  7  2  0  0  0  0
  2  3  1  0  0  0  0
  3  4  2  0  0  0  0
  3 32  1  0  0  0  0
  4  5  1  0  0  0  0
  4 33  1  0  0  0  0
  5  6  2  0  0  0  0
  5 20  1  0  0  0  0
  6  7  1  0  0  0  0
  6 34  1  0  0  0  0
  7  8  1  0  0  0  0
  8  9  2  0  0  0  0
  8 10  1  0  0  0  0
 10 11  1  0  0  0  0
 10 35  1  0  0  0  0
 11 12  1  0  0  0  0
 11 36  1  0  0  0  0
 12 13  2  0  0  0  0
 12 14  1  0  0  0  0
 14 15  1  0  0  0  0
 14 37  1  0  0  0  0
 15 16  1  0  0  0  0
 15 38  1  0  0  0  0
 15 39  1  0  0  0  0
 16 17  1  0  0  0  0
 16 40  1  0  0  0  0
 16 41  1  0  0  0  0
 17 18  1  0  0  0  0
 17 42  1  0  0  0  0
 17 43  1  0  0  0  0
 18 19  1  0  0  0  0
 19 44  1  0  0  0  0
 19 45  1  0  0  0  0
 19 46  1  0  0  0  0
 20 21  2  0  0  0  0
 20 22  2  0  0  0  0
 20 23  1  0  0  0  0
 23 28  1  0  0  0  0
 23 24  1  0  0  0  0
 24 25  1  0  0  0  0
 24 47  1  0  0  0  0
 24 48  1  0  0  0  0
 25 26  1  0  0  0  0
 25 49  1  0  0  0  0
 25 50  1  0  0  0  0
 26 27  1  0  0  0  0
 27 28  1  0  0  0  0
 27 51  1  0  0  0  0
 27 52  1  0  0  0  0
 28 53  1  0  0  0  0
 28 54  1  0  0  0  0
M  END
> <Name>
ZINC15910386

> <reference>
BDB4946

> <quality>
0.736

> <status>
decoy

> <atoms in reference ligand area>
13

> <score>
-27.3204

$$$$
ZINC01635054
      BALL 1.4.0 (Jan  4 2012, 23:22:29)

 41 41  0999  0  0  0  0  0  0999 V2000
    5.2322    8.6537    5.6447 C   0  0  0  0  0  0  0  0  0  0  0  0
    5.3478    9.1012    3.2679 C   0  0  0  0  0  0  0  0  0  0  0  0
    7.1636    7.9397    4.3709 C   0  0  0  0  0  0  0  0  0  0  0  0
    7.4927    6.9033    5.4472 C   0  0  0  0  0  0  0  0  0  0  0  0
    8.7456    7.3397    6.2092 C   0  0  0  0  0  0  0  0  0  0  0  0
    9.3658    8.4742    5.5203 N   0  0  0  0  0  0  0  0  0  0  0  0
   10.5892    8.9009    5.8914 C   0  0  0  0  0  0  0  0  0  0  0  0
   11.0253    8.6156    6.9901 O   0  0  0  0  0  0  0  0  0  0  0  0
   11.3292    9.6441    5.0448 N   0  0  0  0  0  0  0  0  0  0  0  0
   10.8267    9.9728    3.7791 N   0  0  0  0  0  0  0  0  0  0  0  0
    9.5483   10.1053    3.6030 C   0  0  0  0  0  0  0  0  0  0  0  0
    9.0193   10.4514    2.2703 C   0  0  0  0  0  0  0  0  0  0  0  0
    9.8895   10.8413    1.2494 C   0  0  0  0  0  0  0  0  0  0  0  0
    9.3884   11.1583    0.0043 C   0  0  0  0  0  0  0  0  0  0  0  0
    8.0260   11.1017   -0.2318 C   0  0  0  0  0  0  0  0  0  0  0  0
    7.1583   10.7169    0.7746 C   0  0  0  0  0  0  0  0  0  0  0  0
    7.6460   10.3913    2.0234 C   0  0  0  0  0  0  0  0  0  0  0  0
    5.7031   10.6538    0.5109 N   0  0  0  0  0  0  0  0  0  0  0  0
    4.9138   11.0354    1.3565 O   0  0  0  0  0  0  0  0  0  0  0  0
    5.2949   10.2205   -0.5518 O   0  0  0  0  0  0  0  0  0  0  0  0
    5.7002    8.1447    4.3382 N   0  3  0  0  0  0  0  0  0  0  0  0
    4.1769    8.9528    5.5615 H   0  0  0  0  0  0  0  0  0  0  0  0
    5.8365    9.5267    5.9324 H   0  0  0  0  0  0  0  0  0  0  0  0
    5.3336    7.8676    6.4074 H   0  0  0  0  0  0  0  0  0  0  0  0
    5.1917    8.5529    2.3272 H   0  0  0  0  0  0  0  0  0  0  0  0
    6.1699    9.8205    3.1378 H   0  0  0  0  0  0  0  0  0  0  0  0
    4.4270    9.6388    3.5385 H   0  0  0  0  0  0  0  0  0  0  0  0
    7.5058    7.5759    3.3909 H   0  0  0  0  0  0  0  0  0  0  0  0
    7.6630    8.8902    4.6099 H   0  0  0  0  0  0  0  0  0  0  0  0
    6.6484    6.8209    6.1474 H   0  0  0  0  0  0  0  0  0  0  0  0
    7.6736    5.9267    4.9743 H   0  0  0  0  0  0  0  0  0  0  0  0
    8.4680    7.6389    7.2307 H   0  0  0  0  0  0  0  0  0  0  0  0
    9.4593    6.5038    6.2531 H   0  0  0  0  0  0  0  0  0  0  0  0
    8.8669    8.9457    4.7523 H   0  0  0  0  0  0  0  0  0  0  0  0
   12.2641    9.9703    5.3285 H   0  0  0  0  0  0  0  0  0  0  0  0
    8.8588    9.9595    4.4475 H   0  0  0  0  0  0  0  0  0  0  0  0
   10.9718   10.8953    1.4382 H   0  0  0  0  0  0  0  0  0  0  0  0
   10.0733   11.4568   -0.8031 H   0  0  0  0  0  0  0  0  0  0  0  0
    7.6311   11.3638   -1.2245 H   0  0  0  0  0  0  0  0  0  0  0  0
    6.9550   10.0852    2.8225 H   0  0  0  0  0  0  0  0  0  0  0  0
    5.2403    7.2433    4.1460 H   0  0  0  0  0  0  0  0  0  0  0  0
  1 21  1  0  0  0  0
  1 22  1  0  0  0  0
  1 23  1  0  0  0  0
  1 24  1  0  0  0  0
  2 21  1  0  0  0  0
  2 25  1  0  0  0  0
  2 26  1  0  0  0  0
  2 27  1  0  0  0  0
  3  4  1  0  0  0  0
  3 21  1  0  0  0  0
  3 28  1  0  0  0  0
  3 29  1  0  0  0  0
  4  5  1  0  0  0  0
  4 30  1  0  0  0  0
  4 31  1  0  0  0  0
  5  6  1  0  0  0  0
  5 32  1  0  0  0  0
  5 33  1  0  0  0  0
  6  7  1  0  0  0  0
  6 34  1  0  0  0  0
  7  8  2  0  0  0  0
  7  9  1  0  0  0  0
  9 10  1  0  0  0  0
  9 35  1  0  0  0  0
 10 11  2  0  0  0  0
 11 12  1  0  0  0  0
 11 36  1  0  0  0  0
 12 17  2  0  0  0  0
 12 13  1  0  0  0  0
 13 14  2  0  0  0  0
 13 37  1  0  0  0  0
 14 15  1  0  0  0  0
 14 38  1  0  0  0  0
 15 16  2  0  0  0  0
 15 39  1  0  0  0  0
 16 17  1  0  0  0  0
 16 18  1  0  0  0  0
 17 40  1  0  0  0  0
 18 19  2  0  0  0  0
 18 20  2  0  0  0  0
 21 41  1  0  0  0  0
M  END
> <Name>
ZINC01635054

> <reference>
BDB5222

> <quality>
0.757

> <status>
decoy

> <atoms in reference ligand area>
11

> <score>
-27.3012

$$$$
ZINC11661273
      BALL 1.4.0 (Jan  4 2012, 23:22:29)

 41 42  0999  0  0  0  0  0  0999 V2000
    6.3440    8.0042    2.1472 C   0  0  0  0  0  0  0  0  0  0  0  0
    5.6656    8.6697    0.9776 C   0  0  0  0  0  0  0  0  0  0  0  0
    5.5188   10.0661    0.8029 C   0  0  0  0  0  0  0  0  0  0  0  0
    4.8904   10.2945   -0.3163 N   0  0  0  0  0  0  0  0  0  0  0  0
    4.6020    9.0364   -0.9047 O   0  0  0  0  0  0  0  0  0  0  0  0
    5.1204    8.0515   -0.0255 N   0  0  0  0  0  0  0  0  0  0  0  0
    5.9665   11.0171    1.6613 O   0  0  0  0  0  0  0  0  0  0  0  0
    7.3253   10.9145    2.0919 C   0  0  0  0  0  0  0  0  0  0  0  0
    7.9510   12.3098    2.1422 C   0  0  0  0  0  0  0  0  0  0  0  0
    9.7173   13.6151    1.1229 C   0  0  0  0  0  0  0  0  0  0  0  0
   11.0409   13.5176    0.3618 C   0  0  0  0  0  0  0  0  0  0  0  0
   10.8742   12.5698   -0.8286 C   0  0  0  0  0  0  0  0  0  0  0  0
   12.1104   12.6979   -1.7270 C   0  0  0  0  0  0  0  0  0  0  0  0
   12.1136   14.0902   -2.3595 C   0  0  0  0  0  0  0  0  0  0  0  0
   11.9371   15.1150   -1.3382 N   0  0  0  0  0  0  0  0  0  0  0  0
   11.4391   14.8819   -0.1234 C   0  0  0  0  0  0  0  0  0  0  0  0
   11.3007   15.8221    0.6304 O   0  0  0  0  0  0  0  0  0  0  0  0
   12.3319   16.4870   -1.6667 C   0  0  0  0  0  0  0  0  0  0  0  0
   12.0531   13.0094    1.2330 O   0  0  0  0  0  0  0  0  0  0  0  0
    9.2896   12.2616    1.5245 N   0  3  0  0  0  0  0  0  0  0  0  0
    7.2623    8.5967    2.2727 H   0  0  0  0  0  0  0  0  0  0  0  0
    6.6570    7.0337    1.7346 H   0  0  0  0  0  0  0  0  0  0  0  0
    5.7420    7.9217    3.0641 H   0  0  0  0  0  0  0  0  0  0  0  0
    7.8883   10.2862    1.3860 H   0  0  0  0  0  0  0  0  0  0  0  0
    7.3594   10.4615    3.0936 H   0  0  0  0  0  0  0  0  0  0  0  0
    7.3165   13.0175    1.5886 H   0  0  0  0  0  0  0  0  0  0  0  0
    8.0416   12.6355    3.1890 H   0  0  0  0  0  0  0  0  0  0  0  0
    9.8537   14.2379    2.0193 H   0  0  0  0  0  0  0  0  0  0  0  0
    8.9512   14.0645    0.4740 H   0  0  0  0  0  0  0  0  0  0  0  0
   10.7870   11.5346   -0.4671 H   0  0  0  0  0  0  0  0  0  0  0  0
    9.9745   12.8454   -1.3983 H   0  0  0  0  0  0  0  0  0  0  0  0
   12.0732   11.9346   -2.5180 H   0  0  0  0  0  0  0  0  0  0  0  0
   13.0203   12.5659   -1.1231 H   0  0  0  0  0  0  0  0  0  0  0  0
   13.0708   14.2535   -2.8762 H   0  0  0  0  0  0  0  0  0  0  0  0
   11.2948   14.1613   -3.0905 H   0  0  0  0  0  0  0  0  0  0  0  0
   11.4546   17.1121   -1.4441 H   0  0  0  0  0  0  0  0  0  0  0  0
   12.4804   16.5026   -2.7566 H   0  0  0  0  0  0  0  0  0  0  0  0
   13.2271   16.8250   -1.1241 H   0  0  0  0  0  0  0  0  0  0  0  0
   12.3894   13.7390    1.8116 H   0  0  0  0  0  0  0  0  0  0  0  0
    9.9645   11.8778    2.2014 H   0  0  0  0  0  0  0  0  0  0  0  0
    9.2618   11.6528    0.6941 H   0  0  0  0  0  0  0  0  0  0  0  0
  1  2  1  0  0  0  0
  1 21  1  0  0  0  0
  1 22  1  0  0  0  0
  1 23  1  0  0  0  0
  2  6  2  0  0  0  0
  2  3  1  0  0  0  0
  3  4  2  0  0  0  0
  3  7  1  0  0  0  0
  4  5  1  0  0  0  0
  5  6  1  0  0  0  0
  7  8  1  0  0  0  0
  8  9  1  0  0  0  0
  8 24  1  0  0  0  0
  8 25  1  0  0  0  0
  9 20  1  0  0  0  0
  9 26  1  0  0  0  0
  9 27  1  0  0  0  0
 10 11  1  0  0  0  0
 10 20  1  0  0  0  0
 10 28  1  0  0  0  0
 10 29  1  0  0  0  0
 11 16  1  0  0  0  0
 11 12  1  0  0  0  0
 11 19  1  0  0  0  0
 12 13  1  0  0  0  0
 12 30  1  0  0  0  0
 12 31  1  0  0  0  0
 13 14  1  0  0  0  0
 13 32  1  0  0  0  0
 13 33  1  0  0  0  0
 14 15  1  0  0  0  0
 14 34  1  0  0  0  0
 14 35  1  0  0  0  0
 15 16  1  0  0  0  0
 15 18  1  0  0  0  0
 16 17  2  0  0  0  0
 18 36  1  0  0  0  0
 18 37  1  0  0  0  0
 18 38  1  0  0  0  0
 19 39  1  0  0  0  0
 20 40  1  0  0  0  0
 20 41  1  0  0  0  0
M  END
> <Name>
ZINC11661273

> <reference>
BDB5232

> <quality>
0.754

> <status>
decoy

> <atoms in reference ligand area>
22

> <score>
-27.2413

$$$$
ZINC29471577
      BALL 1.4.0 (Jan  4 2012, 23:22:29)

 44 44  0999  0  0  0  0  0  0999 V2000
   10.2927   12.8593   -3.5385 C   0  0  0  0  0  0  0  0  0  0  0  0
   10.6533   14.0182   -2.6068 C   0  0  0  0  0  0  0  0  0  0  0  0
   12.0312   13.7673   -1.9906 C   0  0  0  0  0  0  0  0  0  0  0  0
   12.5555   15.0634   -1.3691 C   0  0  0  0  0  0  0  0  0  0  0  0
   11.9226   12.7378   -0.9541 N   0  3  0  0  0  0  0  0  0  0  0  0
   10.8427   12.6555   -0.2273 C   0  0  0  0  0  0  0  0  0  0  0  0
    9.8537   13.6032   -0.3551 N   0  0  0  0  0  0  0  0  0  0  0  0
   10.6507   11.3307    0.9183 S   0  0  0  0  0  0  0  0  0  0  0  0
    8.8969   10.9559    0.6743 C   0  0  0  0  0  0  0  0  0  0  0  0
    8.4955    9.8190    1.5784 C   0  0  0  0  0  0  0  0  0  0  0  0
    9.3416    9.0798    2.0352 O   0  0  0  0  0  0  0  0  0  0  0  0
    7.1964    9.6236    1.8794 N   0  0  0  0  0  0  0  0  0  0  0  0
    6.1584   10.3694    1.1633 C   0  0  0  0  0  0  0  0  0  0  0  0
    6.8223    8.6655    2.9226 C   0  0  0  0  0  0  0  0  0  0  0  0
    7.6436    8.9353    4.1943 C   0  0  0  0  0  0  0  0  0  0  0  0
    7.0412    8.1546    5.3871 C   0  0  0  0  0  0  0  0  0  0  0  0
    5.2647    8.0249    4.9292 S   0  0  0  0  0  0  0  0  0  0  0  0
    4.9286    6.6541    4.7643 O   0  0  0  0  0  0  0  0  0  0  0  0
    4.4992    8.8310    5.8143 O   0  0  0  0  0  0  0  0  0  0  0  0
    5.3165    8.8331    3.2744 C   0  0  0  0  0  0  0  0  0  0  0  0
    9.3935   13.1184   -4.1166 H   0  0  0  0  0  0  0  0  0  0  0  0
   10.0972   11.9557   -2.9426 H   0  0  0  0  0  0  0  0  0  0  0  0
   11.1283   12.6688   -4.2281 H   0  0  0  0  0  0  0  0  0  0  0  0
    9.9027   14.0937   -1.8063 H   0  0  0  0  0  0  0  0  0  0  0  0
   10.6740   14.9568   -3.1799 H   0  0  0  0  0  0  0  0  0  0  0  0
   12.7264   13.4283   -2.7728 H   0  0  0  0  0  0  0  0  0  0  0  0
   13.5019   15.3466   -1.8529 H   0  0  0  0  0  0  0  0  0  0  0  0
   12.7252   14.9127   -0.2928 H   0  0  0  0  0  0  0  0  0  0  0  0
   11.8166   15.8654   -1.5138 H   0  0  0  0  0  0  0  0  0  0  0  0
   12.6989   12.0789   -0.7994 H   0  0  0  0  0  0  0  0  0  0  0  0
    9.8037   14.1841   -1.2042 H   0  0  0  0  0  0  0  0  0  0  0  0
    9.1632   13.7318    0.3983 H   0  0  0  0  0  0  0  0  0  0  0  0
    8.7246   10.6685   -0.3734 H   0  0  0  0  0  0  0  0  0  0  0  0
    8.2949   11.8447    0.9145 H   0  0  0  0  0  0  0  0  0  0  0  0
    6.6573   10.7656    0.2665 H   0  0  0  0  0  0  0  0  0  0  0  0
    5.9228   11.2266    1.8111 H   0  0  0  0  0  0  0  0  0  0  0  0
    5.2684    9.7711    0.9187 H   0  0  0  0  0  0  0  0  0  0  0  0
    7.0162    7.6481    2.5523 H   0  0  0  0  0  0  0  0  0  0  0  0
    8.6827    8.6121    4.0339 H   0  0  0  0  0  0  0  0  0  0  0  0
    7.6290   10.0122    4.4185 H   0  0  0  0  0  0  0  0  0  0  0  0
    7.1456    8.7300    6.3188 H   0  0  0  0  0  0  0  0  0  0  0  0
    7.4840    7.1499    5.4542 H   0  0  0  0  0  0  0  0  0  0  0  0
    4.6842    8.2779    2.5659 H   0  0  0  0  0  0  0  0  0  0  0  0
    5.0528    9.8969    3.3679 H   0  0  0  0  0  0  0  0  0  0  0  0
  1  2  1  0  0  0  0
  1 21  1  0  0  0  0
  1 22  1  0  0  0  0
  1 23  1  0  0  0  0
  2  3  1  0  0  0  0
  2 24  1  0  0  0  0
  2 25  1  0  0  0  0
  3  4  1  0  0  0  0
  3  5  1  0  0  0  0
  3 26  1  0  0  0  0
  4 27  1  0  0  0  0
  4 28  1  0  0  0  0
  4 29  1  0  0  0  0
  5  6  2  0  0  0  0
  5 30  1  0  0  0  0
  6  7  1  0  0  0  0
  6  8  1  0  0  0  0
  7 31  1  0  0  0  0
  7 32  1  0  0  0  0
  8  9  1  0  0  0  0
  9 10  1  0  0  0  0
  9 33  1  0  0  0  0
  9 34  1  0  0  0  0
 10 11  2  0  0  0  0
 10 12  1  0  0  0  0
 12 13  1  0  0  0  0
 12 14  1  0  0  0  0
 13 35  1  0  0  0  0
 13 36  1  0  0  0  0
 13 37  1  0  0  0  0
 14 20  1  0  0  0  0
 14 15  1  0  0  0  0
 14 38  1  0  0  0  0
 15 16  1  0  0  0  0
 15 39  1  0  0  0  0
 15 40  1  0  0  0  0
 16 17  1  0  0  0  0
 16 41  1  0  0  0  0
 16 42  1  0  0  0  0
 17 18  2  0  0  0  0
 17 19  2  0  0  0  0
 17 20  1  0  0  0  0
 20 43  1  0  0  0  0
 20 44  1  0  0  0  0
M  END
> <Name>
ZINC29471577

> <reference>
BDB5198

> <quality>
0.748

> <status>
decoy

> <atoms in reference ligand area>
19

> <score>
-27.1085

$$$$
ZINC07699012
      BALL 1.4.0 (Jan  4 2012, 23:22:29)

 40 41  0999  0  0  0  0  0  0999 V2000
    8.8653   13.9403   -3.5162 C   0  0  0  0  0  0  0  0  0  0  0  0
    8.7001   12.7110   -2.8067 O   0  0  0  0  0  0  0  0  0  0  0  0
    7.8594   12.8128   -1.6555 C   0  0  0  0  0  0  0  0  0  0  0  0
    8.5659   12.1871   -0.4512 C   0  0  0  0  0  0  0  0  0  0  0  0
    7.5949   11.9645    0.6229 N   0  0  0  0  0  0  0  0  0  0  0  0
    7.8661   11.0810    1.6040 C   0  0  0  0  0  0  0  0  0  0  0  0
    9.0140   10.7438    1.8179 O   0  0  0  0  0  0  0  0  0  0  0  0
    6.8643   10.5715    2.3479 N   0  0  0  0  0  0  0  0  0  0  0  0
    7.1035    9.5450    3.1878 C   0  0  0  0  0  0  0  0  0  0  0  0
    8.2198    9.0799    3.2743 O   0  0  0  0  0  0  0  0  0  0  0  0
    5.9835    8.9753    4.0196 C   0  0  0  0  0  0  0  0  0  0  0  0
    5.3629    7.4589    3.2411 S   0  0  0  0  0  0  0  0  0  0  0  0
    3.7581    7.2482    3.9373 C   0  0  0  0  0  0  0  0  0  0  0  0
    3.3556    8.0370    5.0078 C   0  0  0  0  0  0  0  0  0  0  0  0
    2.0983    7.8705    5.5548 C   0  0  0  0  0  0  0  0  0  0  0  0
    1.2341    6.9165    5.0382 C   0  0  0  0  0  0  0  0  0  0  0  0
    1.6324    6.1275    3.9655 C   0  0  0  0  0  0  0  0  0  0  0  0
    2.8949    6.2935    3.4169 C   0  0  0  0  0  0  0  0  0  0  0  0
    0.7948    5.1922    3.4399 O   0  0  0  0  0  0  0  0  0  0  0  0
   -0.3176    4.7961    4.2494 C   0  0  0  0  0  0  0  0  0  0  0  0
   -0.9749    6.0620    4.8157 C   0  0  0  0  0  0  0  0  0  0  0  0
    0.0010    6.7614    5.5966 O   0  0  0  0  0  0  0  0  0  0  0  0
    7.9356   14.5169   -3.4016 H   0  0  0  0  0  0  0  0  0  0  0  0
    8.9930   13.6942   -4.5807 H   0  0  0  0  0  0  0  0  0  0  0  0
    9.7277   14.5108   -3.1410 H   0  0  0  0  0  0  0  0  0  0  0  0
    6.9144   12.2815   -1.8421 H   0  0  0  0  0  0  0  0  0  0  0  0
    7.6495   13.8722   -1.4471 H   0  0  0  0  0  0  0  0  0  0  0  0
    9.0122   11.2260   -0.7463 H   0  0  0  0  0  0  0  0  0  0  0  0
    9.3562   12.8646   -0.0955 H   0  0  0  0  0  0  0  0  0  0  0  0
    6.7051   12.4832    0.6284 H   0  0  0  0  0  0  0  0  0  0  0  0
    5.9160   10.9665    2.2744 H   0  0  0  0  0  0  0  0  0  0  0  0
    6.3569    8.7427    5.0278 H   0  0  0  0  0  0  0  0  0  0  0  0
    5.1679    9.7099    4.0911 H   0  0  0  0  0  0  0  0  0  0  0  0
    4.0386    8.7944    5.4200 H   0  0  0  0  0  0  0  0  0  0  0  0
    1.7815    8.4962    6.4023 H   0  0  0  0  0  0  0  0  0  0  0  0
    3.2126    5.6687    2.5692 H   0  0  0  0  0  0  0  0  0  0  0  0
   -1.0455    4.2461    3.6349 H   0  0  0  0  0  0  0  0  0  0  0  0
    0.0326    4.1611    5.0766 H   0  0  0  0  0  0  0  0  0  0  0  0
   -1.8274    5.7836    5.4527 H   0  0  0  0  0  0  0  0  0  0  0  0
   -1.3155    6.7029    3.9892 H   0  0  0  0  0  0  0  0  0  0  0  0
  1  2  1  0  0  0  0
  1 23  1  0  0  0  0
  1 24  1  0  0  0  0
  1 25  1  0  0  0  0
  2  3  1  0  0  0  0
  3  4  1  0  0  0  0
  3 26  1  0  0  0  0
  3 27  1  0  0  0  0
  4  5  1  0  0  0  0
  4 28  1  0  0  0  0
  4 29  1  0  0  0  0
  5  6  1  0  0  0  0
  5 30  1  0  0  0  0
  6  7  2  0  0  0  0
  6  8  1  0  0  0  0
  8  9  1  0  0  0  0
  8 31  1  0  0  0  0
  9 10  2  0  0  0  0
  9 11  1  0  0  0  0
 11 12  1  0  0  0  0
 11 32  1  0  0  0  0
 11 33  1  0  0  0  0
 12 13  1  0  0  0  0
 13 18  2  0  0  0  0
 13 14  1  0  0  0  0
 14 15  2  0  0  0  0
 14 34  1  0  0  0  0
 15 16  1  0  0  0  0
 15 35  1  0  0  0  0
 16 22  1  0  0  0  0
 16 17  2  0  0  0  0
 17 18  1  0  0  0  0
 17 19  1  0  0  0  0
 18 36  1  0  0  0  0
 19 20  1  0  0  0  0
 20 21  1  0  0  0  0
 20 37  1  0  0  0  0
 20 38  1  0  0  0  0
 21 22  1  0  0  0  0
 21 39  1  0  0  0  0
 21 40  1  0  0  0  0
M  END
> <Name>
ZINC07699012

> <reference>
BDB5198

> <quality>
0.726

> <status>
decoy

> <atoms in reference ligand area>
17

> <score>
-26.9186

$$$$
ZINC00399536
      BALL 1.4.0 (Jan  4 2012, 23:22:29)

 40 41  0999  0  0  0  0  0  0999 V2000
   18.8469   10.2680    9.8296 C   0  0  0  0  0  0  0  0  0  0  0  0
   19.3985   10.0503    8.5810 C   0  0  0  0  0  0  0  0  0  0  0  0
   18.5939   10.0692    7.4571 C   0  0  0  0  0  0  0  0  0  0  0  0
   17.2377   10.3064    7.5818 C   0  0  0  0  0  0  0  0  0  0  0  0
   16.6871   10.5299    8.8299 C   0  0  0  0  0  0  0  0  0  0  0  0
   17.4908   10.5056    9.9543 C   0  0  0  0  0  0  0  0  0  0  0  0
   16.3607   10.3276    6.3565 C   0  0  0  0  0  0  0  0  0  0  0  0
   15.5484   11.5311    6.3635 O   0  0  0  0  0  0  0  0  0  0  0  0
   14.8601   11.8100    5.2415 C   0  0  0  0  0  0  0  0  0  0  0  0
   14.7789   12.9561    4.8482 O   0  0  0  0  0  0  0  0  0  0  0  0
   14.2665   10.8183    4.5521 O   0  0  0  0  0  0  0  0  0  0  0  0
   13.3458   11.1802    3.6197 C   0  0  0  0  0  0  0  0  0  0  0  0
   12.3246   10.3064    3.2761 C   0  0  0  0  0  0  0  0  0  0  0  0
   11.3877   10.6782    2.3313 C   0  0  0  0  0  0  0  0  0  0  0  0
   11.4731   11.9159    1.7212 C   0  0  0  0  0  0  0  0  0  0  0  0
   12.4928   12.7867    2.0585 C   0  0  0  0  0  0  0  0  0  0  0  0
   13.4293   12.4216    3.0061 C   0  0  0  0  0  0  0  0  0  0  0  0
   10.4534   12.3165    0.6864 C   0  0  0  0  0  0  0  0  0  0  0  0
   11.0391   12.1129   -0.7123 C   0  0  0  0  0  0  0  0  0  0  0  0
    9.9801   12.3959   -1.7464 C   0  0  0  0  0  0  0  0  0  0  0  0
   10.2989   12.6488   -2.8841 O   0  0  0  0  0  0  0  0  0  0  0  0
    8.6826   12.3669   -1.4037 O   0  5  0  0  0  0  0  0  0  0  0  0
   12.1857   13.0216   -0.8879 N   0  3  0  0  0  0  0  0  0  0  0  0
   19.4871   10.2521   10.7240 H   0  0  0  0  0  0  0  0  0  0  0  0
   20.4776    9.8620    8.4817 H   0  0  0  0  0  0  0  0  0  0  0  0
   19.0328    9.8955    6.4635 H   0  0  0  0  0  0  0  0  0  0  0  0
   15.6094   10.7269    8.9283 H   0  0  0  0  0  0  0  0  0  0  0  0
   17.0513   10.6755   10.9483 H   0  0  0  0  0  0  0  0  0  0  0  0
   16.9902   10.3160    5.4545 H   0  0  0  0  0  0  0  0  0  0  0  0
   15.7056    9.4439    6.3579 H   0  0  0  0  0  0  0  0  0  0  0  0
   12.2609    9.3185    3.7554 H   0  0  0  0  0  0  0  0  0  0  0  0
   10.5732    9.9888    2.0643 H   0  0  0  0  0  0  0  0  0  0  0  0
   12.5584   13.7710    1.5719 H   0  0  0  0  0  0  0  0  0  0  0  0
   14.2405   13.1145    3.2740 H   0  0  0  0  0  0  0  0  0  0  0  0
   10.1887   13.3756    0.8216 H   0  0  0  0  0  0  0  0  0  0  0  0
    9.5524   11.6959    0.7999 H   0  0  0  0  0  0  0  0  0  0  0  0
   11.3797   11.0740   -0.8329 H   0  0  0  0  0  0  0  0  0  0  0  0
   12.2247   13.6888   -0.1042 H   0  0  0  0  0  0  0  0  0  0  0  0
   12.0893   13.5366   -1.7748 H   0  0  0  0  0  0  0  0  0  0  0  0
   13.0558   12.4708   -0.9082 H   0  0  0  0  0  0  0  0  0  0  0  0
  1  6  2  0  0  0  0
  1  2  1  0  0  0  0
  1 24  1  0  0  0  0
  2  3  2  0  0  0  0
  2 25  1  0  0  0  0
  3  4  1  0  0  0  0
  3 26  1  0  0  0  0
  4  5  2  0  0  0  0
  4  7  1  0  0  0  0
  5  6  1  0  0  0  0
  5 27  1  0  0  0  0
  6 28  1  0  0  0  0
  7  8  1  0  0  0  0
  7 29  1  0  0  0  0
  7 30  1  0  0  0  0
  8  9  1  0  0  0  0
  9 10  2  0  0  0  0
  9 11  1  0  0  0  0
 11 12  1  0  0  0  0
 12 17  2  0  0  0  0
 12 13  1  0  0  0  0
 13 14  2  0  0  0  0
 13 31  1  0  0  0  0
 14 15  1  0  0  0  0
 14 32  1  0  0  0  0
 15 16  2  0  0  0  0
 15 18  1  0  0  0  0
 16 17  1  0  0  0  0
 16 33  1  0  0  0  0
 17 34  1  0  0  0  0
 18 19  1  0  0  0  0
 18 35  1  0  0  0  0
 18 36  1  0  0  0  0
 19 20  1  0  0  0  0
 19 23  1  0  0  0  0
 19 37  1  0  0  0  0
 20 21  2  0  0  0  0
 20 22  1  0  0  0  0
 23 38  1  0  0  0  0
 23 39  1  0  0  0  0
 23 40  1  0  0  0  0
M  END
> <Name>
ZINC00399536

> <reference>
BDB5023

> <quality>
0.670

> <status>
decoy

> <atoms in reference ligand area>
12

> <score>
-26.8717

$$$$
ZINC18517895
      BALL 1.4.0 (Jan  4 2012, 23:22:29)

 50 52  0999  0  0  0  0  0  0999 V2000
   12.3690   13.7149   -2.0430 C   0  0  0  0  0  0  0  0  0  0  0  0
   12.3774   14.2851   -0.7831 C   0  0  0  0  0  0  0  0  0  0  0  0
   11.5231   13.8151    0.1949 C   0  0  0  0  0  0  0  0  0  0  0  0
   10.6545   12.7691   -0.0882 C   0  0  0  0  0  0  0  0  0  0  0  0
   10.6519   12.1955   -1.3528 C   0  0  0  0  0  0  0  0  0  0  0  0
   11.5054   12.6732   -2.3278 C   0  0  0  0  0  0  0  0  0  0  0  0
    9.7871   12.2898    0.9017 N   0  0  0  0  0  0  0  0  0  0  0  0
    9.8193   11.0473    1.4566 C   0  0  0  0  0  0  0  0  0  0  0  0
    8.7774   11.0017    2.3966 C   0  0  0  0  0  0  0  0  0  0  0  0
    8.1374   12.2551    2.3724 C   0  0  0  0  0  0  0  0  0  0  0  0
    8.7377   13.0065    1.4904 N   0  0  0  0  0  0  0  0  0  0  0  0
    8.5825    9.7630    3.1495 C   0  0  0  0  0  0  0  0  0  0  0  0
    7.6964    9.6605    3.9794 O   0  0  0  0  0  0  0  0  0  0  0  0
    9.4237    8.7347    2.8901 N   0  0  0  0  0  0  0  0  0  0  0  0
   10.4043    8.8704    1.9619 C   0  0  0  0  0  0  0  0  0  0  0  0
   10.5924    9.9645    1.2835 N   0  0  0  0  0  0  0  0  0  0  0  0
   11.3179    7.6998    1.7055 C   0  0  0  0  0  0  0  0  0  0  0  0
   12.7506    8.2028    1.5169 C   0  0  0  0  0  0  0  0  0  0  0  0
   13.5594    7.1562    0.7945 C   0  0  0  0  0  0  0  0  0  0  0  0
   14.7659    7.1757    0.8569 O   0  0  0  0  0  0  0  0  0  0  0  0
   12.9394    6.2025    0.0819 O   0  0  0  0  0  0  0  0  0  0  0  0
   13.6490    5.6735   -1.0692 C   0  0  0  0  0  0  0  0  0  0  0  0
   12.7183    4.8077   -1.8786 C   0  0  0  0  0  0  0  0  0  0  0  0
   11.5704    4.6519   -1.5208 O   0  0  0  0  0  0  0  0  0  0  0  0
   13.1619    4.2066   -3.0003 N   0  0  0  0  0  0  0  0  0  0  0  0
   12.3296    3.4323   -3.7243 C   0  0  0  0  0  0  0  0  0  0  0  0
   11.1265    3.5517   -3.6000 O   0  0  0  0  0  0  0  0  0  0  0  0
   12.8314    2.5257   -4.5860 N   0  0  0  0  0  0  0  0  0  0  0  0
   11.9946    2.0031   -5.6691 C   0  0  0  0  0  0  0  0  0  0  0  0
   12.8604    1.1954   -6.6381 C   0  0  0  0  0  0  0  0  0  0  0  0
   14.0445    0.8136   -5.9985 F   0  0  0  0  0  0  0  0  0  0  0  0
   12.1621    0.0541   -7.0469 F   0  0  0  0  0  0  0  0  0  0  0  0
   13.1660    1.9801   -7.7554 F   0  0  0  0  0  0  0  0  0  0  0  0
   13.0506   14.0909   -2.8201 H   0  0  0  0  0  0  0  0  0  0  0  0
   13.0654   15.1138   -0.5596 H   0  0  0  0  0  0  0  0  0  0  0  0
   11.5305   14.2687    1.1970 H   0  0  0  0  0  0  0  0  0  0  0  0
    9.9708   11.3616   -1.5778 H   0  0  0  0  0  0  0  0  0  0  0  0
   11.4983   12.2245   -3.3321 H   0  0  0  0  0  0  0  0  0  0  0  0
    7.2776   12.5509    2.9915 H   0  0  0  0  0  0  0  0  0  0  0  0
    9.3191    7.8455    3.3993 H   0  0  0  0  0  0  0  0  0  0  0  0
   11.2815    7.0114    2.5626 H   0  0  0  0  0  0  0  0  0  0  0  0
   10.9929    7.1717    0.7969 H   0  0  0  0  0  0  0  0  0  0  0  0
   13.2031    8.4010    2.4996 H   0  0  0  0  0  0  0  0  0  0  0  0
   12.7389    9.1297    0.9248 H   0  0  0  0  0  0  0  0  0  0  0  0
   14.5051    5.0722   -0.7292 H   0  0  0  0  0  0  0  0  0  0  0  0
   14.0095    6.5054   -1.6920 H   0  0  0  0  0  0  0  0  0  0  0  0
   14.1371    4.3390   -3.3043 H   0  0  0  0  0  0  0  0  0  0  0  0
   13.8031    2.2002   -4.4832 H   0  0  0  0  0  0  0  0  0  0  0  0
   11.5255    2.8397   -6.2078 H   0  0  0  0  0  0  0  0  0  0  0  0
   11.2130    1.3537   -5.2481 H   0  0  0  0  0  0  0  0  0  0  0  0
  1  6  2  0  0  0  0
  1  2  1  0  0  0  0
  1 34  1  0  0  0  0
  2  3  2  0  0  0  0
  2 35  1  0  0  0  0
  3  4  1  0  0  0  0
  3 36  1  0  0  0  0
  4  5  2  0  0  0  0
  4  7  1  0  0  0  0
  5  6  1  0  0  0  0
  5 37  1  0  0  0  0
  6 38  1  0  0  0  0
  7 11  1  0  0  0  0
  7  8  1  0  0  0  0
  8 16  1  0  0  0  0
  8  9  2  0  0  0  0
  9 10  1  0  0  0  0
  9 12  1  0  0  0  0
 10 11  2  0  0  0  0
 10 39  1  0  0  0  0
 12 13  2  0  0  0  0
 12 14  1  0  0  0  0
 14 15  1  0  0  0  0
 14 40  1  0  0  0  0
 15 16  2  0  0  0  0
 15 17  1  0  0  0  0
 17 18  1  0  0  0  0
 17 41  1  0  0  0  0
 17 42  1  0  0  0  0
 18 19  1  0  0  0  0
 18 43  1  0  0  0  0
 18 44  1  0  0  0  0
 19 20  2  0  0  0  0
 19 21  1  0  0  0  0
 21 22  1  0  0  0  0
 22 23  1  0  0  0  0
 22 45  1  0  0  0  0
 22 46  1  0  0  0  0
 23 24  2  0  0  0  0
 23 25  1  0  0  0  0
 25 26  1  0  0  0  0
 25 47  1  0  0  0  0
 26 27  2  0  0  0  0
 26 28  1  0  0  0  0
 28 29  1  0  0  0  0
 28 48  1  0  0  0  0
 29 30  1  0  0  0  0
 29 49  1  0  0  0  0
 29 50  1  0  0  0  0
 30 31  1  0  0  0  0
 30 32  1  0  0  0  0
 30 33  1  0  0  0  0
M  END
> <Name>
ZINC18517895

> <reference>
BDB4972

> <quality>
0.698

> <status>
decoy

> <atoms in reference ligand area>
13

> <score>
-26.8392

$$$$
ZINC10329109
      BALL 1.4.0 (Jan  4 2012, 23:22:29)

 42 44  0999  0  0  0  0  0  0999 V2000
   12.8041   15.6049   -1.3284 C   0  0  0  0  0  0  0  0  0  0  0  0
   11.4449   15.6924   -0.6315 C   0  0  0  0  0  0  0  0  0  0  0  0
   11.1819   14.4417    0.0848 N   0  0  0  0  0  0  0  0  0  0  0  0
   10.0020   13.8125   -0.0894 C   0  0  0  0  0  0  0  0  0  0  0  0
    9.1608   14.2802   -0.8369 O   0  0  0  0  0  0  0  0  0  0  0  0
    9.7503   12.6115    0.5993 C   0  0  0  0  0  0  0  0  0  0  0  0
   10.7312   12.1010    1.4478 C   0  0  0  0  0  0  0  0  0  0  0  0
   10.2631   10.9652    1.9748 N   0  0  0  0  0  0  0  0  0  0  0  0
    9.0583   10.7304    1.5235 C   0  0  0  0  0  0  0  0  0  0  0  0
    8.6934   11.7286    0.6615 N   0  0  0  0  0  0  0  0  0  0  0  0
    7.3986   11.7639   -0.0156 C   0  0  0  0  0  0  0  0  0  0  0  0
    6.7060   10.4392    0.1512 C   0  0  0  0  0  0  0  0  0  0  0  0
    7.0813    9.5365    0.9610 N   0  0  0  0  0  0  0  0  0  0  0  0
    8.2042    9.6779    1.7930 N   0  0  0  0  0  0  0  0  0  0  0  0
    8.4588    8.7502    2.8978 C   0  0  0  0  0  0  0  0  0  0  0  0
    8.2437    9.4600    4.2096 C   0  0  0  0  0  0  0  0  0  0  0  0
    8.6174   10.6056    4.3477 O   0  0  0  0  0  0  0  0  0  0  0  0
    7.6361    8.8219    5.2295 N   0  0  0  0  0  0  0  0  0  0  0  0
    7.2572    9.5181    6.3419 N   0  0  0  0  0  0  0  0  0  0  0  0
    5.4898   10.1667   -0.6958 C   0  0  0  0  0  0  0  0  0  0  0  0
   11.9227   12.7940    1.5847 N   0  0  0  0  0  0  0  0  0  0  0  0
   12.1205   13.9395    0.9056 C   0  0  0  0  0  0  0  0  0  0  0  0
   13.1729   14.5341    1.0382 O   0  0  0  0  0  0  0  0  0  0  0  0
   12.9701   12.2791    2.4701 C   0  0  0  0  0  0  0  0  0  0  0  0
   13.3366   14.7059   -0.9843 H   0  0  0  0  0  0  0  0  0  0  0  0
   13.3994   16.4978   -1.0869 H   0  0  0  0  0  0  0  0  0  0  0  0
   12.6559   15.5477   -2.4169 H   0  0  0  0  0  0  0  0  0  0  0  0
   10.6571   15.8572   -1.3813 H   0  0  0  0  0  0  0  0  0  0  0  0
   11.4521   16.5289    0.0828 H   0  0  0  0  0  0  0  0  0  0  0  0
    7.5493   11.9655   -1.0864 H   0  0  0  0  0  0  0  0  0  0  0  0
    6.7775   12.5592    0.4224 H   0  0  0  0  0  0  0  0  0  0  0  0
    9.4963    8.3889    2.8431 H   0  0  0  0  0  0  0  0  0  0  0  0
    7.7690    7.8964    2.8262 H   0  0  0  0  0  0  0  0  0  0  0  0
    7.4575    7.8092    5.1701 H   0  0  0  0  0  0  0  0  0  0  0  0
    7.2929   10.5475    6.3423 H   0  0  0  0  0  0  0  0  0  0  0  0
    6.9357    9.0136    7.1805 H   0  0  0  0  0  0  0  0  0  0  0  0
    5.8711    9.7482   -1.6389 H   0  0  0  0  0  0  0  0  0  0  0  0
    5.0583   11.1525   -0.9239 H   0  0  0  0  0  0  0  0  0  0  0  0
    4.7619    9.4989   -0.2117 H   0  0  0  0  0  0  0  0  0  0  0  0
   13.9171   12.5645    1.9884 H   0  0  0  0  0  0  0  0  0  0  0  0
   12.8886   11.1842    2.4025 H   0  0  0  0  0  0  0  0  0  0  0  0
   12.8992   12.6427    3.5058 H   0  0  0  0  0  0  0  0  0  0  0  0
  1  2  1  0  0  0  0
  1 25  1  0  0  0  0
  1 26  1  0  0  0  0
  1 27  1  0  0  0  0
  2  3  1  0  0  0  0
  2 28  1  0  0  0  0
  2 29  1  0  0  0  0
  3 22  1  0  0  0  0
  3  4  1  0  0  0  0
  4  5  2  0  0  0  0
  4  6  1  0  0  0  0
  6 10  1  0  0  0  0
  6  7  2  0  0  0  0
  7  8  1  0  0  0  0
  7 21  1  0  0  0  0
  8  9  2  0  0  0  0
  9 14  1  0  0  0  0
  9 10  1  0  0  0  0
 10 11  1  0  0  0  0
 11 12  1  0  0  0  0
 11 30  1  0  0  0  0
 11 31  1  0  0  0  0
 12 13  2  0  0  0  0
 12 20  1  0  0  0  0
 13 14  1  0  0  0  0
 14 15  1  0  0  0  0
 15 16  1  0  0  0  0
 15 32  1  0  0  0  0
 15 33  1  0  0  0  0
 16 17  2  0  0  0  0
 16 18  1  0  0  0  0
 18 19  1  0  0  0  0
 18 34  1  0  0  0  0
 19 35  1  0  0  0  0
 19 36  1  0  0  0  0
 20 37  1  0  0  0  0
 20 38  1  0  0  0  0
 20 39  1  0  0  0  0
 21 22  1  0  0  0  0
 21 24  1  0  0  0  0
 22 23  2  0  0  0  0
 24 40  1  0  0  0  0
 24 41  1  0  0  0  0
 24 42  1  0  0  0  0
M  END
> <Name>
ZINC10329109

> <reference>
BDB4977

> <quality>
0.673

> <status>
decoy

> <atoms in reference ligand area>
16

> <score>
-26.8315

$$$$
ZINC06157444
      BALL 1.4.0 (Jan  4 2012, 23:22:29)

 43 45  0999  0  0  0  0  0  0999 V2000
   13.2224   16.0698   -1.2950 C   0  0  0  0  0  0  0  0  0  0  0  0
   11.8213   15.5160   -1.3302 C   0  0  0  0  0  0  0  0  0  0  0  0
   11.2528   14.9991   -0.1798 C   0  0  0  0  0  0  0  0  0  0  0  0
   10.4352   15.8310    0.6509 C   0  0  0  0  0  0  0  0  0  0  0  0
    9.7867   16.4910    1.3100 N   0  0  0  0  0  0  0  0  0  0  0  0
   11.4840   13.6493    0.1794 C   0  0  0  0  0  0  0  0  0  0  0  0
   12.1041   12.9199   -0.5676 O   0  0  0  0  0  0  0  0  0  0  0  0
   10.9604   13.1176    1.4887 C   0  0  0  0  0  0  0  0  0  0  0  0
   10.0390   12.0079    1.2316 N   0  0  0  0  0  0  0  0  0  0  0  0
    8.9043   12.1172    0.5128 C   0  0  0  0  0  0  0  0  0  0  0  0
    8.4700   13.1143   -0.0229 O   0  0  0  0  0  0  0  0  0  0  0  0
    8.2851   10.7336    0.5117 C   0  0  0  0  0  0  0  0  0  0  0  0
    9.2276    9.9319    1.3111 N   0  5  0  0  0  0  0  0  0  0  0  0
   10.2171   10.7624    1.6863 C   0  0  0  0  0  0  0  0  0  0  0  0
   11.1668   10.4195    2.3628 O   0  0  0  0  0  0  0  0  0  0  0  0
    6.9070   10.7647    1.1756 C   0  0  0  0  0  0  0  0  0  0  0  0
    6.3064    9.3828    1.1512 C   0  0  0  0  0  0  0  0  0  0  0  0
    5.6880    8.7628    2.1687 C   0  0  0  0  0  0  0  0  0  0  0  0
    5.2734    7.5197    1.7748 N   0  0  0  0  0  0  0  0  0  0  0  0
    5.6237    7.3039    0.4608 C   0  0  0  0  0  0  0  0  0  0  0  0
    6.2809    8.4638    0.0107 C   0  0  0  0  0  0  0  0  0  0  0  0
    6.7592    8.5292   -1.2991 C   0  0  0  0  0  0  0  0  0  0  0  0
    6.5770    7.4689   -2.1418 C   0  0  0  0  0  0  0  0  0  0  0  0
    5.9243    6.3248   -1.7043 C   0  0  0  0  0  0  0  0  0  0  0  0
    5.4489    6.2368   -0.4140 C   0  0  0  0  0  0  0  0  0  0  0  0
   11.1215   15.5242   -2.4836 N   0  3  0  0  0  0  0  0  0  0  0  0
   13.1302   17.1037   -1.6592 H   0  0  0  0  0  0  0  0  0  0  0  0
   13.7729   15.5033   -2.0606 H   0  0  0  0  0  0  0  0  0  0  0  0
   13.6989   16.0129   -0.3052 H   0  0  0  0  0  0  0  0  0  0  0  0
   10.3796   14.6925   -0.7745 H   0  0  0  0  0  0  0  0  0  0  0  0
   10.4290   13.9179    2.0245 H   0  0  0  0  0  0  0  0  0  0  0  0
   11.8008   12.7609    2.1021 H   0  0  0  0  0  0  0  0  0  0  0  0
    8.1322   10.3309   -0.5005 H   0  0  0  0  0  0  0  0  0  0  0  0
    6.2511   11.4584    0.6292 H   0  0  0  0  0  0  0  0  0  0  0  0
    7.0095   11.1010    2.2179 H   0  0  0  0  0  0  0  0  0  0  0  0
    5.5370    9.1907    3.1707 H   0  0  0  0  0  0  0  0  0  0  0  0
    4.7737    6.8457    2.3723 H   0  0  0  0  0  0  0  0  0  0  0  0
    7.2808    9.4311   -1.6517 H   0  0  0  0  0  0  0  0  0  0  0  0
    6.9506    7.5226   -3.1750 H   0  0  0  0  0  0  0  0  0  0  0  0
    5.7851    5.4798   -2.3946 H   0  0  0  0  0  0  0  0  0  0  0  0
    4.9329    5.3257   -0.0768 H   0  0  0  0  0  0  0  0  0  0  0  0
   11.5448   15.9091   -3.3401 H   0  0  0  0  0  0  0  0  0  0  0  0
   10.1638   15.1457   -2.5076 H   0  0  0  0  0  0  0  0  0  0  0  0
  1  2  1  0  0  0  0
  1 27  1  0  0  0  0
  1 28  1  0  0  0  0
  1 29  1  0  0  0  0
  2  3  1  0  0  0  0
  2 26  2  0  0  0  0
  3  4  1  0  0  0  0
  3  6  1  0  0  0  0
  3 30  1  0  0  0  0
  4  5  3  0  0  0  0
  6  7  2  0  0  0  0
  6  8  1  0  0  0  0
  8  9  1  0  0  0  0
  8 31  1  0  0  0  0
  8 32  1  0  0  0  0
  9 14  1  0  0  0  0
  9 10  1  0  0  0  0
 10 11  2  0  0  0  0
 10 12  1  0  0  0  0
 12 13  1  0  0  0  0
 12 16  1  0  0  0  0
 12 33  1  0  0  0  0
 13 14  1  0  0  0  0
 14 15  2  0  0  0  0
 16 17  1  0  0  0  0
 16 34  1  0  0  0  0
 16 35  1  0  0  0  0
 17 21  1  0  0  0  0
 17 18  2  0  0  0  0
 18 19  1  0  0  0  0
 18 36  1  0  0  0  0
 19 20  1  0  0  0  0
 19 37  1  0  0  0  0
 20 25  2  0  0  0  0
 20 21  1  0  0  0  0
 21 22  2  0  0  0  0
 22 23  1  0  0  0  0
 22 38  1  0  0  0  0
 23 24  2  0  0  0  0
 23 39  1  0  0  0  0
 24 25  1  0  0  0  0
 24 40  1  0  0  0  0
 25 41  1  0  0  0  0
 26 42  1  0  0  0  0
 26 43  1  0  0  0  0
M  END
> <Name>
ZINC06157444

> <reference>
BDB5244

> <quality>
0.665

> <status>
decoy

> <atoms in reference ligand area>
16

> <score>
-26.8176

$$$$
ZINC31687708
      BALL 1.4.0 (Jan  4 2012, 23:22:29)

 31 31  0999  0  0  0  0  0  0999 V2000
    9.1183   14.0448    3.3305 C   0  0  0  0  0  0  0  0  0  0  0  0
    8.6860   12.6517    3.1941 N   0  0  0  0  0  0  0  0  0  0  0  0
    8.1175   12.2192    2.0111 C   0  0  0  0  0  0  0  0  0  0  0  0
    7.7140   10.8937    1.9017 C   0  0  0  0  0  0  0  0  0  0  0  0
    7.8969   10.0404    2.9944 C   0  0  0  0  0  0  0  0  0  0  0  0
    7.5516    8.8725    2.9239 O   0  0  0  0  0  0  0  0  0  0  0  0
    8.4563   10.5128    4.1248 N   0  0  0  0  0  0  0  0  0  0  0  0
    8.8389   11.7979    4.2230 C   0  0  0  0  0  0  0  0  0  0  0  0
    9.3362   12.1949    5.2590 O   0  0  0  0  0  0  0  0  0  0  0  0
    8.6450    9.6144    5.2666 C   0  0  0  0  0  0  0  0  0  0  0  0
    7.9573   13.0657    0.9842 N   0  0  0  0  0  0  0  0  0  0  0  0
    9.0198   13.5405    0.3427 C   0  0  0  0  0  0  0  0  0  0  0  0
   10.2830   13.2124    0.7697 N   0  3  0  0  0  0  0  0  0  0  0  0
    8.8584   14.3394   -0.7209 N   0  0  0  0  0  0  0  0  0  0  0  0
    7.9886   14.0169   -1.6649 C   0  0  0  0  0  0  0  0  0  0  0  0
    7.1771   12.9320   -1.5030 N   0  0  0  0  0  0  0  0  0  0  0  0
    7.9034   14.7694   -2.7999 N   0  0  0  0  0  0  0  0  0  0  0  0
   10.0353   14.1215    2.7278 H   0  0  0  0  0  0  0  0  0  0  0  0
    9.4109   14.1530    4.3854 H   0  0  0  0  0  0  0  0  0  0  0  0
    8.3561   14.7786    3.0295 H   0  0  0  0  0  0  0  0  0  0  0  0
    7.2586   10.5223    0.9718 H   0  0  0  0  0  0  0  0  0  0  0  0
    9.3216   10.1500    5.9488 H   0  0  0  0  0  0  0  0  0  0  0  0
    9.1971    8.7504    4.8682 H   0  0  0  0  0  0  0  0  0  0  0  0
    7.7056    9.3195    5.7569 H   0  0  0  0  0  0  0  0  0  0  0  0
    7.0107   13.3482    0.6925 H   0  0  0  0  0  0  0  0  0  0  0  0
   10.4071   12.5984    1.5873 H   0  0  0  0  0  0  0  0  0  0  0  0
   11.1066   13.5804    0.2724 H   0  0  0  0  0  0  0  0  0  0  0  0
    7.4110   12.0407   -1.9632 H   0  0  0  0  0  0  0  0  0  0  0  0
    6.3306   13.0043   -0.9207 H   0  0  0  0  0  0  0  0  0  0  0  0
    8.2672   15.7330   -2.8075 H   0  0  0  0  0  0  0  0  0  0  0  0
    7.4753   14.3737   -3.6491 H   0  0  0  0  0  0  0  0  0  0  0  0
  1  2  1  0  0  0  0
  1 18  1  0  0  0  0
  1 19  1  0  0  0  0
  1 20  1  0  0  0  0
  2  8  1  0  0  0  0
  2  3  1  0  0  0  0
  3  4  2  0  0  0  0
  3 11  1  0  0  0  0
  4  5  1  0  0  0  0
  4 21  1  0  0  0  0
  5  6  2  0  0  0  0
  5  7  1  0  0  0  0
  7  8  1  0  0  0  0
  7 10  1  0  0  0  0
  8  9  2  0  0  0  0
 10 22  1  0  0  0  0
 10 23  1  0  0  0  0
 10 24  1  0  0  0  0
 11 12  1  0  0  0  0
 11 25  1  0  0  0  0
 12 13  2  0  0  0  0
 12 14  1  0  0  0  0
 13 26  1  0  0  0  0
 13 27  1  0  0  0  0
 14 15  2  0  0  0  0
 15 16  1  0  0  0  0
 15 17  1  0  0  0  0
 16 28  1  0  0  0  0
 16 29  1  0  0  0  0
 17 30  1  0  0  0  0
 17 31  1  0  0  0  0
M  END
> <Name>
ZINC31687708

> <reference>
BDB5008

> <quality>
0.766

> <status>
decoy

> <atoms in reference ligand area>
23

> <score>
-26.7647

$$$$
ZINC06041659
      BALL 1.4.0 (Jan  4 2012, 23:22:29)

 37 38  0999  0  0  0  0  0  0999 V2000
    4.8115    8.4540    4.9897 C   0  0  0  0  0  0  0  0  0  0  0  0
    4.4447    7.3335    4.1421 O   0  0  0  0  0  0  0  0  0  0  0  0
    4.6279    7.4833    2.8208 C   0  0  0  0  0  0  0  0  0  0  0  0
    4.0320    6.7751    2.0442 O   0  0  0  0  0  0  0  0  0  0  0  0
    5.5771    8.5348    2.3062 C   0  0  0  0  0  0  0  0  0  0  0  0
    5.7841    8.3440    0.8686 N   0  0  0  0  0  0  0  0  0  0  0  0
    6.2356    9.6241   -0.0800 S   0  0  0  0  0  0  0  0  0  0  0  0
    5.1215   10.5047   -0.1308 O   0  0  0  0  0  0  0  0  0  0  0  0
    6.8262    9.0745   -1.2498 O   0  0  0  0  0  0  0  0  0  0  0  0
    7.5158   10.4805    0.7757 C   0  0  0  0  0  0  0  0  0  0  0  0
    7.3385   11.8106    1.1274 C   0  0  0  0  0  0  0  0  0  0  0  0
    8.3311   12.4945    1.7978 C   0  0  0  0  0  0  0  0  0  0  0  0
    9.5150   11.8495    2.1232 C   0  0  0  0  0  0  0  0  0  0  0  0
    9.6999   10.5027    1.7695 C   0  0  0  0  0  0  0  0  0  0  0  0
    8.6844    9.8243    1.0905 C   0  0  0  0  0  0  0  0  0  0  0  0
   10.9311   10.1385    2.2137 N   0  0  0  0  0  0  0  0  0  0  0  0
   11.5063   11.1577    2.7990 C   0  0  0  0  0  0  0  0  0  0  0  0
   10.6735   12.2389    2.7735 N   0  0  0  0  0  0  0  0  0  0  0  0
   12.7696   11.1405    3.3651 N   0  0  0  0  0  0  0  0  0  0  0  0
   13.3438   12.2917    3.7671 C   0  0  0  0  0  0  0  0  0  0  0  0
   12.9507   13.3531    3.3255 O   0  0  0  0  0  0  0  0  0  0  0  0
   14.3530   12.2655    4.6577 O   0  0  0  0  0  0  0  0  0  0  0  0
   15.2106   13.4356    4.7167 C   0  0  0  0  0  0  0  0  0  0  0  0
    4.1020    9.2624    4.7592 H   0  0  0  0  0  0  0  0  0  0  0  0
    5.8105    8.7769    4.6615 H   0  0  0  0  0  0  0  0  0  0  0  0
    4.7998    8.1975    6.0593 H   0  0  0  0  0  0  0  0  0  0  0  0
    6.5408    8.4481    2.8294 H   0  0  0  0  0  0  0  0  0  0  0  0
    5.1509    9.5329    2.4854 H   0  0  0  0  0  0  0  0  0  0  0  0
    5.6489    7.4136    0.4478 H   0  0  0  0  0  0  0  0  0  0  0  0
    6.3999   12.3233    0.8698 H   0  0  0  0  0  0  0  0  0  0  0  0
    8.1841   13.5492    2.0738 H   0  0  0  0  0  0  0  0  0  0  0  0
    8.8182    8.7696    0.8085 H   0  0  0  0  0  0  0  0  0  0  0  0
   10.8704   13.1710    3.1651 H   0  0  0  0  0  0  0  0  0  0  0  0
   13.2707   10.2478    3.4791 H   0  0  0  0  0  0  0  0  0  0  0  0
   14.5565   14.3072    4.5674 H   0  0  0  0  0  0  0  0  0  0  0  0
   15.8868   13.3682    3.8517 H   0  0  0  0  0  0  0  0  0  0  0  0
   15.7683   13.5050    5.6624 H   0  0  0  0  0  0  0  0  0  0  0  0
  1  2  1  0  0  0  0
  1 24  1  0  0  0  0
  1 25  1  0  0  0  0
  1 26  1  0  0  0  0
  2  3  1  0  0  0  0
  3  4  2  0  0  0  0
  3  5  1  0  0  0  0
  5  6  1  0  0  0  0
  5 27  1  0  0  0  0
  5 28  1  0  0  0  0
  6  7  1  0  0  0  0
  6 29  1  0  0  0  0
  7  8  2  0  0  0  0
  7  9  2  0  0  0  0
  7 10  1  0  0  0  0
 10 15  1  0  0  0  0
 10 11  2  0  0  0  0
 11 12  1  0  0  0  0
 11 30  1  0  0  0  0
 12 13  2  0  0  0  0
 12 31  1  0  0  0  0
 13 18  1  0  0  0  0
 13 14  1  0  0  0  0
 14 15  2  0  0  0  0
 14 16  1  0  0  0  0
 15 32  1  0  0  0  0
 16 17  2  0  0  0  0
 17 18  1  0  0  0  0
 17 19  1  0  0  0  0
 18 33  1  0  0  0  0
 19 20  1  0  0  0  0
 19 34  1  0  0  0  0
 20 21  2  0  0  0  0
 20 22  1  0  0  0  0
 22 23  1  0  0  0  0
 23 35  1  0  0  0  0
 23 36  1  0  0  0  0
 23 37  1  0  0  0  0
M  END
> <Name>
ZINC06041659

> <reference>
BDB4942

> <quality>
0.611

> <status>
decoy

> <atoms in reference ligand area>
11

> <score>
-26.7257

$$$$
ZINC05266223
      BALL 1.4.0 (Jan  4 2012, 23:22:29)

 46 47  0999  0  0  0  0  0  0999 V2000
   15.1107   12.9325    5.4824 C   0  0  0  0  0  0  0  0  0  0  0  0
   14.6403   12.9672    4.1335 O   0  0  0  0  0  0  0  0  0  0  0  0
   13.2385   12.7234    4.0003 C   0  0  0  0  0  0  0  0  0  0  0  0
   13.0067   11.6486    2.9365 C   0  0  0  0  0  0  0  0  0  0  0  0
   11.6038   11.2273    2.9656 N   0  0  0  0  0  0  0  0  0  0  0  0
   11.1461   10.0425    3.4899 C   0  0  0  0  0  0  0  0  0  0  0  0
    9.8090    9.9691    3.3508 C   0  0  0  0  0  0  0  0  0  0  0  0
    9.3787   11.2087    2.6932 C   0  0  0  0  0  0  0  0  0  0  0  0
   10.5478   11.9597    2.4721 C   0  0  0  0  0  0  0  0  0  0  0  0
   10.4528   13.2005    1.8499 C   0  0  0  0  0  0  0  0  0  0  0  0
    9.2209   13.6777    1.4591 C   0  0  0  0  0  0  0  0  0  0  0  0
    8.0707   12.9325    1.6797 C   0  0  0  0  0  0  0  0  0  0  0  0
    8.1411   11.7114    2.2892 C   0  0  0  0  0  0  0  0  0  0  0  0
    8.9811    8.9073    3.7605 N   0  0  0  0  0  0  0  0  0  0  0  0
    8.1368    9.0728    4.7979 C   0  0  0  0  0  0  0  0  0  0  0  0
    8.2155   10.0672    5.4933 O   0  0  0  0  0  0  0  0  0  0  0  0
    7.2052    8.1360    5.0647 N   0  0  0  0  0  0  0  0  0  0  0  0
    6.1515    8.4091    6.0452 C   0  0  0  0  0  0  0  0  0  0  0  0
    4.8883    7.6337    5.6656 C   0  0  0  0  0  0  0  0  0  0  0  0
    3.7351    8.4075    6.0026 O   0  0  0  0  0  0  0  0  0  0  0  0
    7.2464    6.8445    4.3743 C   0  0  0  0  0  0  0  0  0  0  0  0
    6.2331    6.8465    3.2278 C   0  0  0  0  0  0  0  0  0  0  0  0
    5.8188    8.1878    2.9608 O   0  0  0  0  0  0  0  0  0  0  0  0
   16.2101   12.9189    5.4499 H   0  0  0  0  0  0  0  0  0  0  0  0
   14.7643   11.9893    5.9302 H   0  0  0  0  0  0  0  0  0  0  0  0
   14.7475   13.7956    6.0595 H   0  0  0  0  0  0  0  0  0  0  0  0
   12.8330   12.3791    4.9631 H   0  0  0  0  0  0  0  0  0  0  0  0
   12.7307   13.6516    3.6994 H   0  0  0  0  0  0  0  0  0  0  0  0
   13.6531   10.7825    3.1418 H   0  0  0  0  0  0  0  0  0  0  0  0
   13.2457   12.0576    1.9438 H   0  0  0  0  0  0  0  0  0  0  0  0
   11.7773    9.2701    3.9536 H   0  0  0  0  0  0  0  0  0  0  0  0
   11.3584   13.7985    1.6706 H   0  0  0  0  0  0  0  0  0  0  0  0
    9.1480   14.6591    0.9674 H   0  0  0  0  0  0  0  0  0  0  0  0
    7.0949   13.3281    1.3615 H   0  0  0  0  0  0  0  0  0  0  0  0
    7.2254   11.1267    2.4607 H   0  0  0  0  0  0  0  0  0  0  0  0
    9.0203    8.0037    3.2675 H   0  0  0  0  0  0  0  0  0  0  0  0
    5.9299    9.4865    6.0564 H   0  0  0  0  0  0  0  0  0  0  0  0
    6.4886    8.0936    7.0435 H   0  0  0  0  0  0  0  0  0  0  0  0
    4.8918    7.4339    4.5839 H   0  0  0  0  0  0  0  0  0  0  0  0
    4.8629    6.6808    6.2145 H   0  0  0  0  0  0  0  0  0  0  0  0
    3.9807    9.0923    6.6740 H   0  0  0  0  0  0  0  0  0  0  0  0
    6.9961    6.0407    5.0824 H   0  0  0  0  0  0  0  0  0  0  0  0
    8.2557    6.6764    3.9706 H   0  0  0  0  0  0  0  0  0  0  0  0
    6.6982    6.4207    2.3265 H   0  0  0  0  0  0  0  0  0  0  0  0
    5.3580    6.2424    3.5093 H   0  0  0  0  0  0  0  0  0  0  0  0
    5.0272    8.4060    3.5139 H   0  0  0  0  0  0  0  0  0  0  0  0
  1  2  1  0  0  0  0
  1 24  1  0  0  0  0
  1 25  1  0  0  0  0
  1 26  1  0  0  0  0
  2  3  1  0  0  0  0
  3  4  1  0  0  0  0
  3 27  1  0  0  0  0
  3 28  1  0  0  0  0
  4  5  1  0  0  0  0
  4 29  1  0  0  0  0
  4 30  1  0  0  0  0
  5  9  1  0  0  0  0
  5  6  1  0  0  0  0
  6  7  2  0  0  0  0
  6 31  1  0  0  0  0
  7  8  1  0  0  0  0
  7 14  1  0  0  0  0
  8 13  2  0  0  0  0
  8  9  1  0  0  0  0
  9 10  2  0  0  0  0
 10 11  1  0  0  0  0
 10 32  1  0  0  0  0
 11 12  2  0  0  0  0
 11 33  1  0  0  0  0
 12 13  1  0  0  0  0
 12 34  1  0  0  0  0
 13 35  1  0  0  0  0
 14 15  1  0  0  0  0
 14 36  1  0  0  0  0
 15 16  2  0  0  0  0
 15 17  1  0  0  0  0
 17 18  1  0  0  0  0
 17 21  1  0  0  0  0
 18 19  1  0  0  0  0
 18 37  1  0  0  0  0
 18 38  1  0  0  0  0
 19 20  1  0  0  0  0
 19 39  1  0  0  0  0
 19 40  1  0  0  0  0
 20 41  1  0  0  0  0
 21 22  1  0  0  0  0
 21 42  1  0  0  0  0
 21 43  1  0  0  0  0
 22 23  1  0  0  0  0
 22 44  1  0  0  0  0
 22 45  1  0  0  0  0
 23 46  1  0  0  0  0
M  END
> <Name>
ZINC05266223

> <reference>
BDB5025

> <quality>
0.793

> <status>
decoy

> <atoms in reference ligand area>
11

> <score>
-26.6428

$$$$
ZINC23644902
      BALL 1.4.0 (Jan  4 2012, 23:22:29)

 49 50  0999  0  0  0  0  0  0999 V2000
    8.4897   13.2278    3.0784 C   0  0  0  0  0  0  0  0  0  0  0  0
    8.7968   13.9089    1.7431 C   0  0  0  0  0  0  0  0  0  0  0  0
   10.0391   14.7892    1.8936 C   0  0  0  0  0  0  0  0  0  0  0  0
    9.0524   12.8444    0.6745 C   0  0  0  0  0  0  0  0  0  0  0  0
    9.5100   11.6090    1.3153 N   0  0  0  0  0  0  0  0  0  0  0  0
   10.8513   11.3045    1.3336 C   0  0  0  0  0  0  0  0  0  0  0  0
   11.2690   10.1377    1.9403 C   0  0  0  0  0  0  0  0  0  0  0  0
   10.3056    9.2902    2.5190 C   0  0  0  0  0  0  0  0  0  0  0  0
   10.6467    8.2508    3.0576 O   0  0  0  0  0  0  0  0  0  0  0  0
    9.0044    9.6378    2.4784 N   0  0  0  0  0  0  0  0  0  0  0  0
    8.6158   10.7788    1.8822 C   0  0  0  0  0  0  0  0  0  0  0  0
    7.4344   11.0658    1.8552 O   0  0  0  0  0  0  0  0  0  0  0  0
   12.6378    9.7971    1.9751 N   0  0  0  0  0  0  0  0  0  0  0  0
   13.6117   10.7343    2.5404 C   0  0  0  0  0  0  0  0  0  0  0  0
   13.4803   10.7486    4.0646 C   0  0  0  0  0  0  0  0  0  0  0  0
   14.3476   11.7458    4.6082 O   0  0  0  0  0  0  0  0  0  0  0  0
   14.0705   13.0702    4.1486 C   0  0  0  0  0  0  0  0  0  0  0  0
   13.0498    8.6082    1.4876 C   0  0  0  0  0  0  0  0  0  0  0  0
   14.1618    8.1984    1.7476 O   0  0  0  0  0  0  0  0  0  0  0  0
   12.1287    7.7895    0.6202 C   0  0  0  0  0  0  0  0  0  0  0  0
   13.1087    6.8125   -0.5464 S   0  0  0  0  0  0  0  0  0  0  0  0
   11.8173    5.9785   -1.4076 C   0  0  0  0  0  0  0  0  0  0  0  0
   10.5017    6.0467   -1.2479 N   0  0  0  0  0  0  0  0  0  0  0  0
    9.7100    5.3717   -1.9609 N   0  0  0  0  0  0  0  0  0  0  0  0
   10.1358    4.5587   -2.9063 C   0  0  0  0  0  0  0  0  0  0  0  0
   11.9033    4.8018   -2.7545 S   0  0  0  0  0  0  0  0  0  0  0  0
   11.7647   12.1525    0.7545 N   0  0  0  0  0  0  0  0  0  0  0  0
    9.3909   13.2316    3.7090 H   0  0  0  0  0  0  0  0  0  0  0  0
    8.1739   12.1897    2.8976 H   0  0  0  0  0  0  0  0  0  0  0  0
    7.6824   13.7715    3.5909 H   0  0  0  0  0  0  0  0  0  0  0  0
    7.9406   14.5310    1.4434 H   0  0  0  0  0  0  0  0  0  0  0  0
   10.1042   15.1598    2.9272 H   0  0  0  0  0  0  0  0  0  0  0  0
    9.9710   15.6424    1.2025 H   0  0  0  0  0  0  0  0  0  0  0  0
   10.9377   14.1997    1.6592 H   0  0  0  0  0  0  0  0  0  0  0  0
    8.1213   12.6475    0.1227 H   0  0  0  0  0  0  0  0  0  0  0  0
    9.8238   13.2018   -0.0236 H   0  0  0  0  0  0  0  0  0  0  0  0
    8.2994    9.0227    2.9089 H   0  0  0  0  0  0  0  0  0  0  0  0
   13.4217   11.7439    2.1472 H   0  0  0  0  0  0  0  0  0  0  0  0
   14.6283   10.4182    2.2635 H   0  0  0  0  0  0  0  0  0  0  0  0
   12.4404   10.9776    4.3410 H   0  0  0  0  0  0  0  0  0  0  0  0
   13.7582    9.7633    4.4670 H   0  0  0  0  0  0  0  0  0  0  0  0
   13.9744   13.7152    5.0344 H   0  0  0  0  0  0  0  0  0  0  0  0
   13.1010   13.0450    3.6297 H   0  0  0  0  0  0  0  0  0  0  0  0
   14.8620   13.4400    3.4801 H   0  0  0  0  0  0  0  0  0  0  0  0
   11.5327    7.1149    1.2524 H   0  0  0  0  0  0  0  0  0  0  0  0
   11.4568    8.4588    0.0628 H   0  0  0  0  0  0  0  0  0  0  0  0
    9.5675    3.9142   -3.5931 H   0  0  0  0  0  0  0  0  0  0  0  0
   12.5549   11.7640    0.2200 H   0  0  0  0  0  0  0  0  0  0  0  0
   11.6604   13.1723    0.8541 H   0  0  0  0  0  0  0  0  0  0  0  0
  1  2  1  0  0  0  0
  1 28  1  0  0  0  0
  1 29  1  0  0  0  0
  1 30  1  0  0  0  0
  2  3  1  0  0  0  0
  2  4  1  0  0  0  0
  2 31  1  0  0  0  0
  3 32  1  0  0  0  0
  3 33  1  0  0  0  0
  3 34  1  0  0  0  0
  4  5  1  0  0  0  0
  4 35  1  0  0  0  0
  4 36  1  0  0  0  0
  5 11  1  0  0  0  0
  5  6  1  0  0  0  0
  6  7  2  0  0  0  0
  6 27  1  0  0  0  0
  7  8  1  0  0  0  0
  7 13  1  0  0  0  0
  8  9  2  0  0  0  0
  8 10  1  0  0  0  0
 10 11  1  0  0  0  0
 10 37  1  0  0  0  0
 11 12  2  0  0  0  0
 13 14  1  0  0  0  0
 13 18  1  0  0  0  0
 14 15  1  0  0  0  0
 14 38  1  0  0  0  0
 14 39  1  0  0  0  0
 15 16  1  0  0  0  0
 15 40  1  0  0  0  0
 15 41  1  0  0  0  0
 16 17  1  0  0  0  0
 17 42  1  0  0  0  0
 17 43  1  0  0  0  0
 17 44  1  0  0  0  0
 18 19  2  0  0  0  0
 18 20  1  0  0  0  0
 20 21  1  0  0  0  0
 20 45  1  0  0  0  0
 20 46  1  0  0  0  0
 21 22  1  0  0  0  0
 22 26  1  0  0  0  0
 22 23  2  0  0  0  0
 23 24  1  0  0  0  0
 24 25  2  0  0  0  0
 25 26  1  0  0  0  0
 25 47  1  0  0  0  0
 27 48  1  0  0  0  0
 27 49  1  0  0  0  0
M  END
> <Name>
ZINC23644902

> <reference>
BDB4965

> <quality>
0.658

> <status>
decoy

> <atoms in reference ligand area>
17

> <score>
-26.594

$$$$
ZINC17669880
      BALL 1.4.0 (Jan  4 2012, 23:22:29)

 28 29  0999  0  0  0  0  0  0999 V2000
   11.4888   10.1231    4.9458 C   0  0  0  0  0  0  0  0  0  0  0  0
   10.2567    9.7236    5.4751 C   0  0  0  0  0  0  0  0  0  0  0  0
    9.0838   10.3033    4.9442 C   0  0  0  0  0  0  0  0  0  0  0  0
    9.1967   11.1985    3.9704 N   0  0  0  0  0  0  0  0  0  0  0  0
   10.3873   11.5446    3.5019 C   0  0  0  0  0  0  0  0  0  0  0  0
   11.5108   11.0202    3.9771 N   0  0  0  0  0  0  0  0  0  0  0  0
   10.4821   12.7376    2.2087 S   0  0  0  0  0  0  0  0  0  0  0  0
    9.2823   12.0385    1.0477 C   0  0  0  0  0  0  0  0  0  0  0  0
    9.1930   12.9181   -0.1727 C   0  0  0  0  0  0  0  0  0  0  0  0
    8.0120   13.3088   -0.6184 N   0  0  0  0  0  0  0  0  0  0  0  0
    7.9292   14.0895   -1.6933 C   0  0  0  0  0  0  0  0  0  0  0  0
    9.0356   14.4676   -2.3243 N   0  0  0  0  0  0  0  0  0  0  0  0
   10.2209   14.0685   -1.8762 C   0  0  0  0  0  0  0  0  0  0  0  0
   10.2958   13.2919   -0.7977 N   0  0  0  0  0  0  0  0  0  0  0  0
   11.3730   14.4580   -2.5284 N   0  0  0  0  0  0  0  0  0  0  0  0
    6.6957   14.5014   -2.1549 N   0  0  0  0  0  0  0  0  0  0  0  0
    7.8422    9.9461    5.4293 N   0  0  0  0  0  0  0  0  0  0  0  0
   10.1874    8.7539    6.5265 C   0  0  0  0  0  0  0  0  0  0  0  0
   10.1322    7.9846    7.3606 N   0  0  0  0  0  0  0  0  0  0  0  0
   12.4262    9.6956    5.3314 H   0  0  0  0  0  0  0  0  0  0  0  0
    8.2952   11.9800    1.5297 H   0  0  0  0  0  0  0  0  0  0  0  0
    9.6052   11.0301    0.7494 H   0  0  0  0  0  0  0  0  0  0  0  0
   12.2783   14.4233   -2.0384 H   0  0  0  0  0  0  0  0  0  0  0  0
   11.3276   14.7834   -3.5046 H   0  0  0  0  0  0  0  0  0  0  0  0
    6.1434   15.1800   -1.6114 H   0  0  0  0  0  0  0  0  0  0  0  0
    6.3274   14.1305   -3.0425 H   0  0  0  0  0  0  0  0  0  0  0  0
    7.4339   10.4705    6.2162 H   0  0  0  0  0  0  0  0  0  0  0  0
    7.3260    9.1604    5.0083 H   0  0  0  0  0  0  0  0  0  0  0  0
  1  6  2  0  0  0  0
  1  2  1  0  0  0  0
  1 20  1  0  0  0  0
  2  3  2  0  0  0  0
  2 18  1  0  0  0  0
  3  4  1  0  0  0  0
  3 17  1  0  0  0  0
  4  5  2  0  0  0  0
  5  6  1  0  0  0  0
  5  7  1  0  0  0  0
  7  8  1  0  0  0  0
  8  9  1  0  0  0  0
  8 21  1  0  0  0  0
  8 22  1  0  0  0  0
  9 14  2  0  0  0  0
  9 10  1  0  0  0  0
 10 11  2  0  0  0  0
 11 12  1  0  0  0  0
 11 16  1  0  0  0  0
 12 13  2  0  0  0  0
 13 14  1  0  0  0  0
 13 15  1  0  0  0  0
 15 23  1  0  0  0  0
 15 24  1  0  0  0  0
 16 25  1  0  0  0  0
 16 26  1  0  0  0  0
 17 27  1  0  0  0  0
 17 28  1  0  0  0  0
 18 19  3  0  0  0  0
M  END
> <Name>
ZINC17669880

> <reference>
BDB5008

> <quality>
0.690

> <status>
decoy

> <atoms in reference ligand area>
17

> <score>
-26.5604

$$$$
ZINC20190413
      BALL 1.4.0 (Jan  4 2012, 23:22:29)

 33 34  0999  0  0  0  0  0  0999 V2000
   12.7135   14.3862   -1.3479 C   0  0  0  0  0  0  0  0  0  0  0  0
   12.7565   13.7109   -0.1383 C   0  0  0  0  0  0  0  0  0  0  0  0
   11.7603   13.8590    0.7191 N   0  0  0  0  0  0  0  0  0  0  0  0
   10.7306   14.6418    0.4323 C   0  0  0  0  0  0  0  0  0  0  0  0
   10.6563   15.2969   -0.7170 N   0  0  0  0  0  0  0  0  0  0  0  0
   11.6216   15.1967   -1.6159 C   0  0  0  0  0  0  0  0  0  0  0  0
    9.7053   14.7739    1.3526 N   0  5  0  0  0  0  0  0  0  0  0  0
    9.7156   13.8687    2.7394 S   0  0  0  0  0  0  0  0  0  0  0  0
    8.3679   13.7892    3.1825 O   0  0  0  0  0  0  0  0  0  0  0  0
   10.7567   14.3879    3.5555 O   0  0  0  0  0  0  0  0  0  0  0  0
   10.1956   12.2337    2.2906 C   0  0  0  0  0  0  0  0  0  0  0  0
   11.4660   11.7792    2.5905 C   0  0  0  0  0  0  0  0  0  0  0  0
   11.8409   10.4948    2.2437 C   0  0  0  0  0  0  0  0  0  0  0  0
   10.9454    9.6629    1.5970 C   0  0  0  0  0  0  0  0  0  0  0  0
    9.6750   10.1153    1.2959 C   0  0  0  0  0  0  0  0  0  0  0  0
    9.2984   11.4019    1.6428 C   0  0  0  0  0  0  0  0  0  0  0  0
    8.0561   11.8449    1.3496 F   0  0  0  0  0  0  0  0  0  0  0  0
   13.2263   10.0004    2.5711 C   0  0  0  0  0  0  0  0  0  0  0  0
   13.3817    8.5586    2.0834 C   0  0  0  0  0  0  0  0  0  0  0  0
   13.4136    8.5392    0.6149 N   0  3  0  0  0  0  0  0  0  0  0  0
   13.5284   14.2813   -2.0793 H   0  0  0  0  0  0  0  0  0  0  0  0
   13.6087   13.0596    0.1057 H   0  0  0  0  0  0  0  0  0  0  0  0
   11.5585   15.7499   -2.5646 H   0  0  0  0  0  0  0  0  0  0  0  0
   12.1791   12.4400    3.1052 H   0  0  0  0  0  0  0  0  0  0  0  0
   11.2445    8.6406    1.3222 H   0  0  0  0  0  0  0  0  0  0  0  0
    8.9631    9.4535    0.7808 H   0  0  0  0  0  0  0  0  0  0  0  0
   13.9707   10.6381    2.0719 H   0  0  0  0  0  0  0  0  0  0  0  0
   13.3823   10.0375    3.6594 H   0  0  0  0  0  0  0  0  0  0  0  0
   12.5326    7.9565    2.4390 H   0  0  0  0  0  0  0  0  0  0  0  0
   14.3193    8.1377    2.4755 H   0  0  0  0  0  0  0  0  0  0  0  0
   13.6841    7.6005    0.2886 H   0  0  0  0  0  0  0  0  0  0  0  0
   14.0981    9.2303    0.2762 H   0  0  0  0  0  0  0  0  0  0  0  0
   12.4803    8.7734    0.2474 H   0  0  0  0  0  0  0  0  0  0  0  0
  1  6  2  0  0  0  0
  1  2  1  0  0  0  0
  1 21  1  0  0  0  0
  2  3  2  0  0  0  0
  2 22  1  0  0  0  0
  3  4  1  0  0  0  0
  4  5  2  0  0  0  0
  4  7  1  0  0  0  0
  5  6  1  0  0  0  0
  6 23  1  0  0  0  0
  7  8  1  0  0  0  0
  8  9  2  0  0  0  0
  8 10  2  0  0  0  0
  8 11  1  0  0  0  0
 11 16  2  0  0  0  0
 11 12  1  0  0  0  0
 12 13  2  0  0  0  0
 12 24  1  0  0  0  0
 13 14  1  0  0  0  0
 13 18  1  0  0  0  0
 14 15  2  0  0  0  0
 14 25  1  0  0  0  0
 15 16  1  0  0  0  0
 15 26  1  0  0  0  0
 16 17  1  0  0  0  0
 18 19  1  0  0  0  0
 18 27  1  0  0  0  0
 18 28  1  0  0  0  0
 19 20  1  0  0  0  0
 19 29  1  0  0  0  0
 19 30  1  0  0  0  0
 20 31  1  0  0  0  0
 20 32  1  0  0  0  0
 20 33  1  0  0  0  0
M  END
> <Name>
ZINC20190413

> <reference>
BDB5242

> <quality>
0.776

> <status>
decoy

> <atoms in reference ligand area>
12

> <score>
-26.5125

$$$$
ZINC17255921
      BALL 1.4.0 (Jan  4 2012, 23:22:29)

 54 56  0999  0  0  0  0  0  0999 V2000
   15.3789   10.7286    5.3576 C   0  0  0  0  0  0  0  0  0  0  0  0
   14.7545    9.3663    5.0491 C   0  0  0  0  0  0  0  0  0  0  0  0
   13.3808    9.5547    4.5762 N   0  0  0  0  0  0  0  0  0  0  0  0
   12.4288    8.4423    4.6292 C   0  0  0  0  0  0  0  0  0  0  0  0
   11.1345    8.9101    5.2976 C   0  0  0  0  0  0  0  0  0  0  0  0
   12.9881   10.7655    4.0864 C   0  0  0  0  0  0  0  0  0  0  0  0
   13.7518   11.8074    3.8000 N   0  0  0  0  0  0  0  0  0  0  0  0
   13.3026   12.9417    3.3313 C   0  0  0  0  0  0  0  0  0  0  0  0
   14.0257   13.8849    3.0759 O   0  0  0  0  0  0  0  0  0  0  0  0
   11.7919   12.9776    3.1332 C   0  5  0  0  0  0  0  0  0  0  0  0
   11.3754   11.2808    3.7010 S   0  0  0  0  0  0  0  0  0  0  0  0
   11.4261   13.1799    1.6614 C   0  0  0  0  0  0  0  0  0  0  0  0
   10.1517   12.4365    1.3539 C   0  0  0  0  0  0  0  0  0  0  0  0
    9.6891   11.6640    2.1665 O   0  0  0  0  0  0  0  0  0  0  0  0
    9.5291   12.6259    0.1736 N   0  0  0  0  0  0  0  0  0  0  0  0
    8.4037   11.8613   -0.1545 C   0  0  0  0  0  0  0  0  0  0  0  0
    7.4674   12.3544   -1.0555 C   0  0  0  0  0  0  0  0  0  0  0  0
    6.3571   11.6009   -1.3873 C   0  0  0  0  0  0  0  0  0  0  0  0
    6.1652   10.3585   -0.8173 C   0  0  0  0  0  0  0  0  0  0  0  0
    7.0967    9.8569    0.0930 C   0  0  0  0  0  0  0  0  0  0  0  0
    8.2201   10.6151    0.4234 C   0  0  0  0  0  0  0  0  0  0  0  0
    6.8934    8.5265    0.7054 C   0  0  0  0  0  0  0  0  0  0  0  0
    6.8236    7.5379    0.0019 O   0  0  0  0  0  0  0  0  0  0  0  0
    6.7854    8.4102    2.0438 N   0  0  0  0  0  0  0  0  0  0  0  0
    5.6204    7.8751    2.6087 N   0  0  0  0  0  0  0  0  0  0  0  0
    5.3263    8.1160    3.9017 C   0  0  0  0  0  0  0  0  0  0  0  0
    6.2023    8.4683    4.6695 O   0  0  0  0  0  0  0  0  0  0  0  0
    3.9507    7.9537    4.3835 C   0  0  0  0  0  0  0  0  0  0  0  0
    2.8780    7.5662    3.6326 C   0  0  0  0  0  0  0  0  0  0  0  0
    1.7698    7.5440    4.4936 C   0  0  0  0  0  0  0  0  0  0  0  0
    2.2088    7.9143    5.7167 C   0  0  0  0  0  0  0  0  0  0  0  0
    3.5244    8.1553    5.6475 O   0  0  0  0  0  0  0  0  0  0  0  0
   15.3864   11.3446    4.4463 H   0  0  0  0  0  0  0  0  0  0  0  0
   16.4105   10.5884    5.7130 H   0  0  0  0  0  0  0  0  0  0  0  0
   14.7896   11.2350    6.1363 H   0  0  0  0  0  0  0  0  0  0  0  0
   15.3438    8.8607    4.2700 H   0  0  0  0  0  0  0  0  0  0  0  0
   14.7466    8.7505    5.9606 H   0  0  0  0  0  0  0  0  0  0  0  0
   12.2097    8.0980    3.6077 H   0  0  0  0  0  0  0  0  0  0  0  0
   12.8622    7.6147    5.2101 H   0  0  0  0  0  0  0  0  0  0  0  0
   10.3597    8.1382    5.1793 H   0  0  0  0  0  0  0  0  0  0  0  0
   10.7948    9.8447    4.8273 H   0  0  0  0  0  0  0  0  0  0  0  0
   11.3162    9.0847    6.3683 H   0  0  0  0  0  0  0  0  0  0  0  0
   12.2366   12.7956    1.0248 H   0  0  0  0  0  0  0  0  0  0  0  0
   11.2813   14.2522    1.4635 H   0  0  0  0  0  0  0  0  0  0  0  0
    9.8816   13.3333   -0.4869 H   0  0  0  0  0  0  0  0  0  0  0  0
    7.6103   13.3477   -1.5060 H   0  0  0  0  0  0  0  0  0  0  0  0
    5.6242   11.9926   -2.1079 H   0  0  0  0  0  0  0  0  0  0  0  0
    5.2781    9.7638   -1.0806 H   0  0  0  0  0  0  0  0  0  0  0  0
    8.9578   10.2251    1.1401 H   0  0  0  0  0  0  0  0  0  0  0  0
    7.5594    8.7147    2.6513 H   0  0  0  0  0  0  0  0  0  0  0  0
    4.9886    7.2976    2.0358 H   0  0  0  0  0  0  0  0  0  0  0  0
    2.8817    7.3193    2.5607 H   0  0  0  0  0  0  0  0  0  0  0  0
    0.7377    7.2756    4.2235 H   0  0  0  0  0  0  0  0  0  0  0  0
    1.5879    8.0030    6.6205 H   0  0  0  0  0  0  0  0  0  0  0  0
  1  2  1  0  0  0  0
  1 33  1  0  0  0  0
  1 34  1  0  0  0  0
  1 35  1  0  0  0  0
  2  3  1  0  0  0  0
  2 36  1  0  0  0  0
  2 37  1  0  0  0  0
  3  4  1  0  0  0  0
  3  6  1  0  0  0  0
  4  5  1  0  0  0  0
  4 38  1  0  0  0  0
  4 39  1  0  0  0  0
  5 40  1  0  0  0  0
  5 41  1  0  0  0  0
  5 42  1  0  0  0  0
  6 11  1  0  0  0  0
  6  7  2  0  0  0  0
  7  8  1  0  0  0  0
  8  9  2  0  0  0  0
  8 10  1  0  0  0  0
 10 11  1  0  0  0  0
 10 12  1  0  0  0  0
 12 13  1  0  0  0  0
 12 43  1  0  0  0  0
 12 44  1  0  0  0  0
 13 14  2  0  0  0  0
 13 15  1  0  0  0  0
 15 16  1  0  0  0  0
 15 45  1  0  0  0  0
 16 21  2  0  0  0  0
 16 17  1  0  0  0  0
 17 18  2  0  0  0  0
 17 46  1  0  0  0  0
 18 19  1  0  0  0  0
 18 47  1  0  0  0  0
 19 20  2  0  0  0  0
 19 48  1  0  0  0  0
 20 21  1  0  0  0  0
 20 22  1  0  0  0  0
 21 49  1  0  0  0  0
 22 23  2  0  0  0  0
 22 24  1  0  0  0  0
 24 25  1  0  0  0  0
 24 50  1  0  0  0  0
 25 26  1  0  0  0  0
 25 51  1  0  0  0  0
 26 27  2  0  0  0  0
 26 28  1  0  0  0  0
 28 32  1  0  0  0  0
 28 29  2  0  0  0  0
 29 30  1  0  0  0  0
 29 52  1  0  0  0  0
 30 31  2  0  0  0  0
 30 53  1  0  0  0  0
 31 32  1  0  0  0  0
 31 54  1  0  0  0  0
M  END
> <Name>
ZINC17255921

> <reference>
BDB4972

> <quality>
0.751

> <status>
decoy

> <atoms in reference ligand area>
15

> <score>
-26.4991

$$$$
ZINC12320688
      BALL 1.4.0 (Jan  4 2012, 23:22:29)

 58 61  0999  0  0  0  0  0  0999 V2000
   14.0382    8.4745    4.2222 C   0  0  0  0  0  0  0  0  0  0  0  0
   13.6876    9.2552    2.9817 C   0  0  0  0  0  0  0  0  0  0  0  0
   14.0893    8.8502    1.8358 N   0  0  0  0  0  0  0  0  0  0  0  0
   14.8548    7.6811    1.7347 N   0  0  0  0  0  0  0  0  0  0  0  0
   14.7806    6.9034    0.5960 C   0  0  0  0  0  0  0  0  0  0  0  0
   13.7262    6.7922   -0.1735 N   0  0  0  0  0  0  0  0  0  0  0  0
   14.0021    5.9448   -1.1958 C   0  0  0  0  0  0  0  0  0  0  0  0
   13.2747    5.4560   -2.2936 C   0  0  0  0  0  0  0  0  0  0  0  0
   13.8747    4.6113   -3.1257 N   0  0  0  0  0  0  0  0  0  0  0  0
   15.1257    4.2345   -2.9330 C   0  0  0  0  0  0  0  0  0  0  0  0
   15.8450    4.6668   -1.9185 N   0  0  0  0  0  0  0  0  0  0  0  0
   15.3291    5.5141   -1.0347 C   0  0  0  0  0  0  0  0  0  0  0  0
   15.7981    6.1350    0.0996 N   0  0  0  0  0  0  0  0  0  0  0  0
   17.1384    5.9944    0.6740 C   0  0  0  0  0  0  0  0  0  0  0  0
   17.5277    7.2742    1.4560 C   0  0  0  0  0  0  0  0  0  0  0  0
   19.0777    7.1959    1.3965 C   0  0  0  0  0  0  0  0  0  0  0  0
   19.3207    6.5592    0.0113 C   0  0  0  0  0  0  0  0  0  0  0  0
   18.1187    5.8798   -0.3697 O   0  0  0  0  0  0  0  0  0  0  0  0
   20.4772    5.5608    0.0947 C   0  0  0  0  0  0  0  0  0  0  0  0
   21.7164    6.2524   -0.0729 O   0  0  0  0  0  0  0  0  0  0  0  0
   19.6558    8.5009    1.4649 O   0  0  0  0  0  0  0  0  0  0  0  0
   17.0597    7.2160    2.8049 O   0  0  0  0  0  0  0  0  0  0  0  0
   11.9617    5.8452   -2.5037 N   0  0  0  0  0  0  0  0  0  0  0  0
   12.8642   10.5126    3.0904 C   0  0  0  0  0  0  0  0  0  0  0  0
   12.8617   11.1906    1.8325 O   0  0  0  0  0  0  0  0  0  0  0  0
   11.9984   12.2321    1.6942 C   0  0  0  0  0  0  0  0  0  0  0  0
   11.6410   12.9882    2.8005 C   0  0  0  0  0  0  0  0  0  0  0  0
   10.7678   14.0492    2.6592 C   0  0  0  0  0  0  0  0  0  0  0  0
   10.2405   14.3519    1.4126 C   0  0  0  0  0  0  0  0  0  0  0  0
   10.5934   13.5921    0.3072 C   0  0  0  0  0  0  0  0  0  0  0  0
   11.4707   12.5345    0.4476 C   0  0  0  0  0  0  0  0  0  0  0  0
    9.3772   15.3933    1.2742 O   0  0  0  0  0  0  0  0  0  0  0  0
    9.3872   16.3854    2.3027 C   0  0  0  0  0  0  0  0  0  0  0  0
   15.0903    8.7184    4.4310 H   0  0  0  0  0  0  0  0  0  0  0  0
   13.9978    7.4173    3.9210 H   0  0  0  0  0  0  0  0  0  0  0  0
   13.3807    8.6915    5.0770 H   0  0  0  0  0  0  0  0  0  0  0  0
   15.4729    7.4018    2.5097 H   0  0  0  0  0  0  0  0  0  0  0  0
   15.5836    3.5336   -3.6465 H   0  0  0  0  0  0  0  0  0  0  0  0
   17.1186    5.1057    1.3220 H   0  0  0  0  0  0  0  0  0  0  0  0
   17.1028    8.2038    1.0495 H   0  0  0  0  0  0  0  0  0  0  0  0
   19.5246    6.6309    2.2279 H   0  0  0  0  0  0  0  0  0  0  0  0
   19.5807    7.3304   -0.7289 H   0  0  0  0  0  0  0  0  0  0  0  0
   20.3693    4.8060   -0.6982 H   0  0  0  0  0  0  0  0  0  0  0  0
   20.4641    5.0655    1.0768 H   0  0  0  0  0  0  0  0  0  0  0  0
   21.5572    7.2290   -0.0426 H   0  0  0  0  0  0  0  0  0  0  0  0
   19.3364    9.0338    0.6942 H   0  0  0  0  0  0  0  0  0  0  0  0
   16.5874    8.0604    3.0149 H   0  0  0  0  0  0  0  0  0  0  0  0
   11.2080    5.3958   -1.9643 H   0  0  0  0  0  0  0  0  0  0  0  0
   11.7392    6.5775   -3.1930 H   0  0  0  0  0  0  0  0  0  0  0  0
   11.8321   10.2524    3.3681 H   0  0  0  0  0  0  0  0  0  0  0  0
   13.2962   11.1698    3.8595 H   0  0  0  0  0  0  0  0  0  0  0  0
   12.0529   12.7431    3.7906 H   0  0  0  0  0  0  0  0  0  0  0  0
   10.4906   14.6539    3.5352 H   0  0  0  0  0  0  0  0  0  0  0  0
   10.1745   13.8318   -0.6813 H   0  0  0  0  0  0  0  0  0  0  0  0
   11.7510   11.9323   -0.4292 H   0  0  0  0  0  0  0  0  0  0  0  0
   10.0229   17.2047    1.9358 H   0  0  0  0  0  0  0  0  0  0  0  0
    9.8907   15.9291    3.1676 H   0  0  0  0  0  0  0  0  0  0  0  0
    8.3786   16.7400    2.5617 H   0  0  0  0  0  0  0  0  0  0  0  0
  1  2  1  0  0  0  0
  1 34  1  0  0  0  0
  1 35  1  0  0  0  0
  1 36  1  0  0  0  0
  2  3  2  0  0  0  0
  2 24  1  0  0  0  0
  3  4  1  0  0  0  0
  4  5  1  0  0  0  0
  4 37  1  0  0  0  0
  5 13  1  0  0  0  0
  5  6  2  0  0  0  0
  6  7  1  0  0  0  0
  7 12  1  0  0  0  0
  7  8  2  0  0  0  0
  8  9  1  0  0  0  0
  8 23  1  0  0  0  0
  9 10  2  0  0  0  0
 10 11  1  0  0  0  0
 10 38  1  0  0  0  0
 11 12  2  0  0  0  0
 12 13  1  0  0  0  0
 13 14  1  0  0  0  0
 14 18  1  0  0  0  0
 14 15  1  0  0  0  0
 14 39  1  0  0  0  0
 15 16  1  0  0  0  0
 15 22  1  0  0  0  0
 15 40  1  0  0  0  0
 16 17  1  0  0  0  0
 16 21  1  0  0  0  0
 16 41  1  0  0  0  0
 17 18  1  0  0  0  0
 17 19  1  0  0  0  0
 17 42  1  0  0  0  0
 19 20  1  0  0  0  0
 19 43  1  0  0  0  0
 19 44  1  0  0  0  0
 20 45  1  0  0  0  0
 21 46  1  0  0  0  0
 22 47  1  0  0  0  0
 23 48  1  0  0  0  0
 23 49  1  0  0  0  0
 24 25  1  0  0  0  0
 24 50  1  0  0  0  0
 24 51  1  0  0  0  0
 25 26  1  0  0  0  0
 26 31  2  0  0  0  0
 26 27  1  0  0  0  0
 27 28  2  0  0  0  0
 27 52  1  0  0  0  0
 28 29  1  0  0  0  0
 28 53  1  0  0  0  0
 29 30  2  0  0  0  0
 29 32  1  0  0  0  0
 30 31  1  0  0  0  0
 30 54  1  0  0  0  0
 31 55  1  0  0  0  0
 32 33  1  0  0  0  0
 33 56  1  0  0  0  0
 33 57  1  0  0  0  0
 33 58  1  0  0  0  0
M  END
> <Name>
ZINC12320688

> <reference>
BDB4968

> <quality>
0.734

> <status>
decoy

> <atoms in reference ligand area>
10

> <score>
-26.4578

$$$$
ZINC20292668
      BALL 1.4.0 (Jan  4 2012, 23:22:29)

 44 44  0999  0  0  0  0  0  0999 V2000
   12.8593   12.3906    2.1759 C   0  0  0  0  0  0  0  0  0  0  0  0
   12.2028   11.0898    2.5606 C   0  0  0  0  0  0  0  0  0  0  0  0
   10.8290   10.9580    2.4786 C   0  0  0  0  0  0  0  0  0  0  0  0
   10.1653    9.6629    2.7113 C   0  0  0  0  0  0  0  0  0  0  0  0
   10.8121    8.6702    2.9878 O   0  0  0  0  0  0  0  0  0  0  0  0
    8.8208    9.6091    2.6149 N   0  0  0  0  0  0  0  0  0  0  0  0
    8.0958   10.6961    2.3160 C   0  0  0  0  0  0  0  0  0  0  0  0
    6.8881   10.5803    2.2435 O   0  0  0  0  0  0  0  0  0  0  0  0
    8.6321   11.9041    2.0924 N   0  0  0  0  0  0  0  0  0  0  0  0
    9.9642   12.1069    2.1557 C   0  0  0  0  0  0  0  0  0  0  0  0
   10.4389   13.2082    1.9506 O   0  0  0  0  0  0  0  0  0  0  0  0
    7.7512   13.0300    1.7722 C   0  0  0  0  0  0  0  0  0  0  0  0
    7.9171   14.1090    2.8113 C   0  0  0  0  0  0  0  0  0  0  0  0
    8.9857   14.8667    2.8039 C   0  0  0  0  0  0  0  0  0  0  0  0
   12.9551   10.0547    2.9847 N   0  0  0  0  0  0  0  0  0  0  0  0
   13.3414    9.9590    4.3945 C   0  0  0  0  0  0  0  0  0  0  0  0
   14.7777   10.4578    4.5649 C   0  0  0  0  0  0  0  0  0  0  0  0
   15.3536    9.9166    5.8749 C   0  0  0  0  0  0  0  0  0  0  0  0
   15.5067   11.0181    6.8346 N   0  3  0  0  0  0  0  0  0  0  0  0
   16.2717   10.5876    8.0125 C   0  0  0  0  0  0  0  0  0  0  0  0
   16.1310   12.1866    6.1997 C   0  0  0  0  0  0  0  0  0  0  0  0
   12.3578   12.7001    1.2471 H   0  0  0  0  0  0  0  0  0  0  0  0
   13.8933   12.1222    1.9132 H   0  0  0  0  0  0  0  0  0  0  0  0
   12.8105   13.1623    2.9582 H   0  0  0  0  0  0  0  0  0  0  0  0
    8.3404    8.7121    2.7746 H   0  0  0  0  0  0  0  0  0  0  0  0
    6.7058   12.6882    1.7635 H   0  0  0  0  0  0  0  0  0  0  0  0
    8.0140   13.4315    0.7824 H   0  0  0  0  0  0  0  0  0  0  0  0
    7.1410   14.2602    3.5760 H   0  0  0  0  0  0  0  0  0  0  0  0
    9.7619   14.7156    2.0392 H   0  0  0  0  0  0  0  0  0  0  0  0
    9.1069   15.6542    3.5623 H   0  0  0  0  0  0  0  0  0  0  0  0
   13.2583    9.3310    2.3174 H   0  0  0  0  0  0  0  0  0  0  0  0
   12.6646   10.5767    5.0030 H   0  0  0  0  0  0  0  0  0  0  0  0
   13.2766    8.9112    4.7234 H   0  0  0  0  0  0  0  0  0  0  0  0
   15.3907   10.1056    3.7222 H   0  0  0  0  0  0  0  0  0  0  0  0
   14.7846   11.5576    4.5889 H   0  0  0  0  0  0  0  0  0  0  0  0
   16.3354    9.4587    5.6836 H   0  0  0  0  0  0  0  0  0  0  0  0
   14.6713    9.1606    6.2909 H   0  0  0  0  0  0  0  0  0  0  0  0
   14.5665   11.2947    7.1514 H   0  0  0  0  0  0  0  0  0  0  0  0
   16.5396    9.5273    7.8944 H   0  0  0  0  0  0  0  0  0  0  0  0
   15.6417   10.7023    8.9069 H   0  0  0  0  0  0  0  0  0  0  0  0
   17.1830   11.1949    8.1161 H   0  0  0  0  0  0  0  0  0  0  0  0
   16.9350   11.8416    5.5329 H   0  0  0  0  0  0  0  0  0  0  0  0
   16.5627   12.8279    6.9822 H   0  0  0  0  0  0  0  0  0  0  0  0
   15.3828   12.7508    5.6236 H   0  0  0  0  0  0  0  0  0  0  0  0
  1  2  1  0  0  0  0
  1 22  1  0  0  0  0
  1 23  1  0  0  0  0
  1 24  1  0  0  0  0
  2  3  2  0  0  0  0
  2 15  1  0  0  0  0
  3 10  1  0  0  0  0
  3  4  1  0  0  0  0
  4  5  2  0  0  0  0
  4  6  1  0  0  0  0
  6  7  1  0  0  0  0
  6 25  1  0  0  0  0
  7  8  2  0  0  0  0
  7  9  1  0  0  0  0
  9 10  1  0  0  0  0
  9 12  1  0  0  0  0
 10 11  2  0  0  0  0
 12 13  1  0  0  0  0
 12 26  1  0  0  0  0
 12 27  1  0  0  0  0
 13 14  2  0  0  0  0
 13 28  1  0  0  0  0
 14 29  1  0  0  0  0
 14 30  1  0  0  0  0
 15 16  1  0  0  0  0
 15 31  1  0  0  0  0
 16 17  1  0  0  0  0
 16 32  1  0  0  0  0
 16 33  1  0  0  0  0
 17 18  1  0  0  0  0
 17 34  1  0  0  0  0
 17 35  1  0  0  0  0
 18 19  1  0  0  0  0
 18 36  1  0  0  0  0
 18 37  1  0  0  0  0
 19 20  1  0  0  0  0
 19 21  1  0  0  0  0
 19 38  1  0  0  0  0
 20 39  1  0  0  0  0
 20 40  1  0  0  0  0
 20 41  1  0  0  0  0
 21 42  1  0  0  0  0
 21 43  1  0  0  0  0
 21 44  1  0  0  0  0
M  END
> <Name>
ZINC20292668

> <reference>
BDB5222

> <quality>
0.800

> <status>
decoy

> <atoms in reference ligand area>
13

> <score>
-26.3546

$$$$
ZINC01843099
      BALL 1.4.0 (Jan  4 2012, 23:22:29)

 55 57  0999  0  0  0  0  0  0999 V2000
    7.8651    6.6395    6.2856 C   0  0  0  0  0  0  0  0  0  0  0  0
    7.9298    7.2169    4.9407 N   0  0  0  0  0  0  0  0  0  0  0  0
    6.9980    6.7656    3.9042 C   0  0  0  0  0  0  0  0  0  0  0  0
    5.7868    6.1009    4.5615 C   0  0  0  0  0  0  0  0  0  0  0  0
    4.8194    7.1785    5.0554 C   0  0  0  0  0  0  0  0  0  0  0  0
    3.4891    6.5931    5.2394 N   0  0  0  0  0  0  0  0  0  0  0  0
    2.5220    7.2989    5.8584 C   0  0  0  0  0  0  0  0  0  0  0  0
    2.7531    8.4187    6.2631 O   0  0  0  0  0  0  0  0  0  0  0  0
    1.1535    6.6969    6.0476 C   0  0  0  0  0  0  0  0  0  0  0  0
    0.1135    7.4951    5.2377 C   0  0  0  0  0  0  0  0  0  0  0  0
   -0.5106    6.4473    4.2843 C   0  0  0  0  0  0  0  0  0  0  0  0
   -0.1758    5.1149    5.0022 C   0  0  0  0  0  0  0  0  0  0  0  0
    1.1395    5.3485    5.5496 O   0  0  0  0  0  0  0  0  0  0  0  0
    8.8712    8.1886    4.6494 C   0  0  0  0  0  0  0  0  0  0  0  0
    8.4719    9.2995    4.0607 N   0  0  0  0  0  0  0  0  0  0  0  0
    9.3548   10.2653    3.7620 C   0  0  0  0  0  0  0  0  0  0  0  0
    8.9631   11.4532    3.1321 C   0  0  0  0  0  0  0  0  0  0  0  0
    9.9074   12.4157    2.8505 C   0  0  0  0  0  0  0  0  0  0  0  0
   11.2550   12.2138    3.1790 C   0  0  0  0  0  0  0  0  0  0  0  0
   11.6596   11.0608    3.7889 C   0  0  0  0  0  0  0  0  0  0  0  0
   10.7186   10.0682    4.0905 C   0  0  0  0  0  0  0  0  0  0  0  0
   11.0878    8.8558    4.7215 C   0  0  0  0  0  0  0  0  0  0  0  0
   10.1409    7.9637    4.9745 N   0  0  0  0  0  0  0  0  0  0  0  0
   12.4009    8.6093    5.0648 N   0  0  0  0  0  0  0  0  0  0  0  0
   12.1701   13.1767    2.8868 O   0  0  0  0  0  0  0  0  0  0  0  0
   13.0475   13.5792    3.9404 C   0  0  0  0  0  0  0  0  0  0  0  0
    9.5294   13.5707    2.2434 O   0  0  0  0  0  0  0  0  0  0  0  0
    8.4218   14.2709    2.8134 C   0  0  0  0  0  0  0  0  0  0  0  0
    6.7977    6.4326    6.4525 H   0  0  0  0  0  0  0  0  0  0  0  0
    8.1411    7.4637    6.9597 H   0  0  0  0  0  0  0  0  0  0  0  0
    8.4951    5.7489    6.4274 H   0  0  0  0  0  0  0  0  0  0  0  0
    6.6642    7.6289    3.3099 H   0  0  0  0  0  0  0  0  0  0  0  0
    7.5014    6.0408    3.2473 H   0  0  0  0  0  0  0  0  0  0  0  0
    5.2769    5.4598    3.8274 H   0  0  0  0  0  0  0  0  0  0  0  0
    6.1198    5.4898    5.4134 H   0  0  0  0  0  0  0  0  0  0  0  0
    5.1779    7.5817    6.0141 H   0  0  0  0  0  0  0  0  0  0  0  0
    4.7630    7.9896    4.3145 H   0  0  0  0  0  0  0  0  0  0  0  0
    3.2928    5.6422    4.8957 H   0  0  0  0  0  0  0  0  0  0  0  0
    0.9131    6.7189    7.1208 H   0  0  0  0  0  0  0  0  0  0  0  0
    0.6104    8.2859    4.6566 H   0  0  0  0  0  0  0  0  0  0  0  0
   -0.6575    7.9022    5.9085 H   0  0  0  0  0  0  0  0  0  0  0  0
   -1.6002    6.5855    4.2243 H   0  0  0  0  0  0  0  0  0  0  0  0
   -0.0206    6.4842    3.3001 H   0  0  0  0  0  0  0  0  0  0  0  0
   -0.1458    4.2897    4.2756 H   0  0  0  0  0  0  0  0  0  0  0  0
   -0.8983    4.9288    5.8105 H   0  0  0  0  0  0  0  0  0  0  0  0
    7.9088   11.6165    2.8641 H   0  0  0  0  0  0  0  0  0  0  0  0
   12.7196   10.9123    4.0420 H   0  0  0  0  0  0  0  0  0  0  0  0
   12.8322    9.1451    5.8315 H   0  0  0  0  0  0  0  0  0  0  0  0
   12.9467    7.8963    4.5602 H   0  0  0  0  0  0  0  0  0  0  0  0
   13.8437   14.1745    3.4694 H   0  0  0  0  0  0  0  0  0  0  0  0
   13.5024   12.6578    4.3329 H   0  0  0  0  0  0  0  0  0  0  0  0
   12.5322   14.1451    4.7305 H   0  0  0  0  0  0  0  0  0  0  0  0
    8.8093   15.2457    3.1444 H   0  0  0  0  0  0  0  0  0  0  0  0
    8.1251   13.7042    3.7083 H   0  0  0  0  0  0  0  0  0  0  0  0
    7.5836   14.3857    2.1103 H   0  0  0  0  0  0  0  0  0  0  0  0
  1  2  1  0  0  0  0
  1 29  1  0  0  0  0
  1 30  1  0  0  0  0
  1 31  1  0  0  0  0
  2  3  1  0  0  0  0
  2 14  1  0  0  0  0
  3  4  1  0  0  0  0
  3 32  1  0  0  0  0
  3 33  1  0  0  0  0
  4  5  1  0  0  0  0
  4 34  1  0  0  0  0
  4 35  1  0  0  0  0
  5  6  1  0  0  0  0
  5 36  1  0  0  0  0
  5 37  1  0  0  0  0
  6  7  1  0  0  0  0
  6 38  1  0  0  0  0
  7  8  2  0  0  0  0
  7  9  1  0  0  0  0
  9 13  1  0  0  0  0
  9 10  1  0  0  0  0
  9 39  1  0  0  0  0
 10 11  1  0  0  0  0
 10 40  1  0  0  0  0
 10 41  1  0  0  0  0
 11 12  1  0  0  0  0
 11 42  1  0  0  0  0
 11 43  1  0  0  0  0
 12 13  1  0  0  0  0
 12 44  1  0  0  0  0
 12 45  1  0  0  0  0
 14 23  2  0  0  0  0
 14 15  1  0  0  0  0
 15 16  2  0  0  0  0
 16 21  1  0  0  0  0
 16 17  1  0  0  0  0
 17 18  2  0  0  0  0
 17 46  1  0  0  0  0
 18 19  1  0  0  0  0
 18 27  1  0  0  0  0
 19 20  2  0  0  0  0
 19 25  1  0  0  0  0
 20 21  1  0  0  0  0
 20 47  1  0  0  0  0
 21 22  2  0  0  0  0
 22 23  1  0  0  0  0
 22 24  1  0  0  0  0
 24 48  1  0  0  0  0
 24 49  1  0  0  0  0
 25 26  1  0  0  0  0
 26 50  1  0  0  0  0
 26 51  1  0  0  0  0
 26 52  1  0  0  0  0
 27 28  1  0  0  0  0
 28 53  1  0  0  0  0
 28 54  1  0  0  0  0
 28 55  1  0  0  0  0
M  END
> <Name>
ZINC01843099

> <reference>
BDB4945

> <quality>
0.747

> <status>
decoy

> <atoms in reference ligand area>
10

> <score>
-26.3333

$$$$
ZINC31576049
      BALL 1.4.0 (Jan  4 2012, 23:22:29)

 51 52  0999  0  0  0  0  0  0999 V2000
   15.3859    9.0641    8.2277 C   0  0  0  0  0  0  0  0  0  0  0  0
   15.7561    9.4122    6.8494 N   0  3  0  0  0  0  0  0  0  0  0  0
   16.4482   10.7071    6.8012 C   0  0  0  0  0  0  0  0  0  0  0  0
   16.5745    8.3549    6.2409 C   0  0  0  0  0  0  0  0  0  0  0  0
   16.4472    8.4243    4.7178 C   0  0  0  0  0  0  0  0  0  0  0  0
   15.6114    9.6461    4.3309 C   0  0  0  0  0  0  0  0  0  0  0  0
   14.8963    9.3730    3.0820 N   0  0  0  0  0  0  0  0  0  0  0  0
   13.7735   10.1303    2.7401 C   0  0  0  0  0  0  0  0  0  0  0  0
   13.4052   11.2200    3.5192 C   0  0  0  0  0  0  0  0  0  0  0  0
   12.2980   11.9700    3.1751 C   0  0  0  0  0  0  0  0  0  0  0  0
   11.5499   11.6311    2.0624 C   0  0  0  0  0  0  0  0  0  0  0  0
   11.9136   10.5472    1.2848 C   0  0  0  0  0  0  0  0  0  0  0  0
   13.0230    9.7958    1.6203 C   0  0  0  0  0  0  0  0  0  0  0  0
   13.4119    8.6361    0.7871 N   0  0  0  0  0  0  0  0  0  0  0  0
   14.0193    7.7050    1.2848 O   0  0  0  0  0  0  0  0  0  0  0  0
   13.1244    8.6126   -0.3962 O   0  0  0  0  0  0  0  0  0  0  0  0
   10.1342   12.5871    1.6305 S   0  0  0  0  0  0  0  0  0  0  0  0
    9.9712   13.5574    2.6557 O   0  0  0  0  0  0  0  0  0  0  0  0
    9.1105   11.6640    1.2856 O   0  0  0  0  0  0  0  0  0  0  0  0
   10.5078   13.4179    0.2475 N   0  0  0  0  0  0  0  0  0  0  0  0
   10.4757   14.8888    0.2155 C   0  0  0  0  0  0  0  0  0  0  0  0
   11.8054   15.3842   -0.3753 C   0  0  0  0  0  0  0  0  0  0  0  0
   12.0374   14.7274   -1.6238 O   0  0  0  0  0  0  0  0  0  0  0  0
   12.1806   13.3087   -1.5210 C   0  0  0  0  0  0  0  0  0  0  0  0
   10.8756   12.7071   -0.9872 C   0  0  0  0  0  0  0  0  0  0  0  0
   15.8084    7.2391    4.2388 O   0  0  0  0  0  0  0  0  0  0  0  0
   16.2717    9.1699    8.8711 H   0  0  0  0  0  0  0  0  0  0  0  0
   15.0468    8.0178    8.2512 H   0  0  0  0  0  0  0  0  0  0  0  0
   14.5829    9.7261    8.5839 H   0  0  0  0  0  0  0  0  0  0  0  0
   14.8887    9.4964    6.3004 H   0  0  0  0  0  0  0  0  0  0  0  0
   15.7743   11.4850    7.1896 H   0  0  0  0  0  0  0  0  0  0  0  0
   16.6989   10.9374    5.7553 H   0  0  0  0  0  0  0  0  0  0  0  0
   17.3657   10.6700    7.4068 H   0  0  0  0  0  0  0  0  0  0  0  0
   17.6273    8.4954    6.5271 H   0  0  0  0  0  0  0  0  0  0  0  0
   16.2269    7.3724    6.5927 H   0  0  0  0  0  0  0  0  0  0  0  0
   17.4483    8.5081    4.2697 H   0  0  0  0  0  0  0  0  0  0  0  0
   14.8855    9.8616    5.1289 H   0  0  0  0  0  0  0  0  0  0  0  0
   16.2721   10.5145    4.1919 H   0  0  0  0  0  0  0  0  0  0  0  0
   15.2214    8.6225    2.4559 H   0  0  0  0  0  0  0  0  0  0  0  0
   13.9949   11.4851    4.4091 H   0  0  0  0  0  0  0  0  0  0  0  0
   12.0106   12.8379    3.7867 H   0  0  0  0  0  0  0  0  0  0  0  0
   11.3187   10.2829    0.3980 H   0  0  0  0  0  0  0  0  0  0  0  0
   10.3574   15.2799    1.2368 H   0  0  0  0  0  0  0  0  0  0  0  0
    9.6419   15.2273   -0.4170 H   0  0  0  0  0  0  0  0  0  0  0  0
   11.7536   16.4712   -0.5364 H   0  0  0  0  0  0  0  0  0  0  0  0
   12.6263   15.1526    0.3193 H   0  0  0  0  0  0  0  0  0  0  0  0
   12.3990   12.8884   -2.5138 H   0  0  0  0  0  0  0  0  0  0  0  0
   13.0032   13.0705   -0.8307 H   0  0  0  0  0  0  0  0  0  0  0  0
   11.0243   11.6393   -0.7688 H   0  0  0  0  0  0  0  0  0  0  0  0
   10.0798   12.8298   -1.7367 H   0  0  0  0  0  0  0  0  0  0  0  0
   15.8693    7.2064    3.2512 H   0  0  0  0  0  0  0  0  0  0  0  0
  1  2  1  0  0  0  0
  1 27  1  0  0  0  0
  1 28  1  0  0  0  0
  1 29  1  0  0  0  0
  2  3  1  0  0  0  0
  2  4  1  0  0  0  0
  2 30  1  0  0  0  0
  3 31  1  0  0  0  0
  3 32  1  0  0  0  0
  3 33  1  0  0  0  0
  4  5  1  0  0  0  0
  4 34  1  0  0  0  0
  4 35  1  0  0  0  0
  5  6  1  0  0  0  0
  5 26  1  0  0  0  0
  5 36  1  0  0  0  0
  6  7  1  0  0  0  0
  6 37  1  0  0  0  0
  6 38  1  0  0  0  0
  7  8  1  0  0  0  0
  7 39  1  0  0  0  0
  8 13  2  0  0  0  0
  8  9  1  0  0  0  0
  9 10  2  0  0  0  0
  9 40  1  0  0  0  0
 10 11  1  0  0  0  0
 10 41  1  0  0  0  0
 11 12  2  0  0  0  0
 11 17  1  0  0  0  0
 12 13  1  0  0  0  0
 12 42  1  0  0  0  0
 13 14  1  0  0  0  0
 14 15  2  0  0  0  0
 14 16  2  0  0  0  0
 17 18  2  0  0  0  0
 17 19  2  0  0  0  0
 17 20  1  0  0  0  0
 20 25  1  0  0  0  0
 20 21  1  0  0  0  0
 21 22  1  0  0  0  0
 21 43  1  0  0  0  0
 21 44  1  0  0  0  0
 22 23  1  0  0  0  0
 22 45  1  0  0  0  0
 22 46  1  0  0  0  0
 23 24  1  0  0  0  0
 24 25  1  0  0  0  0
 24 47  1  0  0  0  0
 24 48  1  0  0  0  0
 25 49  1  0  0  0  0
 25 50  1  0  0  0  0
 26 51  1  0  0  0  0
M  END
> <Name>
ZINC31576049

> <reference>
BDB4945

> <quality>
0.852

> <status>
decoy

> <atoms in reference ligand area>
12

> <score>
-26.2757

$$$$
ZINC05835556
      BALL 1.4.0 (Jan  4 2012, 23:22:29)

 40 41  0999  0  0  0  0  0  0999 V2000
    5.0363   10.3779   -0.3648 C   0  0  0  0  0  0  0  0  0  0  0  0
    6.2202    9.6517    0.2769 C   0  0  0  0  0  0  0  0  0  0  0  0
    6.1585    9.8195    1.7964 C   0  0  0  0  0  0  0  0  0  0  0  0
    7.0772   10.8668    2.2055 O   0  0  0  0  0  0  0  0  0  0  0  0
    8.2638   10.4784    2.6982 C   0  0  0  0  0  0  0  0  0  0  0  0
    8.5262    9.3022    2.7850 O   0  0  0  0  0  0  0  0  0  0  0  0
    9.2688   11.5094    3.1433 C   0  0  0  0  0  0  0  0  0  0  0  0
   10.0162   11.2958    4.4597 C   0  0  0  0  0  0  0  0  0  0  0  0
    8.9708   12.4396    4.3339 C   0  0  0  0  0  0  0  0  0  0  0  0
    9.4675   13.8352    3.8880 C   0  0  0  0  0  0  0  0  0  0  0  0
   10.5205   13.4813    2.7946 C   0  0  0  0  0  0  0  0  0  0  0  0
    9.8956   12.3349    2.0955 N   0  0  0  0  0  0  0  0  0  0  0  0
    9.9035   12.0924    0.7698 C   0  0  0  0  0  0  0  0  0  0  0  0
    8.8858   11.7412    0.2114 O   0  0  0  0  0  0  0  0  0  0  0  0
   11.1770   12.2578   -0.0189 C   0  0  0  0  0  0  0  0  0  0  0  0
   11.5290   13.7438   -0.1134 C   0  0  0  0  0  0  0  0  0  0  0  0
   12.1596   14.0265   -1.4525 C   0  0  0  0  0  0  0  0  0  0  0  0
   12.5129   15.1482   -1.7293 O   0  0  0  0  0  0  0  0  0  0  0  0
   12.3287   13.0319   -2.3380 O   0  5  0  0  0  0  0  0  0  0  0  0
   10.9844   11.6881   -1.3641 N   0  3  0  0  0  0  0  0  0  0  0  0
    5.3201   10.7289   -1.3680 H   0  0  0  0  0  0  0  0  0  0  0  0
    4.7520   11.2391    0.2576 H   0  0  0  0  0  0  0  0  0  0  0  0
    4.1831    9.6885   -0.4467 H   0  0  0  0  0  0  0  0  0  0  0  0
    6.1750    8.5820    0.0244 H   0  0  0  0  0  0  0  0  0  0  0  0
    7.1614   10.0780   -0.1004 H   0  0  0  0  0  0  0  0  0  0  0  0
    5.1354   10.0930    2.0940 H   0  0  0  0  0  0  0  0  0  0  0  0
    6.4415    8.8742    2.2826 H   0  0  0  0  0  0  0  0  0  0  0  0
   11.0426   11.6885    4.4122 H   0  0  0  0  0  0  0  0  0  0  0  0
    9.6080   10.4445    5.0242 H   0  0  0  0  0  0  0  0  0  0  0  0
    8.1551   12.7404    5.0078 H   0  0  0  0  0  0  0  0  0  0  0  0
    9.9507   14.3564    4.7276 H   0  0  0  0  0  0  0  0  0  0  0  0
    8.6410   14.4127    3.4484 H   0  0  0  0  0  0  0  0  0  0  0  0
   10.6491   14.3271    2.1032 H   0  0  0  0  0  0  0  0  0  0  0  0
   11.4671   13.1737    3.2629 H   0  0  0  0  0  0  0  0  0  0  0  0
   12.0034   11.7316    0.4814 H   0  0  0  0  0  0  0  0  0  0  0  0
   12.2367   14.0057    0.6870 H   0  0  0  0  0  0  0  0  0  0  0  0
   10.6142   14.3450   -0.0053 H   0  0  0  0  0  0  0  0  0  0  0  0
   10.4789   12.3608   -1.9580 H   0  0  0  0  0  0  0  0  0  0  0  0
   10.4447   10.8134   -1.2977 H   0  0  0  0  0  0  0  0  0  0  0  0
   11.9037   11.4887   -1.7836 H   0  0  0  0  0  0  0  0  0  0  0  0
  1  2  1  0  0  0  0
  1 21  1  0  0  0  0
  1 22  1  0  0  0  0
  1 23  1  0  0  0  0
  2  3  1  0  0  0  0
  2 24  1  0  0  0  0
  2 25  1  0  0  0  0
  3  4  1  0  0  0  0
  3 26  1  0  0  0  0
  3 27  1  0  0  0  0
  4  5  1  0  0  0  0
  5  6  2  0  0  0  0
  5  7  1  0  0  0  0
  7  9  1  0  0  0  0
  7 12  1  0  0  0  0
  7  8  1  0  0  0  0
  8  9  1  0  0  0  0
  8 28  1  0  0  0  0
  8 29  1  0  0  0  0
  9 10  1  0  0  0  0
  9 30  1  0  0  0  0
 10 11  1  0  0  0  0
 10 31  1  0  0  0  0
 10 32  1  0  0  0  0
 11 12  1  0  0  0  0
 11 33  1  0  0  0  0
 11 34  1  0  0  0  0
 12 13  1  0  0  0  0
 13 14  2  0  0  0  0
 13 15  1  0  0  0  0
 15 16  1  0  0  0  0
 15 20  1  0  0  0  0
 15 35  1  0  0  0  0
 16 17  1  0  0  0  0
 16 36  1  0  0  0  0
 16 37  1  0  0  0  0
 17 18  2  0  0  0  0
 17 19  1  0  0  0  0
 20 38  1  0  0  0  0
 20 39  1  0  0  0  0
 20 40  1  0  0  0  0
M  END
> <Name>
ZINC05835556

> <reference>
BDB5195

> <quality>
0.827

> <status>
decoy

> <atoms in reference ligand area>
25

> <score>
-26.2598

$$$$
ZINC21953394
      BALL 1.4.0 (Jan  4 2012, 23:22:29)

 36 37  0999  0  0  0  0  0  0999 V2000
   11.3838   11.0301    4.5452 C   0  0  0  0  0  0  0  0  0  0  0  0
   10.7009   12.3972    4.6192 C   0  0  0  0  0  0  0  0  0  0  0  0
    9.9166   12.6459    3.3293 C   0  0  0  0  0  0  0  0  0  0  0  0
   10.8888   12.9899    2.1958 C   0  0  0  0  0  0  0  0  0  0  0  0
   10.1387   13.2676    1.0079 O   0  0  0  0  0  0  0  0  0  0  0  0
    9.1456   12.3514    0.7217 C   0  0  0  0  0  0  0  0  0  0  0  0
    8.6783   11.4603    1.6920 C   0  0  0  0  0  0  0  0  0  0  0  0
    7.6747   10.5647    1.3230 C   0  0  0  0  0  0  0  0  0  0  0  0
    7.3841   10.9720   -0.3865 S   0  0  0  0  0  0  0  0  0  0  0  0
    8.5796   12.2823   -0.5512 C   0  0  0  0  0  0  0  0  0  0  0  0
    8.8901   13.0911   -1.7332 C   0  0  0  0  0  0  0  0  0  0  0  0
    8.2872   14.1275   -1.9362 O   0  0  0  0  0  0  0  0  0  0  0  0
    9.8447   12.6861   -2.5958 O   0  0  0  0  0  0  0  0  0  0  0  0
    9.6830   13.0713   -3.9863 C   0  0  0  0  0  0  0  0  0  0  0  0
    7.0199    9.5401    2.1410 C   0  0  0  0  0  0  0  0  0  0  0  0
    7.6387    8.5526    2.4887 O   0  0  0  0  0  0  0  0  0  0  0  0
    5.7310    9.6923    2.5082 O   0  0  0  0  0  0  0  0  0  0  0  0
    5.0810    8.5482    3.1221 C   0  0  0  0  0  0  0  0  0  0  0  0
    9.1889   11.4642    2.9752 O   0  0  0  0  0  0  0  0  0  0  0  0
   11.7181   13.4443    4.7834 N   0  3  0  0  0  0  0  0  0  0  0  0
   11.1481   10.5529    3.5826 H   0  0  0  0  0  0  0  0  0  0  0  0
   11.0234   10.3940    5.3671 H   0  0  0  0  0  0  0  0  0  0  0  0
   12.4729   11.1582    4.6327 H   0  0  0  0  0  0  0  0  0  0  0  0
   10.0122   12.4171    5.4767 H   0  0  0  0  0  0  0  0  0  0  0  0
    9.2176   13.4807    3.4867 H   0  0  0  0  0  0  0  0  0  0  0  0
   11.4790   13.8757    2.4734 H   0  0  0  0  0  0  0  0  0  0  0  0
   11.5610   12.1381    2.0152 H   0  0  0  0  0  0  0  0  0  0  0  0
    9.1478   12.2447   -4.4766 H   0  0  0  0  0  0  0  0  0  0  0  0
   10.6953   13.1196   -4.4141 H   0  0  0  0  0  0  0  0  0  0  0  0
    9.1482   14.0255   -4.1023 H   0  0  0  0  0  0  0  0  0  0  0  0
    4.8076    8.8574    4.1418 H   0  0  0  0  0  0  0  0  0  0  0  0
    5.8465    7.7623    3.2011 H   0  0  0  0  0  0  0  0  0  0  0  0
    4.2040    8.2038    2.5543 H   0  0  0  0  0  0  0  0  0  0  0  0
   11.2582   14.3400    5.0010 H   0  0  0  0  0  0  0  0  0  0  0  0
   12.2584   13.5393    3.9117 H   0  0  0  0  0  0  0  0  0  0  0  0
   12.3528   13.1896    5.5536 H   0  0  0  0  0  0  0  0  0  0  0  0
  1  2  1  0  0  0  0
  1 21  1  0  0  0  0
  1 22  1  0  0  0  0
  1 23  1  0  0  0  0
  2  3  1  0  0  0  0
  2 20  1  0  0  0  0
  2 24  1  0  0  0  0
  3 19  1  0  0  0  0
  3  4  1  0  0  0  0
  3 25  1  0  0  0  0
  4  5  1  0  0  0  0
  4 26  1  0  0  0  0
  4 27  1  0  0  0  0
  5  6  1  0  0  0  0
  6 10  2  0  0  0  0
  6  7  1  0  0  0  0
  7  8  2  0  0  0  0
  7 19  1  0  0  0  0
  8  9  1  0  0  0  0
  8 15  1  0  0  0  0
  9 10  1  0  0  0  0
 10 11  1  0  0  0  0
 11 12  2  0  0  0  0
 11 13  1  0  0  0  0
 13 14  1  0  0  0  0
 14 28  1  0  0  0  0
 14 29  1  0  0  0  0
 14 30  1  0  0  0  0
 15 16  2  0  0  0  0
 15 17  1  0  0  0  0
 17 18  1  0  0  0  0
 18 31  1  0  0  0  0
 18 32  1  0  0  0  0
 18 33  1  0  0  0  0
 20 34  1  0  0  0  0
 20 35  1  0  0  0  0
 20 36  1  0  0  0  0
M  END
> <Name>
ZINC21953394

> <reference>
BDB5242

> <quality>
0.723

> <status>
decoy

> <atoms in reference ligand area>
21

> <score>
-26.117

$$$$
ZINC02905111
      BALL 1.4.0 (Jan  4 2012, 23:22:29)

 47 48  0999  0  0  0  0  0  0999 V2000
    9.9236   15.6665    2.0682 C   0  0  0  0  0  0  0  0  0  0  0  0
    9.1902   13.5219    2.9111 C   0  0  0  0  0  0  0  0  0  0  0  0
    7.9819   12.5822    2.9214 C   0  0  0  0  0  0  0  0  0  0  0  0
    7.6404   12.1799    1.5138 C   0  0  0  0  0  0  0  0  0  0  0  0
    8.0867   12.8236    0.4654 C   0  0  0  0  0  0  0  0  0  0  0  0
    8.9885   14.0205    0.5594 C   0  0  0  0  0  0  0  0  0  0  0  0
    6.8160   11.0792    1.3178 N   0  0  0  0  0  0  0  0  0  0  0  0
    6.4093   10.3048    2.4122 N   0  0  0  0  0  0  0  0  0  0  0  0
    6.0636    9.0144    2.2333 C   0  0  0  0  0  0  0  0  0  0  0  0
    6.1045    8.5234    1.1242 O   0  0  0  0  0  0  0  0  0  0  0  0
    5.6302    8.1890    3.3999 C   0  0  0  0  0  0  0  0  0  0  0  0
    6.4370    7.8638    4.2465 O   0  0  0  0  0  0  0  0  0  0  0  0
    4.3431    7.8053    3.5128 N   0  0  0  0  0  0  0  0  0  0  0  0
    3.9172    7.1123    4.6506 C   0  0  0  0  0  0  0  0  0  0  0  0
    2.7283    7.4637    5.2743 C   0  0  0  0  0  0  0  0  0  0  0  0
    2.3068    6.7720    6.3987 C   0  0  0  0  0  0  0  0  0  0  0  0
    3.0773    5.7361    6.9070 C   0  0  0  0  0  0  0  0  0  0  0  0
    4.2645    5.3873    6.2909 C   0  0  0  0  0  0  0  0  0  0  0  0
    4.6886    6.0714    5.1637 C   0  0  0  0  0  0  0  0  0  0  0  0
    5.8569    5.7272    4.5577 O   0  0  0  0  0  0  0  0  0  0  0  0
    7.0476    5.8236    5.3420 C   0  0  0  0  0  0  0  0  0  0  0  0
    1.1395    7.1123    7.0076 O   0  0  0  0  0  0  0  0  0  0  0  0
   -0.0694    6.8094    6.3081 C   0  0  0  0  0  0  0  0  0  0  0  0
    8.9275   14.5840    1.9221 N   0  3  0  0  0  0  0  0  0  0  0  0
   10.9337   15.2315    2.0865 H   0  0  0  0  0  0  0  0  0  0  0  0
    9.7414   16.2039    3.0105 H   0  0  0  0  0  0  0  0  0  0  0  0
    9.8387   16.3655    1.2231 H   0  0  0  0  0  0  0  0  0  0  0  0
   10.0929   12.9630    2.6234 H   0  0  0  0  0  0  0  0  0  0  0  0
    9.3212   13.9680    3.9080 H   0  0  0  0  0  0  0  0  0  0  0  0
    8.2211   11.6843    3.5103 H   0  0  0  0  0  0  0  0  0  0  0  0
    7.1208   13.0962    3.3736 H   0  0  0  0  0  0  0  0  0  0  0  0
    7.7870   12.4708   -0.5324 H   0  0  0  0  0  0  0  0  0  0  0  0
    8.6648   14.7820   -0.1655 H   0  0  0  0  0  0  0  0  0  0  0  0
   10.0221   13.7189    0.3345 H   0  0  0  0  0  0  0  0  0  0  0  0
    6.5037   10.8324    0.3678 H   0  0  0  0  0  0  0  0  0  0  0  0
    6.3746   10.7216    3.3535 H   0  0  0  0  0  0  0  0  0  0  0  0
    3.6732    8.0223    2.7611 H   0  0  0  0  0  0  0  0  0  0  0  0
    2.1213    8.2904    4.8767 H   0  0  0  0  0  0  0  0  0  0  0  0
    2.7427    5.1913    7.8022 H   0  0  0  0  0  0  0  0  0  0  0  0
    4.8731    4.5655    6.6963 H   0  0  0  0  0  0  0  0  0  0  0  0
    7.2505    4.8114    5.7218 H   0  0  0  0  0  0  0  0  0  0  0  0
    6.8004    6.4633    6.2020 H   0  0  0  0  0  0  0  0  0  0  0  0
    7.9009    6.2214    4.7731 H   0  0  0  0  0  0  0  0  0  0  0  0
   -0.2263    7.6298    5.5923 H   0  0  0  0  0  0  0  0  0  0  0  0
   -0.8772    6.8529    7.0535 H   0  0  0  0  0  0  0  0  0  0  0  0
   -0.0358    5.8325    5.8037 H   0  0  0  0  0  0  0  0  0  0  0  0
    7.9877   14.9729    2.0841 H   0  0  0  0  0  0  0  0  0  0  0  0
  1 24  1  0  0  0  0
  1 25  1  0  0  0  0
  1 26  1  0  0  0  0
  1 27  1  0  0  0  0
  2  3  1  0  0  0  0
  2 24  1  0  0  0  0
  2 28  1  0  0  0  0
  2 29  1  0  0  0  0
  3  4  1  0  0  0  0
  3 30  1  0  0  0  0
  3 31  1  0  0  0  0
  4  5  2  0  0  0  0
  4  7  1  0  0  0  0
  5  6  1  0  0  0  0
  5 32  1  0  0  0  0
  6 24  1  0  0  0  0
  6 33  1  0  0  0  0
  6 34  1  0  0  0  0
  7  8  1  0  0  0  0
  7 35  1  0  0  0  0
  8  9  1  0  0  0  0
  8 36  1  0  0  0  0
  9 10  2  0  0  0  0
  9 11  1  0  0  0  0
 11 12  2  0  0  0  0
 11 13  1  0  0  0  0
 13 14  1  0  0  0  0
 13 37  1  0  0  0  0
 14 19  2  0  0  0  0
 14 15  1  0  0  0  0
 15 16  2  0  0  0  0
 15 38  1  0  0  0  0
 16 17  1  0  0  0  0
 16 22  1  0  0  0  0
 17 18  2  0  0  0  0
 17 39  1  0  0  0  0
 18 19  1  0  0  0  0
 18 40  1  0  0  0  0
 19 20  1  0  0  0  0
 20 21  1  0  0  0  0
 21 41  1  0  0  0  0
 21 42  1  0  0  0  0
 21 43  1  0  0  0  0
 22 23  1  0  0  0  0
 23 44  1  0  0  0  0
 23 45  1  0  0  0  0
 23 46  1  0  0  0  0
 24 47  1  0  0  0  0
M  END
> <Name>
ZINC02905111

> <reference>
BDB5200

> <quality>
0.785

> <status>
decoy

> <atoms in reference ligand area>
17

> <score>
-26.0462

$$$$
ZINC31852179
      BALL 1.4.0 (Jan  4 2012, 23:22:29)

 41 43  0999  0  0  0  0  0  0999 V2000
    9.7204    8.1689    7.8314 C   0  0  0  0  0  0  0  0  0  0  0  0
   10.1815    9.0720    6.7740 N   0  0  0  0  0  0  0  0  0  0  0  0
   10.9784    8.6078    5.7913 C   0  0  0  0  0  0  0  0  0  0  0  0
   11.3792    7.4594    5.8245 O   0  0  0  0  0  0  0  0  0  0  0  0
   11.3628    9.4877    4.6803 C   0  0  0  0  0  0  0  0  0  0  0  0
   10.5051   10.1585    3.8615 C   0  0  0  0  0  0  0  0  0  0  0  0
   11.2966   10.8814    2.9366 C   0  0  0  0  0  0  0  0  0  0  0  0
   12.6217   10.6073    3.2372 C   0  0  0  0  0  0  0  0  0  0  0  0
   12.6527    9.7751    4.2885 N   0  0  0  0  0  0  0  0  0  0  0  0
   13.8667    9.2489    4.9174 C   0  0  0  0  0  0  0  0  0  0  0  0
   10.8075   11.7497    1.8612 C   0  0  0  0  0  0  0  0  0  0  0  0
   10.2822   12.8099    2.1292 O   0  0  0  0  0  0  0  0  0  0  0  0
   10.9574   11.3253    0.4230 C   0  0  0  0  0  0  0  0  0  0  0  0
   11.6985   12.6776   -0.5324 S   0  0  0  0  0  0  0  0  0  0  0  0
   10.4892   13.0448   -1.7602 C   0  0  0  0  0  0  0  0  0  0  0  0
    9.6385   12.1950   -2.2823 N   0  0  0  0  0  0  0  0  0  0  0  0
    8.8594   12.8843   -3.2208 N   0  0  0  0  0  0  0  0  0  0  0  0
    9.2559   14.1330   -3.2377 C   0  0  0  0  0  0  0  0  0  0  0  0
   10.2712   14.2661   -2.3335 N   0  0  0  0  0  0  0  0  0  0  0  0
   11.0024   15.5001   -2.0352 C   0  0  0  0  0  0  0  0  0  0  0  0
   10.8024   16.1231   -0.6522 C   0  0  0  0  0  0  0  0  0  0  0  0
   12.1209   15.4245   -0.9939 C   0  0  0  0  0  0  0  0  0  0  0  0
    8.7348   15.1443   -4.0346 N   0  0  0  0  0  0  0  0  0  0  0  0
    8.8767    8.6910    8.3065 H   0  0  0  0  0  0  0  0  0  0  0  0
   10.5410    8.1417    8.5633 H   0  0  0  0  0  0  0  0  0  0  0  0
    9.4449    7.1663    7.4723 H   0  0  0  0  0  0  0  0  0  0  0  0
    9.8968   10.0618    6.7818 H   0  0  0  0  0  0  0  0  0  0  0  0
    9.4062   10.1417    3.9098 H   0  0  0  0  0  0  0  0  0  0  0  0
   13.4983   11.0045    2.7044 H   0  0  0  0  0  0  0  0  0  0  0  0
   13.8300    9.6913    5.9238 H   0  0  0  0  0  0  0  0  0  0  0  0
   14.6673    9.7814    4.3830 H   0  0  0  0  0  0  0  0  0  0  0  0
   13.9833    8.1551    4.9168 H   0  0  0  0  0  0  0  0  0  0  0  0
   11.6070   10.4393    0.3677 H   0  0  0  0  0  0  0  0  0  0  0  0
    9.9689   11.0820    0.0063 H   0  0  0  0  0  0  0  0  0  0  0  0
   10.9265   15.8635   -3.0707 H   0  0  0  0  0  0  0  0  0  0  0  0
   10.1667   15.4925   -0.0133 H   0  0  0  0  0  0  0  0  0  0  0  0
   10.9068   17.2177   -0.6842 H   0  0  0  0  0  0  0  0  0  0  0  0
   12.9187   16.1518   -1.2047 H   0  0  0  0  0  0  0  0  0  0  0  0
   12.1781   14.4262   -0.5355 H   0  0  0  0  0  0  0  0  0  0  0  0
    8.9187   16.1067   -3.7171 H   0  0  0  0  0  0  0  0  0  0  0  0
    8.1959   14.9584   -4.8925 H   0  0  0  0  0  0  0  0  0  0  0  0
  1  2  1  0  0  0  0
  1 24  1  0  0  0  0
  1 25  1  0  0  0  0
  1 26  1  0  0  0  0
  2  3  1  0  0  0  0
  2 27  1  0  0  0  0
  3  4  2  0  0  0  0
  3  5  1  0  0  0  0
  5  9  1  0  0  0  0
  5  6  2  0  0  0  0
  6  7  1  0  0  0  0
  6 28  1  0  0  0  0
  7  8  2  0  0  0  0
  7 11  1  0  0  0  0
  8  9  1  0  0  0  0
  8 29  1  0  0  0  0
  9 10  1  0  0  0  0
 10 30  1  0  0  0  0
 10 31  1  0  0  0  0
 10 32  1  0  0  0  0
 11 12  2  0  0  0  0
 11 13  1  0  0  0  0
 13 14  1  0  0  0  0
 13 33  1  0  0  0  0
 13 34  1  0  0  0  0
 14 15  1  0  0  0  0
 15 19  1  0  0  0  0
 15 16  2  0  0  0  0
 16 17  1  0  0  0  0
 17 18  2  0  0  0  0
 18 19  1  0  0  0  0
 18 23  1  0  0  0  0
 19 20  1  0  0  0  0
 20 22  1  0  0  0  0
 20 21  1  0  0  0  0
 20 35  1  0  0  0  0
 21 22  1  0  0  0  0
 21 36  1  0  0  0  0
 21 37  1  0  0  0  0
 22 38  1  0  0  0  0
 22 39  1  0  0  0  0
 23 40  1  0  0  0  0
 23 41  1  0  0  0  0
M  END
> <Name>
ZINC31852179

> <reference>
BDB5228

> <quality>
0.683

> <status>
decoy

> <atoms in reference ligand area>
13

> <score>
-25.9983

$$$$
ZINC25049844
      BALL 1.4.0 (Jan  4 2012, 23:22:29)

 59 61  0999  0  0  0  0  0  0999 V2000
   13.1953   10.7126    4.0506 C   0  0  0  0  0  0  0  0  0  0  0  0
   12.4170   11.0087    2.7947 C   0  0  0  0  0  0  0  0  0  0  0  0
   12.0731    9.9974    1.9094 C   0  0  0  0  0  0  0  0  0  0  0  0
   11.1880   10.9326    0.6699 S   0  0  0  0  0  0  0  0  0  0  0  0
   11.3561   12.4976    1.4031 C   0  0  0  0  0  0  0  0  0  0  0  0
   12.0466   12.2280    2.5011 N   0  0  0  0  0  0  0  0  0  0  0  0
   10.8882   13.7144    0.9555 N   0  0  0  0  0  0  0  0  0  0  0  0
   10.2370   14.4605    2.0420 C   0  0  0  0  0  0  0  0  0  0  0  0
    9.7865   15.8264    1.5174 C   0  0  0  0  0  0  0  0  0  0  0  0
    8.9205   15.6384    0.3949 O   0  0  0  0  0  0  0  0  0  0  0  0
    9.5229   14.9159   -0.6823 C   0  0  0  0  0  0  0  0  0  0  0  0
    9.9706   13.5407   -0.1800 C   0  0  0  0  0  0  0  0  0  0  0  0
   12.3520    8.5635    1.9752 C   0  0  0  0  0  0  0  0  0  0  0  0
   12.1075    7.9419    2.9931 O   0  0  0  0  0  0  0  0  0  0  0  0
   12.8797    7.9300    0.9090 N   0  0  0  0  0  0  0  0  0  0  0  0
   12.1834    6.8740    0.3064 N   0  0  0  0  0  0  0  0  0  0  0  0
   12.7110    6.2406   -0.7598 C   0  0  0  0  0  0  0  0  0  0  0  0
   11.9978    5.9114   -1.6837 O   0  0  0  0  0  0  0  0  0  0  0  0
   14.1875    5.9413   -0.8038 C   0  0  0  0  0  0  0  0  0  0  0  0
   14.8554    6.8240   -1.8600 C   0  0  0  0  0  0  0  0  0  0  0  0
   16.3011    7.1079   -1.4472 C   0  0  0  0  0  0  0  0  0  0  0  0
   16.9407    7.9530   -2.4585 N   0  0  0  0  0  0  0  0  0  0  0  0
   17.9035    7.4430   -3.2519 C   0  0  0  0  0  0  0  0  0  0  0  0
   18.2412    6.2815   -3.1282 O   0  0  0  0  0  0  0  0  0  0  0  0
   18.5479    8.2944   -4.2709 C   0  0  0  0  0  0  0  0  0  0  0  0
   19.6814    7.8390   -4.9493 C   0  0  0  0  0  0  0  0  0  0  0  0
   20.2794    8.6362   -5.8996 C   0  0  0  0  0  0  0  0  0  0  0  0
   19.7570    9.8924   -6.1843 C   0  0  0  0  0  0  0  0  0  0  0  0
   18.6297   10.3491   -5.5116 C   0  0  0  0  0  0  0  0  0  0  0  0
   18.0258    9.5579   -4.5600 C   0  0  0  0  0  0  0  0  0  0  0  0
   20.3492   10.6750   -7.1216 O   0  0  0  0  0  0  0  0  0  0  0  0
   19.5025   11.2383   -8.1255 C   0  0  0  0  0  0  0  0  0  0  0  0
   12.5332   10.0659    4.6451 H   0  0  0  0  0  0  0  0  0  0  0  0
   13.2615   11.6778    4.5739 H   0  0  0  0  0  0  0  0  0  0  0  0
   14.1811   10.2592    3.8703 H   0  0  0  0  0  0  0  0  0  0  0  0
   10.9480   14.6021    2.8693 H   0  0  0  0  0  0  0  0  0  0  0  0
    9.3618   13.8986    2.4004 H   0  0  0  0  0  0  0  0  0  0  0  0
    9.2471   16.3648    2.3106 H   0  0  0  0  0  0  0  0  0  0  0  0
   10.6659   16.4104    1.2081 H   0  0  0  0  0  0  0  0  0  0  0  0
    8.7916   14.7893   -1.4942 H   0  0  0  0  0  0  0  0  0  0  0  0
   10.3957   15.4714   -1.0560 H   0  0  0  0  0  0  0  0  0  0  0  0
   10.4862   13.0044   -0.9903 H   0  0  0  0  0  0  0  0  0  0  0  0
    9.0910   12.9640    0.1421 H   0  0  0  0  0  0  0  0  0  0  0  0
   13.7947    8.2222    0.5372 H   0  0  0  0  0  0  0  0  0  0  0  0
   11.2684    6.5819    0.6782 H   0  0  0  0  0  0  0  0  0  0  0  0
   14.6330    6.1474    0.1806 H   0  0  0  0  0  0  0  0  0  0  0  0
   14.3407    4.8830   -1.0614 H   0  0  0  0  0  0  0  0  0  0  0  0
   14.8467    6.3055   -2.8301 H   0  0  0  0  0  0  0  0  0  0  0  0
   14.3065    7.7733   -1.9466 H   0  0  0  0  0  0  0  0  0  0  0  0
   16.3105    7.6267   -0.4773 H   0  0  0  0  0  0  0  0  0  0  0  0
   16.8521    6.1597   -1.3611 H   0  0  0  0  0  0  0  0  0  0  0  0
   16.6546    8.9369   -2.5632 H   0  0  0  0  0  0  0  0  0  0  0  0
   20.0954    6.8449   -4.7245 H   0  0  0  0  0  0  0  0  0  0  0  0
   21.1718    8.2783   -6.4342 H   0  0  0  0  0  0  0  0  0  0  0  0
   18.2193   11.3438   -5.7398 H   0  0  0  0  0  0  0  0  0  0  0  0
   17.1336    9.9200   -4.0282 H   0  0  0  0  0  0  0  0  0  0  0  0
   18.4747   11.1639   -7.7408 H   0  0  0  0  0  0  0  0  0  0  0  0
   19.5828   10.5797   -9.0030 H   0  0  0  0  0  0  0  0  0  0  0  0
   19.7684   12.2766   -8.3726 H   0  0  0  0  0  0  0  0  0  0  0  0
  1  2  1  0  0  0  0
  1 33  1  0  0  0  0
  1 34  1  0  0  0  0
  1 35  1  0  0  0  0
  2  6  1  0  0  0  0
  2  3  2  0  0  0  0
  3  4  1  0  0  0  0
  3 13  1  0  0  0  0
  4  5  1  0  0  0  0
  5  6  2  0  0  0  0
  5  7  1  0  0  0  0
  7 12  1  0  0  0  0
  7  8  1  0  0  0  0
  8  9  1  0  0  0  0
  8 36  1  0  0  0  0
  8 37  1  0  0  0  0
  9 10  1  0  0  0  0
  9 38  1  0  0  0  0
  9 39  1  0  0  0  0
 10 11  1  0  0  0  0
 11 12  1  0  0  0  0
 11 40  1  0  0  0  0
 11 41  1  0  0  0  0
 12 42  1  0  0  0  0
 12 43  1  0  0  0  0
 13 14  2  0  0  0  0
 13 15  1  0  0  0  0
 15 16  1  0  0  0  0
 15 44  1  0  0  0  0
 16 17  1  0  0  0  0
 16 45  1  0  0  0  0
 17 18  2  0  0  0  0
 17 19  1  0  0  0  0
 19 20  1  0  0  0  0
 19 46  1  0  0  0  0
 19 47  1  0  0  0  0
 20 21  1  0  0  0  0
 20 48  1  0  0  0  0
 20 49  1  0  0  0  0
 21 22  1  0  0  0  0
 21 50  1  0  0  0  0
 21 51  1  0  0  0  0
 22 23  1  0  0  0  0
 22 52  1  0  0  0  0
 23 24  2  0  0  0  0
 23 25  1  0  0  0  0
 25 30  2  0  0  0  0
 25 26  1  0  0  0  0
 26 27  2  0  0  0  0
 26 53  1  0  0  0  0
 27 28  1  0  0  0  0
 27 54  1  0  0  0  0
 28 29  2  0  0  0  0
 28 31  1  0  0  0  0
 29 30  1  0  0  0  0
 29 55  1  0  0  0  0
 30 56  1  0  0  0  0
 31 32  1  0  0  0  0
 32 57  1  0  0  0  0
 32 58  1  0  0  0  0
 32 59  1  0  0  0  0
M  END
> <Name>
ZINC25049844

> <reference>
BDB4972

> <quality>
0.668

> <status>
decoy

> <atoms in reference ligand area>
11

> <score>
-25.9682

$$$$
ZINC31792221
      BALL 1.4.0 (Jan  4 2012, 23:22:29)

 33 34  0999  0  0  0  0  0  0999 V2000
    6.8394   12.3165   -1.5439 C   0  0  0  0  0  0  0  0  0  0  0  0
    7.6265   11.6726   -0.4317 C   0  0  0  0  0  0  0  0  0  0  0  0
    8.7810   12.2259    0.0101 C   0  0  0  0  0  0  0  0  0  0  0  0
    9.2376   11.0660    1.2902 S   0  0  0  0  0  0  0  0  0  0  0  0
    7.8886    9.9875    1.1102 C   0  0  0  0  0  0  0  0  0  0  0  0
    7.2084   10.5547    0.1313 N   0  0  0  0  0  0  0  0  0  0  0  0
    7.5214    8.5148    2.0052 S   0  0  0  0  0  0  0  0  0  0  0  0
    7.7015    9.1240    3.7000 C   0  0  0  0  0  0  0  0  0  0  0  0
    7.4217    7.9857    4.6835 C   0  0  0  0  0  0  0  0  0  0  0  0
    5.9950    7.9670    5.0157 N   0  0  0  0  0  0  0  0  0  0  0  0
    5.1000    7.1248    4.4628 C   0  0  0  0  0  0  0  0  0  0  0  0
    5.3151    6.2729    3.6275 O   0  0  0  0  0  0  0  0  0  0  0  0
    3.7682    7.4648    5.1019 C   0  0  0  0  0  0  0  0  0  0  0  0
    4.0985    8.5622    6.0275 N   0  5  0  0  0  0  0  0  0  0  0  0
    5.4208    8.7801    5.9096 C   0  0  0  0  0  0  0  0  0  0  0  0
    6.0256    9.6236    6.5420 O   0  0  0  0  0  0  0  0  0  0  0  0
    9.4835   13.4782   -0.4473 C   0  0  0  0  0  0  0  0  0  0  0  0
   10.6180   13.1100   -1.3684 C   0  0  0  0  0  0  0  0  0  0  0  0
   10.4261   13.0247   -2.5629 O   0  0  0  0  0  0  0  0  0  0  0  0
   11.8460   12.8754   -0.8647 N   0  0  0  0  0  0  0  0  0  0  0  0
    7.2840   11.9225   -2.4697 H   0  0  0  0  0  0  0  0  0  0  0  0
    7.0951   13.3850   -1.4894 H   0  0  0  0  0  0  0  0  0  0  0  0
    5.7557   12.1373   -1.4854 H   0  0  0  0  0  0  0  0  0  0  0  0
    8.7267    9.4937    3.8499 H   0  0  0  0  0  0  0  0  0  0  0  0
    6.9875    9.9423    3.8746 H   0  0  0  0  0  0  0  0  0  0  0  0
    7.7032    7.0266    4.2242 H   0  0  0  0  0  0  0  0  0  0  0  0
    8.0091    8.1395    5.6007 H   0  0  0  0  0  0  0  0  0  0  0  0
    3.0583    7.8129    4.3371 H   0  0  0  0  0  0  0  0  0  0  0  0
    3.3824    6.5993    5.6606 H   0  0  0  0  0  0  0  0  0  0  0  0
    9.8810   14.0167    0.4257 H   0  0  0  0  0  0  0  0  0  0  0  0
    8.7716   14.1233   -0.9831 H   0  0  0  0  0  0  0  0  0  0  0  0
   12.2920   11.9571   -1.0015 H   0  0  0  0  0  0  0  0  0  0  0  0
   12.3384   13.6145   -0.3430 H   0  0  0  0  0  0  0  0  0  0  0  0
  1  2  1  0  0  0  0
  1 21  1  0  0  0  0
  1 22  1  0  0  0  0
  1 23  1  0  0  0  0
  2  6  1  0  0  0  0
  2  3  2  0  0  0  0
  3  4  1  0  0  0  0
  3 17  1  0  0  0  0
  4  5  1  0  0  0  0
  5  6  2  0  0  0  0
  5  7  1  0  0  0  0
  7  8  1  0  0  0  0
  8  9  1  0  0  0  0
  8 24  1  0  0  0  0
  8 25  1  0  0  0  0
  9 10  1  0  0  0  0
  9 26  1  0  0  0  0
  9 27  1  0  0  0  0
 10 15  1  0  0  0  0
 10 11  1  0  0  0  0
 11 12  2  0  0  0  0
 11 13  1  0  0  0  0
 13 14  1  0  0  0  0
 13 28  1  0  0  0  0
 13 29  1  0  0  0  0
 14 15  1  0  0  0  0
 15 16  2  0  0  0  0
 17 18  1  0  0  0  0
 17 30  1  0  0  0  0
 17 31  1  0  0  0  0
 18 19  2  0  0  0  0
 18 20  1  0  0  0  0
 20 32  1  0  0  0  0
 20 33  1  0  0  0  0
M  END
> <Name>
ZINC31792221

> <reference>
BDB5200

> <quality>
0.726

> <status>
decoy

> <atoms in reference ligand area>
14

> <score>
-25.907

$$$$
ZINC04535649
      BALL 1.4.0 (Jan  4 2012, 23:22:29)

 46 47  0999  0  0  0  0  0  0999 V2000
    6.3760    9.1689    1.7925 C   0  0  0  0  0  0  0  0  0  0  0  0
    7.4377   10.2057    2.0549 C   0  0  0  0  0  0  0  0  0  0  0  0
    7.2035   11.3791    1.8510 O   0  0  0  0  0  0  0  0  0  0  0  0
    8.7075    9.8114    2.5390 C   0  0  0  0  0  0  0  0  0  0  0  0
    9.3705    8.6686    2.2338 C   0  0  0  0  0  0  0  0  0  0  0  0
   10.6624    8.6509    2.9547 C   0  0  0  0  0  0  0  0  0  0  0  0
   11.4854    7.7597    2.8891 O   0  0  0  0  0  0  0  0  0  0  0  0
   10.7913    9.7681    3.6931 N   0  0  0  0  0  0  0  0  0  0  0  0
    9.5865   10.5825    3.4959 C   0  0  0  0  0  0  0  0  0  0  0  0
    9.9550   11.9168    2.9000 C   0  0  0  0  0  0  0  0  0  0  0  0
   10.4741   12.9133    3.7039 C   0  0  0  0  0  0  0  0  0  0  0  0
   10.8127   14.1373    3.1578 C   0  0  0  0  0  0  0  0  0  0  0  0
   10.6335   14.3674    1.8060 C   0  0  0  0  0  0  0  0  0  0  0  0
   10.1145   13.3745    0.9981 C   0  0  0  0  0  0  0  0  0  0  0  0
    9.7734   12.1453    1.5439 C   0  0  0  0  0  0  0  0  0  0  0  0
    9.2623   11.1669    0.7513 O   0  0  0  0  0  0  0  0  0  0  0  0
    8.3266   11.5674   -0.2518 C   0  0  0  0  0  0  0  0  0  0  0  0
   11.9337   10.1117    4.5434 C   0  0  0  0  0  0  0  0  0  0  0  0
   12.8401   11.0989    3.8054 C   0  0  0  0  0  0  0  0  0  0  0  0
   15.1329   10.9210    4.5630 C   0  0  0  0  0  0  0  0  0  0  0  0
   16.0792   11.3026    5.7030 C   0  0  0  0  0  0  0  0  0  0  0  0
   15.5522   10.8212    6.9409 O   0  0  0  0  0  0  0  0  0  0  0  0
    8.9224    7.7001    1.4042 O   0  5  0  0  0  0  0  0  0  0  0  0
   13.8490   11.6240    4.7447 N   0  3  0  0  0  0  0  0  0  0  0  0
    5.6317    9.6663    1.1533 H   0  0  0  0  0  0  0  0  0  0  0  0
    5.9043    8.9786    2.7678 H   0  0  0  0  0  0  0  0  0  0  0  0
    6.7710    8.2501    1.3345 H   0  0  0  0  0  0  0  0  0  0  0  0
    9.0712   10.7741    4.4486 H   0  0  0  0  0  0  0  0  0  0  0  0
   10.6180   12.7326    4.7794 H   0  0  0  0  0  0  0  0  0  0  0  0
   11.2254   14.9296    3.7997 H   0  0  0  0  0  0  0  0  0  0  0  0
   10.9044   15.3420    1.3738 H   0  0  0  0  0  0  0  0  0  0  0  0
    9.9718   13.5581   -0.0770 H   0  0  0  0  0  0  0  0  0  0  0  0
    8.3424   10.7814   -1.0212 H   0  0  0  0  0  0  0  0  0  0  0  0
    8.7294   12.4873   -0.7009 H   0  0  0  0  0  0  0  0  0  0  0  0
    7.3138   11.7220    0.1486 H   0  0  0  0  0  0  0  0  0  0  0  0
   11.5723   10.5723    5.4747 H   0  0  0  0  0  0  0  0  0  0  0  0
   12.5022    9.2006    4.7815 H   0  0  0  0  0  0  0  0  0  0  0  0
   13.3449   10.5841    2.9746 H   0  0  0  0  0  0  0  0  0  0  0  0
   12.2367   11.9306    3.4125 H   0  0  0  0  0  0  0  0  0  0  0  0
   15.5790   11.2141    3.6012 H   0  0  0  0  0  0  0  0  0  0  0  0
   14.9612    9.8345    4.5747 H   0  0  0  0  0  0  0  0  0  0  0  0
   17.0672   10.8525    5.5258 H   0  0  0  0  0  0  0  0  0  0  0  0
   16.1778   12.3973    5.7483 H   0  0  0  0  0  0  0  0  0  0  0  0
   14.8474   11.4374    7.2624 H   0  0  0  0  0  0  0  0  0  0  0  0
   13.9843   12.6306    4.5730 H   0  0  0  0  0  0  0  0  0  0  0  0
   13.5202   11.4882    5.7113 H   0  0  0  0  0  0  0  0  0  0  0  0
  1  2  1  0  0  0  0
  1 25  1  0  0  0  0
  1 26  1  0  0  0  0
  1 27  1  0  0  0  0
  2  3  2  0  0  0  0
  2  4  1  0  0  0  0
  4  9  1  0  0  0  0
  4  5  2  0  0  0  0
  5  6  1  0  0  0  0
  5 23  1  0  0  0  0
  6  7  2  0  0  0  0
  6  8  1  0  0  0  0
  8  9  1  0  0  0  0
  8 18  1  0  0  0  0
  9 10  1  0  0  0  0
  9 28  1  0  0  0  0
 10 15  2  0  0  0  0
 10 11  1  0  0  0  0
 11 12  2  0  0  0  0
 11 29  1  0  0  0  0
 12 13  1  0  0  0  0
 12 30  1  0  0  0  0
 13 14  2  0  0  0  0
 13 31  1  0  0  0  0
 14 15  1  0  0  0  0
 14 32  1  0  0  0  0
 15 16  1  0  0  0  0
 16 17  1  0  0  0  0
 17 33  1  0  0  0  0
 17 34  1  0  0  0  0
 17 35  1  0  0  0  0
 18 19  1  0  0  0  0
 18 36  1  0  0  0  0
 18 37  1  0  0  0  0
 19 24  1  0  0  0  0
 19 38  1  0  0  0  0
 19 39  1  0  0  0  0
 20 21  1  0  0  0  0
 20 24  1  0  0  0  0
 20 40  1  0  0  0  0
 20 41  1  0  0  0  0
 21 22  1  0  0  0  0
 21 42  1  0  0  0  0
 21 43  1  0  0  0  0
 22 44  1  0  0  0  0
 24 45  1  0  0  0  0
 24 46  1  0  0  0  0
M  END
> <Name>
ZINC04535649

> <reference>
BDB5013

> <quality>
0.764

> <status>
decoy

> <atoms in reference ligand area>
15

> <score>
-25.8924

$$$$
ZINC31219731
      BALL 1.4.0 (Jan  4 2012, 23:22:29)

 46 47  0999  0  0  0  0  0  0999 V2000
   16.5557   12.0536    6.1354 C   0  0  0  0  0  0  0  0  0  0  0  0
   15.9505   11.5114    7.4319 C   0  0  0  0  0  0  0  0  0  0  0  0
   16.0151    9.6986    7.4173 S   0  0  0  0  0  0  0  0  0  0  0  0
   17.3361    9.2582    7.1335 O   0  0  0  0  0  0  0  0  0  0  0  0
   15.2995    9.1744    8.5274 O   0  0  0  0  0  0  0  0  0  0  0  0
   15.1270    9.2517    6.0929 N   0  0  0  0  0  0  0  0  0  0  0  0
   15.4608    9.7897    4.7717 C   0  0  0  0  0  0  0  0  0  0  0  0
   14.5760    9.1280    3.7133 C   0  0  0  0  0  0  0  0  0  0  0  0
   13.4714   10.0267    3.3690 N   0  0  0  0  0  0  0  0  0  0  0  0
   12.2130    9.7217    3.7429 C   0  0  0  0  0  0  0  0  0  0  0  0
   11.9942    8.6996    4.3667 O   0  0  0  0  0  0  0  0  0  0  0  0
   11.1102   10.6190    3.3991 C   0  0  0  0  0  0  0  0  0  0  0  0
   11.2266   11.7308    2.7464 N   0  0  0  0  0  0  0  0  0  0  0  0
   10.0203   12.3987    2.5455 N   0  0  0  0  0  0  0  0  0  0  0  0
    8.9356   11.6209    3.1644 C   0  0  0  0  0  0  0  0  0  0  0  0
    9.6583   10.3951    3.7567 C   0  0  0  0  0  0  0  0  0  0  0  0
    7.9285   11.1927    2.1283 C   0  0  0  0  0  0  0  0  0  0  0  0
    8.1251   11.4331    0.9559 O   0  0  0  0  0  0  0  0  0  0  0  0
    6.8095   10.5426    2.5045 N   0  0  0  0  0  0  0  0  0  0  0  0
    9.8667   13.6124    1.8714 C   0  0  0  0  0  0  0  0  0  0  0  0
   10.0476   13.6716    0.4950 C   0  0  0  0  0  0  0  0  0  0  0  0
    9.8906   14.8716   -0.1699 C   0  0  0  0  0  0  0  0  0  0  0  0
    9.5633   16.0177    0.5355 C   0  0  0  0  0  0  0  0  0  0  0  0
    9.3876   15.9623    1.9082 C   0  0  0  0  0  0  0  0  0  0  0  0
    9.5384   14.7637    2.5767 C   0  0  0  0  0  0  0  0  0  0  0  0
    9.4148   17.1916   -0.1165 F   0  0  0  0  0  0  0  0  0  0  0  0
   16.6825   13.1433    6.2162 H   0  0  0  0  0  0  0  0  0  0  0  0
   15.8865   11.8243    5.2930 H   0  0  0  0  0  0  0  0  0  0  0  0
   17.5351   11.5836    5.9624 H   0  0  0  0  0  0  0  0  0  0  0  0
   16.5231   11.8913    8.2909 H   0  0  0  0  0  0  0  0  0  0  0  0
   14.9039   11.8395    7.5147 H   0  0  0  0  0  0  0  0  0  0  0  0
   14.3401    8.5956    6.1981 H   0  0  0  0  0  0  0  0  0  0  0  0
   15.2902   10.8763    4.7643 H   0  0  0  0  0  0  0  0  0  0  0  0
   16.5175    9.5829    4.5466 H   0  0  0  0  0  0  0  0  0  0  0  0
   15.1735    8.9205    2.8133 H   0  0  0  0  0  0  0  0  0  0  0  0
   14.1708    8.1852    4.1098 H   0  0  0  0  0  0  0  0  0  0  0  0
   13.6566   10.8916    2.8411 H   0  0  0  0  0  0  0  0  0  0  0  0
    8.3757   12.1941    3.9180 H   0  0  0  0  0  0  0  0  0  0  0  0
    9.5342   10.3749    4.8495 H   0  0  0  0  0  0  0  0  0  0  0  0
    9.2885    9.4733    3.2838 H   0  0  0  0  0  0  0  0  0  0  0  0
    6.0733   11.0424    3.0233 H   0  0  0  0  0  0  0  0  0  0  0  0
    6.6905    9.5461    2.2732 H   0  0  0  0  0  0  0  0  0  0  0  0
   10.3158   12.7634   -0.0646 H   0  0  0  0  0  0  0  0  0  0  0  0
   10.0254   14.9173   -1.2606 H   0  0  0  0  0  0  0  0  0  0  0  0
    9.1277   16.8738    2.4663 H   0  0  0  0  0  0  0  0  0  0  0  0
    9.3988   14.7202    3.6670 H   0  0  0  0  0  0  0  0  0  0  0  0
  1  2  1  0  0  0  0
  1 27  1  0  0  0  0
  1 28  1  0  0  0  0
  1 29  1  0  0  0  0
  2  3  1  0  0  0  0
  2 30  1  0  0  0  0
  2 31  1  0  0  0  0
  3  4  2  0  0  0  0
  3  5  2  0  0  0  0
  3  6  1  0  0  0  0
  6  7  1  0  0  0  0
  6 32  1  0  0  0  0
  7  8  1  0  0  0  0
  7 33  1  0  0  0  0
  7 34  1  0  0  0  0
  8  9  1  0  0  0  0
  8 35  1  0  0  0  0
  8 36  1  0  0  0  0
  9 10  1  0  0  0  0
  9 37  1  0  0  0  0
 10 11  2  0  0  0  0
 10 12  1  0  0  0  0
 12 16  1  0  0  0  0
 12 13  2  0  0  0  0
 13 14  1  0  0  0  0
 14 15  1  0  0  0  0
 14 20  1  0  0  0  0
 15 16  1  0  0  0  0
 15 17  1  0  0  0  0
 15 38  1  0  0  0  0
 16 39  1  0  0  0  0
 16 40  1  0  0  0  0
 17 18  2  0  0  0  0
 17 19  1  0  0  0  0
 19 41  1  0  0  0  0
 19 42  1  0  0  0  0
 20 25  2  0  0  0  0
 20 21  1  0  0  0  0
 21 22  2  0  0  0  0
 21 43  1  0  0  0  0
 22 23  1  0  0  0  0
 22 44  1  0  0  0  0
 23 24  2  0  0  0  0
 23 26  1  0  0  0  0
 24 25  1  0  0  0  0
 24 45  1  0  0  0  0
 25 46  1  0  0  0  0
M  END
> <Name>
ZINC31219731

> <reference>
BDB4945

> <quality>
0.719

> <status>
decoy

> <atoms in reference ligand area>
15

> <score>
-25.8713

$$$$
ZINC02428102
      BALL 1.4.0 (Jan  4 2012, 23:22:29)

 56 58  0999  0  0  0  0  0  0999 V2000
    9.7991    7.8401    5.2988 C   0  0  0  0  0  0  0  0  0  0  0  0
    9.9933    8.6209    4.1178 O   0  0  0  0  0  0  0  0  0  0  0  0
   11.0392    9.4864    4.1163 C   0  0  0  0  0  0  0  0  0  0  0  0
   12.2463    9.1196    4.6806 C   0  0  0  0  0  0  0  0  0  0  0  0
   13.3175   10.0007    4.6756 C   0  0  0  0  0  0  0  0  0  0  0  0
   13.1955   11.2553    4.1198 C   0  0  0  0  0  0  0  0  0  0  0  0
   11.9888   11.6526    3.5493 C   0  0  0  0  0  0  0  0  0  0  0  0
   10.9000   10.7610    3.5470 C   0  0  0  0  0  0  0  0  0  0  0  0
    9.7918   11.4538    2.8890 C   0  0  0  0  0  0  0  0  0  0  0  0
   10.2610   12.7031    2.5355 C   0  0  0  0  0  0  0  0  0  0  0  0
   11.5853   12.8161    2.9363 N   0  0  0  0  0  0  0  0  0  0  0  0
    9.5126   13.7066    1.8721 C   0  0  0  0  0  0  0  0  0  0  0  0
    8.5747   13.3965    1.1615 O   0  0  0  0  0  0  0  0  0  0  0  0
    9.8400   15.0067    2.0284 O   0  0  0  0  0  0  0  0  0  0  0  0
    9.0597   15.7653    2.9546 C   0  0  0  0  0  0  0  0  0  0  0  0
    8.5145   10.9515    2.6637 N   0  0  0  0  0  0  0  0  0  0  0  0
    7.9145   10.1908    3.6006 C   0  0  0  0  0  0  0  0  0  0  0  0
    8.4568   10.0051    4.6694 O   0  0  0  0  0  0  0  0  0  0  0  0
    6.5698    9.5709    3.3201 C   0  0  0  0  0  0  0  0  0  0  0  0
    6.0034    8.9761    4.6109 C   0  0  0  0  0  0  0  0  0  0  0  0
    4.8123    7.2152    3.4529 C   0  0  0  0  0  0  0  0  0  0  0  0
    3.4176    6.7038    3.0844 C   0  0  0  0  0  0  0  0  0  0  0  0
    2.6700    6.3099    4.3613 C   0  0  0  0  0  0  0  0  0  0  0  0
    2.5987    7.5207    5.2958 C   0  0  0  0  0  0  0  0  0  0  0  0
    4.0170    8.0084    5.6001 C   0  0  0  0  0  0  0  0  0  0  0  0
    1.2747    5.8619    4.0100 C   0  0  0  0  0  0  0  0  0  0  0  0
    0.5744    5.3422    4.8529 O   0  0  0  0  0  0  0  0  0  0  0  0
    0.8049    6.0390    2.7593 N   0  0  0  0  0  0  0  0  0  0  0  0
    4.6737    8.3948    4.3331 N   0  3  0  0  0  0  0  0  0  0  0  0
    8.7519    7.9901    5.6001 H   0  0  0  0  0  0  0  0  0  0  0  0
   10.4402    8.2860    6.0734 H   0  0  0  0  0  0  0  0  0  0  0  0
   10.0283    6.7750    5.1471 H   0  0  0  0  0  0  0  0  0  0  0  0
   12.3581    8.1245    5.1358 H   0  0  0  0  0  0  0  0  0  0  0  0
   14.2756    9.6940    5.1205 H   0  0  0  0  0  0  0  0  0  0  0  0
   14.0528   11.9445    4.1268 H   0  0  0  0  0  0  0  0  0  0  0  0
   12.1774   13.6471    2.7956 H   0  0  0  0  0  0  0  0  0  0  0  0
    8.6420   16.6105    2.3880 H   0  0  0  0  0  0  0  0  0  0  0  0
    9.7653   16.1707    3.6947 H   0  0  0  0  0  0  0  0  0  0  0  0
    8.2692   15.1685    3.4333 H   0  0  0  0  0  0  0  0  0  0  0  0
    8.0272   11.1609    1.7808 H   0  0  0  0  0  0  0  0  0  0  0  0
    6.6811    8.7755    2.5686 H   0  0  0  0  0  0  0  0  0  0  0  0
    5.8830   10.3414    2.9398 H   0  0  0  0  0  0  0  0  0  0  0  0
    5.9069    9.7665    5.3697 H   0  0  0  0  0  0  0  0  0  0  0  0
    6.6779    8.1896    4.9802 H   0  0  0  0  0  0  0  0  0  0  0  0
    5.3662    6.4253    3.9813 H   0  0  0  0  0  0  0  0  0  0  0  0
    5.3541    7.5004    2.5390 H   0  0  0  0  0  0  0  0  0  0  0  0
    3.5089    5.8261    2.4277 H   0  0  0  0  0  0  0  0  0  0  0  0
    2.8612    7.4971    2.5638 H   0  0  0  0  0  0  0  0  0  0  0  0
    3.2009    5.4868    4.8619 H   0  0  0  0  0  0  0  0  0  0  0  0
    2.1010    7.2332    6.2337 H   0  0  0  0  0  0  0  0  0  0  0  0
    2.0302    8.3271    4.8095 H   0  0  0  0  0  0  0  0  0  0  0  0
    4.5899    7.2009    6.0795 H   0  0  0  0  0  0  0  0  0  0  0  0
    3.9708    8.8792    6.2707 H   0  0  0  0  0  0  0  0  0  0  0  0
    0.5117    5.2257    2.1993 H   0  0  0  0  0  0  0  0  0  0  0  0
    0.7391    6.9876    2.3633 H   0  0  0  0  0  0  0  0  0  0  0  0
    4.0923    9.0995    3.8573 H   0  0  0  0  0  0  0  0  0  0  0  0
  1  2  1  0  0  0  0
  1 30  1  0  0  0  0
  1 31  1  0  0  0  0
  1 32  1  0  0  0  0
  2  3  1  0  0  0  0
  3  8  2  0  0  0  0
  3  4  1  0  0  0  0
  4  5  2  0  0  0  0
  4 33  1  0  0  0  0
  5  6  1  0  0  0  0
  5 34  1  0  0  0  0
  6  7  2  0  0  0  0
  6 35  1  0  0  0  0
  7 11  1  0  0  0  0
  7  8  1  0  0  0  0
  8  9  1  0  0  0  0
  9 10  2  0  0  0  0
  9 16  1  0  0  0  0
 10 11  1  0  0  0  0
 10 12  1  0  0  0  0
 11 36  1  0  0  0  0
 12 13  2  0  0  0  0
 12 14  1  0  0  0  0
 14 15  1  0  0  0  0
 15 37  1  0  0  0  0
 15 38  1  0  0  0  0
 15 39  1  0  0  0  0
 16 17  1  0  0  0  0
 16 40  1  0  0  0  0
 17 18  2  0  0  0  0
 17 19  1  0  0  0  0
 19 20  1  0  0  0  0
 19 41  1  0  0  0  0
 19 42  1  0  0  0  0
 20 29  1  0  0  0  0
 20 43  1  0  0  0  0
 20 44  1  0  0  0  0
 21 22  1  0  0  0  0
 21 29  1  0  0  0  0
 21 45  1  0  0  0  0
 21 46  1  0  0  0  0
 22 23  1  0  0  0  0
 22 47  1  0  0  0  0
 22 48  1  0  0  0  0
 23 24  1  0  0  0  0
 23 26  1  0  0  0  0
 23 49  1  0  0  0  0
 24 25  1  0  0  0  0
 24 50  1  0  0  0  0
 24 51  1  0  0  0  0
 25 29  1  0  0  0  0
 25 52  1  0  0  0  0
 25 53  1  0  0  0  0
 26 27  2  0  0  0  0
 26 28  1  0  0  0  0
 28 54  1  0  0  0  0
 28 55  1  0  0  0  0
 29 56  1  0  0  0  0
M  END
> <Name>
ZINC02428102

> <reference>
BDB5007

> <quality>
0.833

> <status>
decoy

> <atoms in reference ligand area>
11

> <score>
-25.8702

$$$$
ZINC02269343
      BALL 1.4.0 (Jan  4 2012, 23:22:29)

 50 51  0999  0  0  0  0  0  0999 V2000
    9.1327   10.2137    1.4313 C   0  0  0  0  0  0  0  0  0  0  0  0
   10.4277   10.7409    0.8689 C   0  0  0  0  0  0  0  0  0  0  0  0
   10.4415   11.8799    0.1961 C   0  0  0  0  0  0  0  0  0  0  0  0
   11.7348   12.5066   -0.2901 C   0  0  0  0  0  0  0  0  0  0  0  0
   11.5838   12.7675   -1.6907 O   0  0  0  0  0  0  0  0  0  0  0  0
   10.3891   13.2711   -2.1037 C   0  0  0  0  0  0  0  0  0  0  0  0
   10.3186   13.9060   -3.3365 C   0  0  0  0  0  0  0  0  0  0  0  0
    9.1153   14.4117   -3.7891 C   0  0  0  0  0  0  0  0  0  0  0  0
    7.9774   14.2978   -3.0120 C   0  0  0  0  0  0  0  0  0  0  0  0
    8.0397   13.6708   -1.7823 C   0  0  0  0  0  0  0  0  0  0  0  0
    9.2446   13.1585   -1.3233 C   0  0  0  0  0  0  0  0  0  0  0  0
    9.2887   12.5590   -0.0998 O   0  0  0  0  0  0  0  0  0  0  0  0
   11.6150   10.0261    1.0585 N   0  0  0  0  0  0  0  0  0  0  0  0
   11.9632    8.9825    0.1669 O   0  0  0  0  0  0  0  0  0  0  0  0
   13.2003    8.3393    0.4798 C   0  0  0  0  0  0  0  0  0  0  0  0
   13.5986    7.4127   -0.6707 C   0  0  0  0  0  0  0  0  0  0  0  0
   12.5745    6.2825   -0.7933 C   0  0  0  0  0  0  0  0  0  0  0  0
   11.6883    4.5968   -2.2885 C   0  0  0  0  0  0  0  0  0  0  0  0
   11.9616    3.8334   -3.5860 C   0  0  0  0  0  0  0  0  0  0  0  0
   11.8199    3.6439   -1.0988 C   0  0  0  0  0  0  0  0  0  0  0  0
   10.2719    5.1742   -2.3252 C   0  0  0  0  0  0  0  0  0  0  0  0
   14.8901    6.8590   -0.4112 O   0  0  0  0  0  0  0  0  0  0  0  0
   12.6663    5.6913   -2.1417 N   0  3  0  0  0  0  0  0  0  0  0  0
    9.3874    9.2420    1.8795 H   0  0  0  0  0  0  0  0  0  0  0  0
    8.4977   10.0147    0.5555 H   0  0  0  0  0  0  0  0  0  0  0  0
    8.6543   10.8949    2.1504 H   0  0  0  0  0  0  0  0  0  0  0  0
   12.5699   11.8089   -0.1298 H   0  0  0  0  0  0  0  0  0  0  0  0
   11.9151   13.4497    0.2465 H   0  0  0  0  0  0  0  0  0  0  0  0
   11.2232   14.0067   -3.9543 H   0  0  0  0  0  0  0  0  0  0  0  0
    9.0624   14.9062   -4.7702 H   0  0  0  0  0  0  0  0  0  0  0  0
    7.0220   14.7066   -3.3729 H   0  0  0  0  0  0  0  0  0  0  0  0
    7.1330   13.5777   -1.1665 H   0  0  0  0  0  0  0  0  0  0  0  0
   12.2360   10.2588    1.8465 H   0  0  0  0  0  0  0  0  0  0  0  0
   13.9822    9.0991    0.6254 H   0  0  0  0  0  0  0  0  0  0  0  0
   13.0856    7.7499    1.4014 H   0  0  0  0  0  0  0  0  0  0  0  0
   13.6269    7.9853   -1.6095 H   0  0  0  0  0  0  0  0  0  0  0  0
   12.7866    5.5107   -0.0389 H   0  0  0  0  0  0  0  0  0  0  0  0
   11.5623    6.6838   -0.6369 H   0  0  0  0  0  0  0  0  0  0  0  0
   12.8199    4.2854   -4.1048 H   0  0  0  0  0  0  0  0  0  0  0  0
   11.0747    3.8818   -4.2349 H   0  0  0  0  0  0  0  0  0  0  0  0
   12.1873    2.7823   -3.3533 H   0  0  0  0  0  0  0  0  0  0  0  0
   11.2265    2.7369   -1.2866 H   0  0  0  0  0  0  0  0  0  0  0  0
   11.4524    4.1397   -0.1882 H   0  0  0  0  0  0  0  0  0  0  0  0
   12.8763    3.3683   -0.9640 H   0  0  0  0  0  0  0  0  0  0  0  0
   10.3158    6.2389   -2.5980 H   0  0  0  0  0  0  0  0  0  0  0  0
    9.8062    5.0692   -1.3342 H   0  0  0  0  0  0  0  0  0  0  0  0
    9.6727    4.6303   -3.0702 H   0  0  0  0  0  0  0  0  0  0  0  0
   15.5763    7.5682   -0.4911 H   0  0  0  0  0  0  0  0  0  0  0  0
   13.6162    5.3214   -2.2893 H   0  0  0  0  0  0  0  0  0  0  0  0
   12.4738    6.4172   -2.8466 H   0  0  0  0  0  0  0  0  0  0  0  0
  1  2  1  0  0  0  0
  1 24  1  0  0  0  0
  1 25  1  0  0  0  0
  1 26  1  0  0  0  0
  2  3  2  0  0  0  0
  2 13  1  0  0  0  0
  3 12  1  0  0  0  0
  3  4  1  0  0  0  0
  4  5  1  0  0  0  0
  4 27  1  0  0  0  0
  4 28  1  0  0  0  0
  5  6  1  0  0  0  0
  6 11  2  0  0  0  0
  6  7  1  0  0  0  0
  7  8  2  0  0  0  0
  7 29  1  0  0  0  0
  8  9  1  0  0  0  0
  8 30  1  0  0  0  0
  9 10  2  0  0  0  0
  9 31  1  0  0  0  0
 10 11  1  0  0  0  0
 10 32  1  0  0  0  0
 11 12  1  0  0  0  0
 13 14  1  0  0  0  0
 13 33  1  0  0  0  0
 14 15  1  0  0  0  0
 15 16  1  0  0  0  0
 15 34  1  0  0  0  0
 15 35  1  0  0  0  0
 16 17  1  0  0  0  0
 16 22  1  0  0  0  0
 16 36  1  0  0  0  0
 17 23  1  0  0  0  0
 17 37  1  0  0  0  0
 17 38  1  0  0  0  0
 18 19  1  0  0  0  0
 18 20  1  0  0  0  0
 18 21  1  0  0  0  0
 18 23  1  0  0  0  0
 19 39  1  0  0  0  0
 19 40  1  0  0  0  0
 19 41  1  0  0  0  0
 20 42  1  0  0  0  0
 20 43  1  0  0  0  0
 20 44  1  0  0  0  0
 21 45  1  0  0  0  0
 21 46  1  0  0  0  0
 21 47  1  0  0  0  0
 22 48  1  0  0  0  0
 23 49  1  0  0  0  0
 23 50  1  0  0  0  0
M  END
> <Name>
ZINC02269343

> <reference>
BDB5025

> <quality>
0.797

> <status>
decoy

> <atoms in reference ligand area>
16

> <score>
-25.8104

$$$$
ZINC20306534
      BALL 1.4.0 (Jan  4 2012, 23:22:29)

 33 33  0999  0  0  0  0  0  0999 V2000
    5.0001    8.2802   -0.7598 C   0  0  0  0  0  0  0  0  0  0  0  0
    5.2522    9.7089   -0.8219 O   0  0  0  0  0  0  0  0  0  0  0  0
    5.5258   10.3327    0.3402 C   0  0  0  0  0  0  0  0  0  0  0  0
    4.6236   10.8011    1.0052 O   0  0  0  0  0  0  0  0  0  0  0  0
    6.9231   10.4473    0.8060 C   0  0  0  0  0  0  0  0  0  0  0  0
    7.2273   10.2810    2.1586 C   0  0  0  0  0  0  0  0  0  0  0  0
    8.5342   10.3889    2.5866 C   0  0  0  0  0  0  0  0  0  0  0  0
    9.5425   10.6612    1.6789 C   0  0  0  0  0  0  0  0  0  0  0  0
    9.2474   10.8323    0.3381 C   0  0  0  0  0  0  0  0  0  0  0  0
    7.9455   10.7219   -0.1045 C   0  0  0  0  0  0  0  0  0  0  0  0
   10.9679   10.7780    2.1541 C   0  0  0  0  0  0  0  0  0  0  0  0
   11.7625    9.1486    2.0892 S   0  0  0  0  0  0  0  0  0  0  0  0
   13.5161    9.5033    2.3886 C   0  0  0  0  0  0  0  0  0  0  0  0
   14.3445    8.2462    2.1155 C   0  0  0  0  0  0  0  0  0  0  0  0
   15.7835    8.5037    2.4813 C   0  0  0  0  0  0  0  0  0  0  0  0
   16.0576    8.9771    3.5587 O   0  0  0  0  0  0  0  0  0  0  0  0
   16.7612    8.2019    1.6125 O   0  5  0  0  0  0  0  0  0  0  0  0
   14.2555    7.9011    0.6904 N   0  3  0  0  0  0  0  0  0  0  0  0
    5.1139    7.9006   -1.7859 H   0  0  0  0  0  0  0  0  0  0  0  0
    3.9450    8.1640   -0.4713 H   0  0  0  0  0  0  0  0  0  0  0  0
    5.6711    7.7616   -0.0592 H   0  0  0  0  0  0  0  0  0  0  0  0
    6.4266   10.0645    2.8812 H   0  0  0  0  0  0  0  0  0  0  0  0
    8.7753   10.2581    3.6519 H   0  0  0  0  0  0  0  0  0  0  0  0
   10.0527   11.0569   -0.3768 H   0  0  0  0  0  0  0  0  0  0  0  0
    7.7133   10.8499   -1.1721 H   0  0  0  0  0  0  0  0  0  0  0  0
   11.5148   11.4780    1.5052 H   0  0  0  0  0  0  0  0  0  0  0  0
   10.9813   11.1506    3.1890 H   0  0  0  0  0  0  0  0  0  0  0  0
   13.8462   10.3118    1.7196 H   0  0  0  0  0  0  0  0  0  0  0  0
   13.6552    9.8132    3.4349 H   0  0  0  0  0  0  0  0  0  0  0  0
   13.9562    7.4128    2.7195 H   0  0  0  0  0  0  0  0  0  0  0  0
   14.2918    8.7613    0.1250 H   0  0  0  0  0  0  0  0  0  0  0  0
   13.3687    7.4094    0.5100 H   0  0  0  0  0  0  0  0  0  0  0  0
   15.0440    7.2898    0.4347 H   0  0  0  0  0  0  0  0  0  0  0  0
  1  2  1  0  0  0  0
  1 19  1  0  0  0  0
  1 20  1  0  0  0  0
  1 21  1  0  0  0  0
  2  3  1  0  0  0  0
  3  4  2  0  0  0  0
  3  5  1  0  0  0  0
  5 10  2  0  0  0  0
  5  6  1  0  0  0  0
  6  7  2  0  0  0  0
  6 22  1  0  0  0  0
  7  8  1  0  0  0  0
  7 23  1  0  0  0  0
  8  9  2  0  0  0  0
  8 11  1  0  0  0  0
  9 10  1  0  0  0  0
  9 24  1  0  0  0  0
 10 25  1  0  0  0  0
 11 12  1  0  0  0  0
 11 26  1  0  0  0  0
 11 27  1  0  0  0  0
 12 13  1  0  0  0  0
 13 14  1  0  0  0  0
 13 28  1  0  0  0  0
 13 29  1  0  0  0  0
 14 15  1  0  0  0  0
 14 18  1  0  0  0  0
 14 30  1  0  0  0  0
 15 16  2  0  0  0  0
 15 17  1  0  0  0  0
 18 31  1  0  0  0  0
 18 32  1  0  0  0  0
 18 33  1  0  0  0  0
M  END
> <Name>
ZINC20306534

> <reference>
BDB5232

> <quality>
0.752

> <status>
decoy

> <atoms in reference ligand area>
11

> <score>
-25.7903

$$$$
ZINC05665859
      BALL 1.4.0 (Jan  4 2012, 23:22:29)

 52 53  0999  0  0  0  0  0  0999 V2000
   11.5710   10.9645    1.1580 C   0  0  0  0  0  0  0  0  0  0  0  0
   10.7915   12.2429    1.3282 C   0  0  0  0  0  0  0  0  0  0  0  0
    9.6242   12.3888    0.7298 C   0  0  0  0  0  0  0  0  0  0  0  0
    9.0710   11.2770   -0.1239 C   0  5  0  0  0  0  0  0  0  0  0  0
    8.1497   11.8953   -1.1583 C   0  0  0  0  0  0  0  0  0  0  0  0
    8.5518   12.7317   -1.9383 O   0  0  0  0  0  0  0  0  0  0  0  0
    6.8656   11.4794   -1.1784 N   0  0  0  0  0  0  0  0  0  0  0  0
    6.4062   10.5574   -0.3246 C   0  0  0  0  0  0  0  0  0  0  0  0
    5.2364   10.2418   -0.4125 O   0  0  0  0  0  0  0  0  0  0  0  0
    7.1412    9.9575    0.6188 N   0  0  0  0  0  0  0  0  0  0  0  0
    8.4491   10.2417    0.7943 C   0  0  0  0  0  0  0  0  0  0  0  0
    9.1038    9.6865    1.6504 O   0  0  0  0  0  0  0  0  0  0  0  0
    6.5076    8.9621    1.4872 C   0  0  0  0  0  0  0  0  0  0  0  0
    6.3850    9.5257    2.9043 C   0  0  0  0  0  0  0  0  0  0  0  0
    5.7234    8.4861    3.8111 C   0  0  0  0  0  0  0  0  0  0  0  0
    6.5772    7.2167    3.8393 C   0  0  0  0  0  0  0  0  0  0  0  0
    6.6998    6.6531    2.4222 C   0  0  0  0  0  0  0  0  0  0  0  0
    7.3615    7.6927    1.5153 C   0  0  0  0  0  0  0  0  0  0  0  0
    9.6224   14.8590    0.8264 C   0  0  0  0  0  0  0  0  0  0  0  0
    8.8522   15.8710    1.6769 C   0  0  0  0  0  0  0  0  0  0  0  0
    9.2037   17.9800    0.5406 C   0  0  0  0  0  0  0  0  0  0  0  0
    9.3344   17.8697    2.9559 C   0  0  0  0  0  0  0  0  0  0  0  0
    8.8407   13.5744    0.8531 N   0  3  0  0  0  0  0  0  0  0  0  0
    9.5999   17.1458    1.6948 N   0  0  0  0  0  0  0  0  0  0  0  0
   12.6121   11.2808    0.9960 H   0  0  0  0  0  0  0  0  0  0  0  0
   11.2096   10.5297    0.2145 H   0  0  0  0  0  0  0  0  0  0  0  0
   11.4705   10.2706    2.0055 H   0  0  0  0  0  0  0  0  0  0  0  0
   11.1954   13.0545    1.9513 H   0  0  0  0  0  0  0  0  0  0  0  0
    6.2201   11.8840   -1.8716 H   0  0  0  0  0  0  0  0  0  0  0  0
    5.5063    8.7221    1.1001 H   0  0  0  0  0  0  0  0  0  0  0  0
    5.7712   10.4382    2.8852 H   0  0  0  0  0  0  0  0  0  0  0  0
    7.3862    9.7653    3.2916 H   0  0  0  0  0  0  0  0  0  0  0  0
    5.6356    8.8910    4.8301 H   0  0  0  0  0  0  0  0  0  0  0  0
    4.7221    8.2451    3.4248 H   0  0  0  0  0  0  0  0  0  0  0  0
    6.1023    6.4685    4.4909 H   0  0  0  0  0  0  0  0  0  0  0  0
    7.5788    7.4568    4.2257 H   0  0  0  0  0  0  0  0  0  0  0  0
    7.3141    5.7408    2.4422 H   0  0  0  0  0  0  0  0  0  0  0  0
    5.6990    6.4130    2.0340 H   0  0  0  0  0  0  0  0  0  0  0  0
    7.4493    7.2870    0.4967 H   0  0  0  0  0  0  0  0  0  0  0  0
    8.3629    7.9316    1.9026 H   0  0  0  0  0  0  0  0  0  0  0  0
    9.7012   15.2252   -0.2078 H   0  0  0  0  0  0  0  0  0  0  0  0
   10.6220   14.6950    1.2552 H   0  0  0  0  0  0  0  0  0  0  0  0
    8.7512   15.4896    2.7037 H   0  0  0  0  0  0  0  0  0  0  0  0
    7.8555   16.0352    1.2415 H   0  0  0  0  0  0  0  0  0  0  0  0
    8.6229   18.8430    0.8982 H   0  0  0  0  0  0  0  0  0  0  0  0
    8.5840   17.3825   -0.1441 H   0  0  0  0  0  0  0  0  0  0  0  0
   10.1014   18.3333    0.0121 H   0  0  0  0  0  0  0  0  0  0  0  0
    9.4121   18.9522    2.7770 H   0  0  0  0  0  0  0  0  0  0  0  0
   10.0776   17.5711    3.7098 H   0  0  0  0  0  0  0  0  0  0  0  0
    8.3243   17.6273    3.3178 H   0  0  0  0  0  0  0  0  0  0  0  0
    8.1508   13.5924    0.0885 H   0  0  0  0  0  0  0  0  0  0  0  0
    8.3122   13.5287    1.7361 H   0  0  0  0  0  0  0  0  0  0  0  0
  1  2  1  0  0  0  0
  1 25  1  0  0  0  0
  1 26  1  0  0  0  0
  1 27  1  0  0  0  0
  2  3  2  0  0  0  0
  2 28  1  0  0  0  0
  3  4  1  0  0  0  0
  3 23  1  0  0  0  0
  4 11  1  0  0  0  0
  4  5  1  0  0  0  0
  5  6  2  0  0  0  0
  5  7  1  0  0  0  0
  7  8  1  0  0  0  0
  7 29  1  0  0  0  0
  8  9  2  0  0  0  0
  8 10  1  0  0  0  0
 10 11  1  0  0  0  0
 10 13  1  0  0  0  0
 11 12  2  0  0  0  0
 13 18  1  0  0  0  0
 13 14  1  0  0  0  0
 13 30  1  0  0  0  0
 14 15  1  0  0  0  0
 14 31  1  0  0  0  0
 14 32  1  0  0  0  0
 15 16  1  0  0  0  0
 15 33  1  0  0  0  0
 15 34  1  0  0  0  0
 16 17  1  0  0  0  0
 16 35  1  0  0  0  0
 16 36  1  0  0  0  0
 17 18  1  0  0  0  0
 17 37  1  0  0  0  0
 17 38  1  0  0  0  0
 18 39  1  0  0  0  0
 18 40  1  0  0  0  0
 19 20  1  0  0  0  0
 19 23  1  0  0  0  0
 19 41  1  0  0  0  0
 19 42  1  0  0  0  0
 20 24  1  0  0  0  0
 20 43  1  0  0  0  0
 20 44  1  0  0  0  0
 21 24  1  0  0  0  0
 21 45  1  0  0  0  0
 21 46  1  0  0  0  0
 21 47  1  0  0  0  0
 22 24  1  0  0  0  0
 22 48  1  0  0  0  0
 22 49  1  0  0  0  0
 22 50  1  0  0  0  0
 23 51  1  0  0  0  0
 23 52  1  0  0  0  0
M  END
> <Name>
ZINC05665859

> <reference>
BDB5200

> <quality>
0.741

> <status>
decoy

> <atoms in reference ligand area>
16

> <score>
-25.6248

$$$$
ZINC26654237
      BALL 1.4.0 (Jan  4 2012, 23:22:29)

 47 48  0999  0  0  0  0  0  0999 V2000
   10.4567   14.9003   -2.3433 C   0  0  0  0  0  0  0  0  0  0  0  0
    9.3175   13.8798   -2.2999 C   0  0  0  0  0  0  0  0  0  0  0  0
    8.8768   13.5465   -3.7266 C   0  0  0  0  0  0  0  0  0  0  0  0
    9.8006   12.6055   -1.6045 C   0  0  0  0  0  0  0  0  0  0  0  0
    8.9067   12.2914   -0.4819 N   0  3  0  0  0  0  0  0  0  0  0  0
    7.6607   11.6755   -0.9574 C   0  0  0  0  0  0  0  0  0  0  0  0
    7.1012   10.7796    0.1175 C   0  0  0  0  0  0  0  0  0  0  0  0
    5.7556   10.4573    0.1140 C   0  0  0  0  0  0  0  0  0  0  0  0
    5.2379    9.6338    1.0924 C   0  0  0  0  0  0  0  0  0  0  0  0
    6.0727    9.1341    2.0931 C   0  0  0  0  0  0  0  0  0  0  0  0
    7.4281    9.4675    2.0939 C   0  0  0  0  0  0  0  0  0  0  0  0
    7.9341   10.2877    1.1068 C   0  0  0  0  0  0  0  0  0  0  0  0
    5.5238    8.2552    3.1477 C   0  0  0  0  0  0  0  0  0  0  0  0
    5.5058    7.0506    2.9865 O   0  0  0  0  0  0  0  0  0  0  0  0
    5.0433    8.7898    4.2879 N   0  0  0  0  0  0  0  0  0  0  0  0
    8.6286   13.4898    0.3209 C   0  0  0  0  0  0  0  0  0  0  0  0
    7.9736   13.0730    1.6481 C   0  0  0  0  0  0  0  0  0  0  0  0
    7.9787   14.3043    2.5985 C   0  0  0  0  0  0  0  0  0  0  0  0
    9.6526   14.9914    2.2509 S   0  0  0  0  0  0  0  0  0  0  0  0
   10.5783   14.4469    3.1815 O   0  0  0  0  0  0  0  0  0  0  0  0
    9.5527   16.4015    2.1065 O   0  0  0  0  0  0  0  0  0  0  0  0
    9.9532   14.2407    0.5991 C   0  0  0  0  0  0  0  0  0  0  0  0
   10.0426   15.9072   -2.5009 H   0  0  0  0  0  0  0  0  0  0  0  0
   11.1410   14.6526   -3.1682 H   0  0  0  0  0  0  0  0  0  0  0  0
   11.0077   14.8765   -1.3916 H   0  0  0  0  0  0  0  0  0  0  0  0
    8.4680   14.3019   -1.7429 H   0  0  0  0  0  0  0  0  0  0  0  0
    7.8781   13.9689   -3.9111 H   0  0  0  0  0  0  0  0  0  0  0  0
    8.8419   12.4546   -3.8551 H   0  0  0  0  0  0  0  0  0  0  0  0
    9.5933   13.9760   -4.4422 H   0  0  0  0  0  0  0  0  0  0  0  0
    9.7946   11.7715   -2.3217 H   0  0  0  0  0  0  0  0  0  0  0  0
   10.8226   12.7573   -1.2271 H   0  0  0  0  0  0  0  0  0  0  0  0
    9.3860   11.6094    0.1231 H   0  0  0  0  0  0  0  0  0  0  0  0
    7.8656   11.0805   -1.8596 H   0  0  0  0  0  0  0  0  0  0  0  0
    6.9299   12.4625   -1.1952 H   0  0  0  0  0  0  0  0  0  0  0  0
    5.0973   10.8586   -0.6705 H   0  0  0  0  0  0  0  0  0  0  0  0
    4.1697    9.3715    1.0837 H   0  0  0  0  0  0  0  0  0  0  0  0
    8.0913    9.0771    2.8799 H   0  0  0  0  0  0  0  0  0  0  0  0
    9.0020   10.5512    1.1062 H   0  0  0  0  0  0  0  0  0  0  0  0
    5.1959    9.7876    4.4933 H   0  0  0  0  0  0  0  0  0  0  0  0
    4.5234    8.2007    4.9538 H   0  0  0  0  0  0  0  0  0  0  0  0
    7.9448   14.1546   -0.2274 H   0  0  0  0  0  0  0  0  0  0  0  0
    6.9375   12.7523    1.4648 H   0  0  0  0  0  0  0  0  0  0  0  0
    8.5477   12.2527    2.1037 H   0  0  0  0  0  0  0  0  0  0  0  0
    7.2065   15.0297    2.3029 H   0  0  0  0  0  0  0  0  0  0  0  0
    7.9140   13.9882    3.6501 H   0  0  0  0  0  0  0  0  0  0  0  0
   10.1134   15.0325   -0.1474 H   0  0  0  0  0  0  0  0  0  0  0  0
   10.7932   13.5330    0.6576 H   0  0  0  0  0  0  0  0  0  0  0  0
  1  2  1  0  0  0  0
  1 23  1  0  0  0  0
  1 24  1  0  0  0  0
  1 25  1  0  0  0  0
  2  3  1  0  0  0  0
  2  4  1  0  0  0  0
  2 26  1  0  0  0  0
  3 27  1  0  0  0  0
  3 28  1  0  0  0  0
  3 29  1  0  0  0  0
  4  5  1  0  0  0  0
  4 30  1  0  0  0  0
  4 31  1  0  0  0  0
  5  6  1  0  0  0  0
  5 16  1  0  0  0  0
  5 32  1  0  0  0  0
  6  7  1  0  0  0  0
  6 33  1  0  0  0  0
  6 34  1  0  0  0  0
  7 12  2  0  0  0  0
  7  8  1  0  0  0  0
  8  9  2  0  0  0  0
  8 35  1  0  0  0  0
  9 10  1  0  0  0  0
  9 36  1  0  0  0  0
 10 11  2  0  0  0  0
 10 13  1  0  0  0  0
 11 12  1  0  0  0  0
 11 37  1  0  0  0  0
 12 38  1  0  0  0  0
 13 14  2  0  0  0  0
 13 15  1  0  0  0  0
 15 39  1  0  0  0  0
 15 40  1  0  0  0  0
 16 22  1  0  0  0  0
 16 17  1  0  0  0  0
 16 41  1  0  0  0  0
 17 18  1  0  0  0  0
 17 42  1  0  0  0  0
 17 43  1  0  0  0  0
 18 19  1  0  0  0  0
 18 44  1  0  0  0  0
 18 45  1  0  0  0  0
 19 20  2  0  0  0  0
 19 21  2  0  0  0  0
 19 22  1  0  0  0  0
 22 46  1  0  0  0  0
 22 47  1  0  0  0  0
M  END
> <Name>
ZINC26654237

> <reference>
BDB5228

> <quality>
0.678

> <status>
decoy

> <atoms in reference ligand area>
29

> <score>
-25.6049

$$$$
ZINC06368275
      BALL 1.4.0 (Jan  4 2012, 23:22:29)

 43 44  0999  0  0  0  0  0  0999 V2000
    6.9626    8.1701    4.5990 C   0  0  0  0  0  0  0  0  0  0  0  0
    8.2993    7.6490    4.3757 O   0  0  0  0  0  0  0  0  0  0  0  0
    9.3187    8.3333    4.9181 C   0  0  0  0  0  0  0  0  0  0  0  0
    9.2828    8.6473    6.0843 O   0  0  0  0  0  0  0  0  0  0  0  0
   10.5079    8.7102    4.0726 C   0  0  0  0  0  0  0  0  0  0  0  0
   11.6207    9.2535    4.9710 C   0  0  0  0  0  0  0  0  0  0  0  0
   12.2819   10.4281    4.2970 C   0  0  0  0  0  0  0  0  0  0  0  0
   11.5758   11.6104    4.1111 C   0  0  0  0  0  0  0  0  0  0  0  0
   10.1944   11.6586    4.4211 C   0  0  0  0  0  0  0  0  0  0  0  0
    9.6356   10.6678    4.8448 O   0  0  0  0  0  0  0  0  0  0  0  0
    9.4161   12.9348    4.2323 C   0  0  0  0  0  0  0  0  0  0  0  0
   10.0282   13.7353    3.0803 C   0  0  0  0  0  0  0  0  0  0  0  0
   11.4921   14.0444    3.4029 C   0  0  0  0  0  0  0  0  0  0  0  0
   12.2428   12.7544    3.6078 C   0  0  0  0  0  0  0  0  0  0  0  0
   13.4254   12.6948    3.3406 O   0  0  0  0  0  0  0  0  0  0  0  0
   13.5560   10.3321    3.8753 N   0  0  0  0  0  0  0  0  0  0  0  0
   14.6073   10.4597    4.7900 C   0  0  0  0  0  0  0  0  0  0  0  0
   15.1417    9.3297    5.3960 C   0  0  0  0  0  0  0  0  0  0  0  0
   16.1790    9.4556    6.2980 C   0  0  0  0  0  0  0  0  0  0  0  0
   16.6885   10.7122    6.5996 C   0  0  0  0  0  0  0  0  0  0  0  0
   16.1540   11.8423    5.9936 C   0  0  0  0  0  0  0  0  0  0  0  0
   15.1167   11.7164    5.0916 C   0  0  0  0  0  0  0  0  0  0  0  0
   17.7394   10.8398    7.5133 N   0  0  0  0  0  0  0  0  0  0  0  0
    6.6512    7.8102    5.5907 H   0  0  0  0  0  0  0  0  0  0  0  0
    6.3149    7.6944    3.8479 H   0  0  0  0  0  0  0  0  0  0  0  0
    6.9195    9.2674    4.5344 H   0  0  0  0  0  0  0  0  0  0  0  0
   10.8720    7.8222    3.5351 H   0  0  0  0  0  0  0  0  0  0  0  0
   10.2133    9.4828    3.3471 H   0  0  0  0  0  0  0  0  0  0  0  0
   12.3675    8.4656    5.1487 H   0  0  0  0  0  0  0  0  0  0  0  0
   11.1923    9.5761    5.9314 H   0  0  0  0  0  0  0  0  0  0  0  0
    8.3690   12.6947    3.9961 H   0  0  0  0  0  0  0  0  0  0  0  0
    9.4576   13.5313    5.1556 H   0  0  0  0  0  0  0  0  0  0  0  0
    9.4747   14.6770    2.9511 H   0  0  0  0  0  0  0  0  0  0  0  0
    9.9737   13.1455    2.1534 H   0  0  0  0  0  0  0  0  0  0  0  0
   11.9422   14.6015    2.5680 H   0  0  0  0  0  0  0  0  0  0  0  0
   11.5470   14.6495    4.3199 H   0  0  0  0  0  0  0  0  0  0  0  0
   13.7576   10.1646    2.8792 H   0  0  0  0  0  0  0  0  0  0  0  0
   14.7382    8.3347    5.1572 H   0  0  0  0  0  0  0  0  0  0  0  0
   16.6022    8.5608    6.7779 H   0  0  0  0  0  0  0  0  0  0  0  0
   16.5575   12.8373    6.2325 H   0  0  0  0  0  0  0  0  0  0  0  0
   14.6934   12.6112    4.6117 H   0  0  0  0  0  0  0  0  0  0  0  0
   18.4126   11.6136    7.4191 H   0  0  0  0  0  0  0  0  0  0  0  0
   17.8403   10.1599    8.2804 H   0  0  0  0  0  0  0  0  0  0  0  0
  1  2  1  0  0  0  0
  1 24  1  0  0  0  0
  1 25  1  0  0  0  0
  1 26  1  0  0  0  0
  2  3  1  0  0  0  0
  3  4  2  0  0  0  0
  3  5  1  0  0  0  0
  5  6  1  0  0  0  0
  5 27  1  0  0  0  0
  5 28  1  0  0  0  0
  6  7  1  0  0  0  0
  6 29  1  0  0  0  0
  6 30  1  0  0  0  0
  7  8  2  0  0  0  0
  7 16  1  0  0  0  0
  8 14  1  0  0  0  0
  8  9  1  0  0  0  0
  9 10  2  0  0  0  0
  9 11  1  0  0  0  0
 11 12  1  0  0  0  0
 11 31  1  0  0  0  0
 11 32  1  0  0  0  0
 12 13  1  0  0  0  0
 12 33  1  0  0  0  0
 12 34  1  0  0  0  0
 13 14  1  0  0  0  0
 13 35  1  0  0  0  0
 13 36  1  0  0  0  0
 14 15  2  0  0  0  0
 16 17  1  0  0  0  0
 16 37  1  0  0  0  0
 17 22  2  0  0  0  0
 17 18  1  0  0  0  0
 18 19  2  0  0  0  0
 18 38  1  0  0  0  0
 19 20  1  0  0  0  0
 19 39  1  0  0  0  0
 20 21  2  0  0  0  0
 20 23  1  0  0  0  0
 21 22  1  0  0  0  0
 21 40  1  0  0  0  0
 22 41  1  0  0  0  0
 23 42  1  0  0  0  0
 23 43  1  0  0  0  0
M  END
> <Name>
ZINC06368275

> <reference>
BDB5219

> <quality>
0.685

> <status>
decoy

> <atoms in reference ligand area>
10

> <score>
-25.4621

$$$$
ZINC06509720
      BALL 1.4.0 (Jan  4 2012, 23:22:29)

 41 42  0999  0  0  0  0  0  0999 V2000
    5.8013    9.0538    5.9218 C   0  0  0  0  0  0  0  0  0  0  0  0
    7.9421    8.2086    5.1697 C   0  0  0  0  0  0  0  0  0  0  0  0
    7.5392    8.7308    3.8147 C   0  0  0  0  0  0  0  0  0  0  0  0
    6.3730    8.7056    3.4763 O   0  0  0  0  0  0  0  0  0  0  0  0
    8.5171    9.2491    2.9389 C   0  0  0  0  0  0  0  0  0  0  0  0
    8.2339   10.3408    2.1000 C   0  0  0  0  0  0  0  0  0  0  0  0
    9.2130   10.8073    1.2700 N   0  0  0  0  0  0  0  0  0  0  0  0
   10.4313   10.2445    1.2427 C   0  0  0  0  0  0  0  0  0  0  0  0
   11.2682   10.6970    0.4864 O   0  0  0  0  0  0  0  0  0  0  0  0
   10.7595    9.2002    2.0205 N   0  0  0  0  0  0  0  0  0  0  0  0
    9.8633    8.6657    2.8755 C   0  0  0  0  0  0  0  0  0  0  0  0
   10.1642    7.7196    3.5797 O   0  0  0  0  0  0  0  0  0  0  0  0
   12.1084    8.6343    1.9399 C   0  0  0  0  0  0  0  0  0  0  0  0
    8.9278   11.9444    0.3914 C   0  0  0  0  0  0  0  0  0  0  0  0
    9.0286   13.2253    1.1789 C   0  0  0  0  0  0  0  0  0  0  0  0
    8.2020   13.4344    2.2670 C   0  0  0  0  0  0  0  0  0  0  0  0
    8.2978   14.6073    2.9924 C   0  0  0  0  0  0  0  0  0  0  0  0
    9.2127   15.5756    2.6232 C   0  0  0  0  0  0  0  0  0  0  0  0
   10.0356   15.3686    1.5319 C   0  0  0  0  0  0  0  0  0  0  0  0
    9.9435   14.1936    0.8097 C   0  0  0  0  0  0  0  0  0  0  0  0
    7.0062   10.9270    2.1187 N   0  0  0  0  0  0  0  0  0  0  0  0
    7.2456    8.9845    6.2133 N   0  3  0  0  0  0  0  0  0  0  0  0
    5.3246    8.1128    6.2335 H   0  0  0  0  0  0  0  0  0  0  0  0
    5.6577    9.1923    4.8400 H   0  0  0  0  0  0  0  0  0  0  0  0
    5.3498    9.8962    6.4663 H   0  0  0  0  0  0  0  0  0  0  0  0
    7.6626    7.1480    5.2529 H   0  0  0  0  0  0  0  0  0  0  0  0
    9.0294    8.3153    5.2974 H   0  0  0  0  0  0  0  0  0  0  0  0
   12.0000    7.7079    1.3569 H   0  0  0  0  0  0  0  0  0  0  0  0
   12.3641    8.3457    2.9701 H   0  0  0  0  0  0  0  0  0  0  0  0
   12.8496    9.3190    1.5018 H   0  0  0  0  0  0  0  0  0  0  0  0
    7.9121   11.8463   -0.0192 H   0  0  0  0  0  0  0  0  0  0  0  0
    9.6563   11.9630   -0.4327 H   0  0  0  0  0  0  0  0  0  0  0  0
    7.4681   12.6675    2.5558 H   0  0  0  0  0  0  0  0  0  0  0  0
    7.6460   14.7702    3.8633 H   0  0  0  0  0  0  0  0  0  0  0  0
    9.2860   16.5107    3.1977 H   0  0  0  0  0  0  0  0  0  0  0  0
   10.7637   16.1391    1.2383 H   0  0  0  0  0  0  0  0  0  0  0  0
   10.5983   14.0290   -0.0587 H   0  0  0  0  0  0  0  0  0  0  0  0
    6.5058   11.0878    1.2329 H   0  0  0  0  0  0  0  0  0  0  0  0
    6.5787   11.2087    3.0125 H   0  0  0  0  0  0  0  0  0  0  0  0
    7.6337    9.9380    6.2451 H   0  0  0  0  0  0  0  0  0  0  0  0
    7.3890    8.5315    7.1272 H   0  0  0  0  0  0  0  0  0  0  0  0
  1 22  1  0  0  0  0
  1 23  1  0  0  0  0
  1 24  1  0  0  0  0
  1 25  1  0  0  0  0
  2  3  1  0  0  0  0
  2 22  1  0  0  0  0
  2 26  1  0  0  0  0
  2 27  1  0  0  0  0
  3  4  2  0  0  0  0
  3  5  1  0  0  0  0
  5 11  1  0  0  0  0
  5  6  2  0  0  0  0
  6  7  1  0  0  0  0
  6 21  1  0  0  0  0
  7  8  1  0  0  0  0
  7 14  1  0  0  0  0
  8  9  2  0  0  0  0
  8 10  1  0  0  0  0
 10 11  1  0  0  0  0
 10 13  1  0  0  0  0
 11 12  2  0  0  0  0
 13 28  1  0  0  0  0
 13 29  1  0  0  0  0
 13 30  1  0  0  0  0
 14 15  1  0  0  0  0
 14 31  1  0  0  0  0
 14 32  1  0  0  0  0
 15 20  2  0  0  0  0
 15 16  1  0  0  0  0
 16 17  2  0  0  0  0
 16 33  1  0  0  0  0
 17 18  1  0  0  0  0
 17 34  1  0  0  0  0
 18 19  2  0  0  0  0
 18 35  1  0  0  0  0
 19 20  1  0  0  0  0
 19 36  1  0  0  0  0
 20 37  1  0  0  0  0
 21 38  1  0  0  0  0
 21 39  1  0  0  0  0
 22 40  1  0  0  0  0
 22 41  1  0  0  0  0
M  END
> <Name>
ZINC06509720

> <reference>
BDB4983

> <quality>
0.733

> <status>
decoy

> <atoms in reference ligand area>
16

> <score>
-25.4517

$$$$
ZINC13165761
      BALL 1.4.0 (Jan  4 2012, 23:22:29)

 37 37  0999  0  0  0  0  0  0999 V2000
    8.8313   14.8826    2.4012 C   0  0  0  0  0  0  0  0  0  0  0  0
    9.1296   13.8208    3.4617 C   0  0  0  0  0  0  0  0  0  0  0  0
    9.6359   12.5478    2.7804 C   0  0  0  0  0  0  0  0  0  0  0  0
    9.5688   11.3802    3.7669 C   0  0  0  0  0  0  0  0  0  0  0  0
    8.7988   12.2513    1.6153 N   0  0  0  0  0  0  0  0  0  0  0  0
    7.6996   11.4803    1.7693 C   0  0  0  0  0  0  0  0  0  0  0  0
    7.3886   11.0321    2.8519 O   0  0  0  0  0  0  0  0  0  0  0  0
    6.8676   11.2047    0.5305 C   0  5  0  0  0  0  0  0  0  0  0  0
    7.3606   11.8282   -0.7609 C   0  0  0  0  0  0  0  0  0  0  0  0
    6.7610   11.6636   -1.8053 O   0  0  0  0  0  0  0  0  0  0  0  0
    8.4719   12.5619   -0.7146 N   0  0  0  0  0  0  0  0  0  0  0  0
    9.1445   12.7594    0.3983 C   0  0  0  0  0  0  0  0  0  0  0  0
   10.5562   13.7241    0.3124 S   0  5  0  0  0  0  0  0  0  0  0  0
    6.8037    9.7123    0.3312 C   0  0  0  0  0  0  0  0  0  0  0  0
    6.4088    7.8003   -1.1352 C   0  0  0  0  0  0  0  0  0  0  0  0
    5.2981    7.5519   -2.1578 C   0  0  0  0  0  0  0  0  0  0  0  0
    5.9192    7.1697   -3.5027 C   0  0  0  0  0  0  0  0  0  0  0  0
    5.5273    8.1197   -4.4956 O   0  0  0  0  0  0  0  0  0  0  0  0
    6.4900    9.2776   -0.8684 N   0  3  0  0  0  0  0  0  0  0  0  0
    8.3028   15.7280    2.8658 H   0  0  0  0  0  0  0  0  0  0  0  0
    8.2018   14.4469    1.6114 H   0  0  0  0  0  0  0  0  0  0  0  0
    9.7750   15.2384    1.9620 H   0  0  0  0  0  0  0  0  0  0  0  0
    8.2116   13.5945    4.0239 H   0  0  0  0  0  0  0  0  0  0  0  0
    9.8988   14.1975    4.1517 H   0  0  0  0  0  0  0  0  0  0  0  0
   10.6767   12.6947    2.4561 H   0  0  0  0  0  0  0  0  0  0  0  0
   10.4632   10.7502    3.6524 H   0  0  0  0  0  0  0  0  0  0  0  0
    8.6697   10.7796    3.5652 H   0  0  0  0  0  0  0  0  0  0  0  0
    9.5252   11.7698    4.7947 H   0  0  0  0  0  0  0  0  0  0  0  0
    7.0113    9.0152    1.1564 H   0  0  0  0  0  0  0  0  0  0  0  0
    7.3688    7.4453   -1.5381 H   0  0  0  0  0  0  0  0  0  0  0  0
    6.1755    7.2693   -0.2006 H   0  0  0  0  0  0  0  0  0  0  0  0
    4.6526    6.7333   -1.8068 H   0  0  0  0  0  0  0  0  0  0  0  0
    4.6981    8.4660   -2.2784 H   0  0  0  0  0  0  0  0  0  0  0  0
    7.0155    7.1655   -3.4124 H   0  0  0  0  0  0  0  0  0  0  0  0
    5.5717    6.1683   -3.7970 H   0  0  0  0  0  0  0  0  0  0  0  0
    5.3856    9.0027   -4.0710 H   0  0  0  0  0  0  0  0  0  0  0  0
    6.2997    9.9489   -1.6260 H   0  0  0  0  0  0  0  0  0  0  0  0
  1  2  1  0  0  0  0
  1 20  1  0  0  0  0
  1 21  1  0  0  0  0
  1 22  1  0  0  0  0
  2  3  1  0  0  0  0
  2 23  1  0  0  0  0
  2 24  1  0  0  0  0
  3  4  1  0  0  0  0
  3  5  1  0  0  0  0
  3 25  1  0  0  0  0
  4 26  1  0  0  0  0
  4 27  1  0  0  0  0
  4 28  1  0  0  0  0
  5 12  1  0  0  0  0
  5  6  1  0  0  0  0
  6  7  2  0  0  0  0
  6  8  1  0  0  0  0
  8  9  1  0  0  0  0
  8 14  1  0  0  0  0
  9 10  2  0  0  0  0
  9 11  1  0  0  0  0
 11 12  2  0  0  0  0
 12 13  1  0  0  0  0
 14 19  2  0  0  0  0
 14 29  1  0  0  0  0
 15 16  1  0  0  0  0
 15 19  1  0  0  0  0
 15 30  1  0  0  0  0
 15 31  1  0  0  0  0
 16 17  1  0  0  0  0
 16 32  1  0  0  0  0
 16 33  1  0  0  0  0
 17 18  1  0  0  0  0
 17 34  1  0  0  0  0
 17 35  1  0  0  0  0
 18 36  1  0  0  0  0
 19 37  1  0  0  0  0
M  END
> <Name>
ZINC13165761

> <reference>
BDB5234

> <quality>
0.789

> <status>
decoy

> <atoms in reference ligand area>
18

> <score>
-25.4309

$$$$
ZINC28314515
      BALL 1.4.0 (Jan  4 2012, 23:22:29)

 59 60  0999  0  0  0  0  0  0999 V2000
   12.9802   13.3277    2.6004 C   0  0  0  0  0  0  0  0  0  0  0  0
   11.8068   13.8736    1.9943 O   0  0  0  0  0  0  0  0  0  0  0  0
   10.7569   13.0289    1.8104 C   0  0  0  0  0  0  0  0  0  0  0  0
   10.1705   12.4027    2.8998 C   0  0  0  0  0  0  0  0  0  0  0  0
    9.1040   11.5432    2.7138 C   0  0  0  0  0  0  0  0  0  0  0  0
    8.6211   11.3003    1.4416 C   0  0  0  0  0  0  0  0  0  0  0  0
    9.1980   11.9272    0.3475 C   0  0  0  0  0  0  0  0  0  0  0  0
   10.2707   12.7917    0.5302 C   0  0  0  0  0  0  0  0  0  0  0  0
   10.8433   13.4047   -0.5415 O   0  0  0  0  0  0  0  0  0  0  0  0
   10.0643   13.4823   -1.7370 C   0  0  0  0  0  0  0  0  0  0  0  0
   10.7845   12.7703   -2.8530 C   0  0  0  0  0  0  0  0  0  0  0  0
   11.8590   12.2477   -2.6450 O   0  0  0  0  0  0  0  0  0  0  0  0
   10.2345   12.7141   -4.0822 N   0  0  0  0  0  0  0  0  0  0  0  0
    8.7188   11.6915   -0.9032 O   0  0  0  0  0  0  0  0  0  0  0  0
    7.3083   11.8207   -1.0926 C   0  0  0  0  0  0  0  0  0  0  0  0
    8.4700   10.8645    3.9005 C   0  0  0  0  0  0  0  0  0  0  0  0
    7.9262    9.5637    3.4879 N   0  3  0  0  0  0  0  0  0  0  0  0
    6.6264    9.7235    2.8226 C   0  0  0  0  0  0  0  0  0  0  0  0
    5.7836    8.4981    3.0657 C   0  0  0  0  0  0  0  0  0  0  0  0
    5.1124    8.3486    4.2653 C   0  0  0  0  0  0  0  0  0  0  0  0
    4.3326    7.2260    4.4886 C   0  0  0  0  0  0  0  0  0  0  0  0
    4.2337    6.2424    3.5089 C   0  0  0  0  0  0  0  0  0  0  0  0
    4.9067    6.3936    2.3080 C   0  0  0  0  0  0  0  0  0  0  0  0
    5.6819    7.5222    2.0860 C   0  0  0  0  0  0  0  0  0  0  0  0
    6.3430    7.6713    0.9071 O   0  0  0  0  0  0  0  0  0  0  0  0
    5.6474    8.3404   -0.1467 C   0  0  0  0  0  0  0  0  0  0  0  0
    3.4727    5.1370    3.7285 O   0  0  0  0  0  0  0  0  0  0  0  0
    2.2632    5.0221    2.9761 C   0  0  0  0  0  0  0  0  0  0  0  0
    3.6679    7.0824    5.6671 O   0  0  0  0  0  0  0  0  0  0  0  0
    2.7088    8.0887    5.9980 C   0  0  0  0  0  0  0  0  0  0  0  0
   12.9732   13.6653    3.6472 H   0  0  0  0  0  0  0  0  0  0  0  0
   13.8366   13.8020    2.0987 H   0  0  0  0  0  0  0  0  0  0  0  0
   13.0253   12.2309    2.5287 H   0  0  0  0  0  0  0  0  0  0  0  0
   10.5545   12.5901    3.9134 H   0  0  0  0  0  0  0  0  0  0  0  0
    7.7780   10.6087    1.2969 H   0  0  0  0  0  0  0  0  0  0  0  0
    9.9161   14.5372   -2.0116 H   0  0  0  0  0  0  0  0  0  0  0  0
    9.0869   13.0062   -1.5695 H   0  0  0  0  0  0  0  0  0  0  0  0
    9.3218   13.1577   -4.2588 H   0  0  0  0  0  0  0  0  0  0  0  0
   10.7267   12.2274   -4.8449 H   0  0  0  0  0  0  0  0  0  0  0  0
    6.9874   10.9260   -1.6462 H   0  0  0  0  0  0  0  0  0  0  0  0
    7.1627   12.6927   -1.7472 H   0  0  0  0  0  0  0  0  0  0  0  0
    6.7600   11.9292   -0.1452 H   0  0  0  0  0  0  0  0  0  0  0  0
    9.2270   10.7130    4.6841 H   0  0  0  0  0  0  0  0  0  0  0  0
    7.6570   11.4932    4.2927 H   0  0  0  0  0  0  0  0  0  0  0  0
    8.5856    9.1101    2.8396 H   0  0  0  0  0  0  0  0  0  0  0  0
    7.8109    8.9642    4.3174 H   0  0  0  0  0  0  0  0  0  0  0  0
    6.7802    9.8531    1.7412 H   0  0  0  0  0  0  0  0  0  0  0  0
    6.1128   10.6075    3.2285 H   0  0  0  0  0  0  0  0  0  0  0  0
    5.1978    9.1219    5.0429 H   0  0  0  0  0  0  0  0  0  0  0  0
    4.8264    5.6194    1.5307 H   0  0  0  0  0  0  0  0  0  0  0  0
    4.6823    7.8243   -0.2566 H   0  0  0  0  0  0  0  0  0  0  0  0
    6.2304    8.1640   -1.0628 H   0  0  0  0  0  0  0  0  0  0  0  0
    5.5127    9.4148    0.0472 H   0  0  0  0  0  0  0  0  0  0  0  0
    2.2746    5.8438    2.2449 H   0  0  0  0  0  0  0  0  0  0  0  0
    1.4407    5.2102    3.6820 H   0  0  0  0  0  0  0  0  0  0  0  0
    2.1593    4.0436    2.4844 H   0  0  0  0  0  0  0  0  0  0  0  0
    3.0898    9.0299    5.5751 H   0  0  0  0  0  0  0  0  0  0  0  0
    2.7230    8.1811    7.0940 H   0  0  0  0  0  0  0  0  0  0  0  0
    1.7009    7.8552    5.6242 H   0  0  0  0  0  0  0  0  0  0  0  0
  1  2  1  0  0  0  0
  1 31  1  0  0  0  0
  1 32  1  0  0  0  0
  1 33  1  0  0  0  0
  2  3  1  0  0  0  0
  3  8  2  0  0  0  0
  3  4  1  0  0  0  0
  4  5  2  0  0  0  0
  4 34  1  0  0  0  0
  5  6  1  0  0  0  0
  5 16  1  0  0  0  0
  6  7  2  0  0  0  0
  6 35  1  0  0  0  0
  7  8  1  0  0  0  0
  7 14  1  0  0  0  0
  8  9  1  0  0  0  0
  9 10  1  0  0  0  0
 10 11  1  0  0  0  0
 10 36  1  0  0  0  0
 10 37  1  0  0  0  0
 11 12  2  0  0  0  0
 11 13  1  0  0  0  0
 13 38  1  0  0  0  0
 13 39  1  0  0  0  0
 14 15  1  0  0  0  0
 15 40  1  0  0  0  0
 15 41  1  0  0  0  0
 15 42  1  0  0  0  0
 16 17  1  0  0  0  0
 16 43  1  0  0  0  0
 16 44  1  0  0  0  0
 17 18  1  0  0  0  0
 17 45  1  0  0  0  0
 17 46  1  0  0  0  0
 18 19  1  0  0  0  0
 18 47  1  0  0  0  0
 18 48  1  0  0  0  0
 19 24  2  0  0  0  0
 19 20  1  0  0  0  0
 20 21  2  0  0  0  0
 20 49  1  0  0  0  0
 21 22  1  0  0  0  0
 21 29  1  0  0  0  0
 22 23  2  0  0  0  0
 22 27  1  0  0  0  0
 23 24  1  0  0  0  0
 23 50  1  0  0  0  0
 24 25  1  0  0  0  0
 25 26  1  0  0  0  0
 26 51  1  0  0  0  0
 26 52  1  0  0  0  0
 26 53  1  0  0  0  0
 27 28  1  0  0  0  0
 28 54  1  0  0  0  0
 28 55  1  0  0  0  0
 28 56  1  0  0  0  0
 29 30  1  0  0  0  0
 30 57  1  0  0  0  0
 30 58  1  0  0  0  0
 30 59  1  0  0  0  0
M  END
> <Name>
ZINC28314515

> <reference>
BDB4948

> <quality>
0.751

> <status>
decoy

> <atoms in reference ligand area>
25

> <score>
-25.4205

$$$$
ZINC21195156
      BALL 1.4.0 (Jan  4 2012, 23:22:29)

 58 60  0999  0  0  0  0  0  0999 V2000
   21.7929   12.4024    2.6732 C   0  0  0  0  0  0  0  0  0  0  0  0
   21.5877   10.9898    2.6070 O   0  0  0  0  0  0  0  0  0  0  0  0
   20.7004   10.4529    3.4866 C   0  0  0  0  0  0  0  0  0  0  0  0
   21.1568    9.8262    4.6366 C   0  0  0  0  0  0  0  0  0  0  0  0
   20.2554    9.2812    5.5303 C   0  0  0  0  0  0  0  0  0  0  0  0
   18.8940    9.3607    5.2775 C   0  0  0  0  0  0  0  0  0  0  0  0
   18.4376    9.9870    4.1271 C   0  0  0  0  0  0  0  0  0  0  0  0
   19.3390   10.5319    3.2336 C   0  0  0  0  0  0  0  0  0  0  0  0
   18.0066    8.8242    6.1572 O   0  0  0  0  0  0  0  0  0  0  0  0
   17.2056    9.7378    6.9093 C   0  0  0  0  0  0  0  0  0  0  0  0
   16.0586   10.2185    6.0583 C   0  0  0  0  0  0  0  0  0  0  0  0
   15.5954   11.3262    6.2340 O   0  0  0  0  0  0  0  0  0  0  0  0
   15.5027    9.3485    5.0191 C   0  0  0  0  0  0  0  0  0  0  0  0
   15.8908    8.0036    4.9444 C   0  0  0  0  0  0  0  0  0  0  0  0
   15.3681    7.1941    3.9787 C   0  0  0  0  0  0  0  0  0  0  0  0
   14.4555    7.6976    3.0549 C   0  0  0  0  0  0  0  0  0  0  0  0
   14.0638    9.0273    3.1102 C   0  0  0  0  0  0  0  0  0  0  0  0
   14.5813    9.8599    4.0876 C   0  0  0  0  0  0  0  0  0  0  0  0
   14.2019   11.1604    4.1469 O   0  0  0  0  0  0  0  0  0  0  0  0
   13.0754    9.5649    2.1075 C   0  0  0  0  0  0  0  0  0  0  0  0
   12.6451   10.9087    2.5162 N   0  3  0  0  0  0  0  0  0  0  0  0
   11.8762   10.8577    3.7675 C   0  0  0  0  0  0  0  0  0  0  0  0
   11.5157   12.2809    4.2001 C   0  0  0  0  0  0  0  0  0  0  0  0
   10.7404   12.9322    3.1350 N   0  0  0  0  0  0  0  0  0  0  0  0
   11.5093   12.9831    1.8837 C   0  0  0  0  0  0  0  0  0  0  0  0
   11.8698   11.5601    1.4512 C   0  0  0  0  0  0  0  0  0  0  0  0
   10.3101   14.2760    3.5437 C   0  0  0  0  0  0  0  0  0  0  0  0
    8.9941   14.6244    2.8455 C   0  0  0  0  0  0  0  0  0  0  0  0
    7.9241   13.9016    3.4577 O   0  0  0  0  0  0  0  0  0  0  0  0
   13.9466    6.8834    2.0963 O   0  5  0  0  0  0  0  0  0  0  0  0
   21.7574   12.6704    3.7394 H   0  0  0  0  0  0  0  0  0  0  0  0
   20.9248   12.8644    2.1802 H   0  0  0  0  0  0  0  0  0  0  0  0
   22.7384   12.7173    2.2075 H   0  0  0  0  0  0  0  0  0  0  0  0
   22.2365    9.7632    4.8372 H   0  0  0  0  0  0  0  0  0  0  0  0
   20.6173    8.7841    6.4424 H   0  0  0  0  0  0  0  0  0  0  0  0
   17.3578   10.0496    3.9264 H   0  0  0  0  0  0  0  0  0  0  0  0
   18.9771   11.0287    2.3213 H   0  0  0  0  0  0  0  0  0  0  0  0
   17.8188   10.5979    7.2165 H   0  0  0  0  0  0  0  0  0  0  0  0
   16.8116    9.2308    7.8024 H   0  0  0  0  0  0  0  0  0  0  0  0
   16.6175    7.6006    5.6652 H   0  0  0  0  0  0  0  0  0  0  0  0
   15.6693    6.1373    3.9293 H   0  0  0  0  0  0  0  0  0  0  0  0
   15.0472   11.6729    4.0946 H   0  0  0  0  0  0  0  0  0  0  0  0
   12.2010    8.8993    2.0599 H   0  0  0  0  0  0  0  0  0  0  0  0
   13.5503    9.6180    1.1166 H   0  0  0  0  0  0  0  0  0  0  0  0
   13.4900   11.4729    2.6851 H   0  0  0  0  0  0  0  0  0  0  0  0
   12.4807   10.3787    4.5517 H   0  0  0  0  0  0  0  0  0  0  0  0
   10.9546   10.2786    3.6087 H   0  0  0  0  0  0  0  0  0  0  0  0
   10.9145   12.2435    5.1204 H   0  0  0  0  0  0  0  0  0  0  0  0
   12.4364   12.8535    4.3854 H   0  0  0  0  0  0  0  0  0  0  0  0
   10.9038   13.4620    1.1000 H   0  0  0  0  0  0  0  0  0  0  0  0
   12.4310   13.5625    2.0414 H   0  0  0  0  0  0  0  0  0  0  0  0
   12.4706   11.5981    0.5305 H   0  0  0  0  0  0  0  0  0  0  0  0
   10.9481   10.9894    1.2652 H   0  0  0  0  0  0  0  0  0  0  0  0
   11.0793   15.0100    3.2619 H   0  0  0  0  0  0  0  0  0  0  0  0
   10.1634   14.2986    4.6336 H   0  0  0  0  0  0  0  0  0  0  0  0
    8.8055   15.7043    2.9360 H   0  0  0  0  0  0  0  0  0  0  0  0
    9.0586   14.3515    1.7818 H   0  0  0  0  0  0  0  0  0  0  0  0
    7.7589   14.2607    4.3653 H   0  0  0  0  0  0  0  0  0  0  0  0
  1  2  1  0  0  0  0
  1 31  1  0  0  0  0
  1 32  1  0  0  0  0
  1 33  1  0  0  0  0
  2  3  1  0  0  0  0
  3  8  2  0  0  0  0
  3  4  1  0  0  0  0
  4  5  2  0  0  0  0
  4 34  1  0  0  0  0
  5  6  1  0  0  0  0
  5 35  1  0  0  0  0
  6  7  2  0  0  0  0
  6  9  1  0  0  0  0
  7  8  1  0  0  0  0
  7 36  1  0  0  0  0
  8 37  1  0  0  0  0
  9 10  1  0  0  0  0
 10 11  1  0  0  0  0
 10 38  1  0  0  0  0
 10 39  1  0  0  0  0
 11 12  2  0  0  0  0
 11 13  1  0  0  0  0
 13 18  2  0  0  0  0
 13 14  1  0  0  0  0
 14 15  2  0  0  0  0
 14 40  1  0  0  0  0
 15 16  1  0  0  0  0
 15 41  1  0  0  0  0
 16 17  2  0  0  0  0
 16 30  1  0  0  0  0
 17 18  1  0  0  0  0
 17 20  1  0  0  0  0
 18 19  1  0  0  0  0
 19 42  1  0  0  0  0
 20 21  1  0  0  0  0
 20 43  1  0  0  0  0
 20 44  1  0  0  0  0
 21 26  1  0  0  0  0
 21 22  1  0  0  0  0
 21 45  1  0  0  0  0
 22 23  1  0  0  0  0
 22 46  1  0  0  0  0
 22 47  1  0  0  0  0
 23 24  1  0  0  0  0
 23 48  1  0  0  0  0
 23 49  1  0  0  0  0
 24 25  1  0  0  0  0
 24 27  1  0  0  0  0
 25 26  1  0  0  0  0
 25 50  1  0  0  0  0
 25 51  1  0  0  0  0
 26 52  1  0  0  0  0
 26 53  1  0  0  0  0
 27 28  1  0  0  0  0
 27 54  1  0  0  0  0
 27 55  1  0  0  0  0
 28 29  1  0  0  0  0
 28 56  1  0  0  0  0
 28 57  1  0  0  0  0
 29 58  1  0  0  0  0
M  END
> <Name>
ZINC21195156

> <reference>
BDB4965

> <quality>
0.813

> <status>
decoy

> <atoms in reference ligand area>
12

> <score>
-25.2551

$$$$
ZINC08642818
      BALL 1.4.0 (Jan  4 2012, 23:22:29)

 51 53  0999  0  0  0  0  0  0999 V2000
    6.7588    4.6290    0.9608 C   0  0  0  0  0  0  0  0  0  0  0  0
    8.0021    5.0398    0.3037 N   0  0  0  0  0  0  0  0  0  0  0  0
    8.7758    6.0486    0.8548 C   0  0  0  0  0  0  0  0  0  0  0  0
    9.9541    6.4154    0.2137 C   0  0  0  0  0  0  0  0  0  0  0  0
   10.3205    5.7618   -0.9760 C   0  0  0  0  0  0  0  0  0  0  0  0
   11.3470    6.0692   -1.5566 O   0  0  0  0  0  0  0  0  0  0  0  0
    9.5267    4.7867   -1.4651 N   0  0  0  0  0  0  0  0  0  0  0  0
    8.3921    4.4365   -0.8350 C   0  0  0  0  0  0  0  0  0  0  0  0
    7.7014    3.5528   -1.3047 O   0  0  0  0  0  0  0  0  0  0  0  0
    9.9071    4.0989   -2.7014 C   0  0  0  0  0  0  0  0  0  0  0  0
   10.5175    7.4270    0.9801 N   0  0  0  0  0  0  0  0  0  0  0  0
    9.6840    7.6295    2.0346 C   0  0  0  0  0  0  0  0  0  0  0  0
    8.6553    6.8111    1.9427 N   0  0  0  0  0  0  0  0  0  0  0  0
    9.8792    8.5520    3.0367 N   0  0  0  0  0  0  0  0  0  0  0  0
   10.2148    8.1030    4.3902 C   0  0  0  0  0  0  0  0  0  0  0  0
   10.1329    9.2875    5.3554 C   0  0  0  0  0  0  0  0  0  0  0  0
    8.7621    9.5973    5.6140 O   0  0  0  0  0  0  0  0  0  0  0  0
   11.7681    8.1387    0.7051 C   0  0  0  0  0  0  0  0  0  0  0  0
   11.7795    9.4639    1.4697 C   0  0  0  0  0  0  0  0  0  0  0  0
   11.0520   10.5318    0.6505 C   0  0  0  0  0  0  0  0  0  0  0  0
   11.5312   11.8258    1.0219 O   0  0  0  0  0  0  0  0  0  0  0  0
   11.7104   12.7279    0.0214 C   0  0  0  0  0  0  0  0  0  0  0  0
   12.3590   13.9276    0.2755 C   0  0  0  0  0  0  0  0  0  0  0  0
   12.5453   14.8403   -0.7447 C   0  0  0  0  0  0  0  0  0  0  0  0
   12.0750   14.5642   -2.0153 C   0  0  0  0  0  0  0  0  0  0  0  0
   11.4233   13.3716   -2.2697 C   0  0  0  0  0  0  0  0  0  0  0  0
   11.2399   12.4531   -1.2544 C   0  0  0  0  0  0  0  0  0  0  0  0
   13.1303    9.8732    1.6933 O   0  0  0  0  0  0  0  0  0  0  0  0
    6.5102    3.6525    0.5198 H   0  0  0  0  0  0  0  0  0  0  0  0
    6.0003    5.3463    0.6139 H   0  0  0  0  0  0  0  0  0  0  0  0
    6.8272    4.5885    2.0579 H   0  0  0  0  0  0  0  0  0  0  0  0
    9.2594    4.5248   -3.4819 H   0  0  0  0  0  0  0  0  0  0  0  0
    9.6020    3.0519   -2.5571 H   0  0  0  0  0  0  0  0  0  0  0  0
   10.9749    4.1922   -2.9485 H   0  0  0  0  0  0  0  0  0  0  0  0
    9.7894    9.5581    2.8352 H   0  0  0  0  0  0  0  0  0  0  0  0
   11.2357    7.6934    4.3993 H   0  0  0  0  0  0  0  0  0  0  0  0
    9.5046    7.3244    4.7051 H   0  0  0  0  0  0  0  0  0  0  0  0
   10.6337    9.0267    6.2994 H   0  0  0  0  0  0  0  0  0  0  0  0
   10.6275   10.1619    4.9073 H   0  0  0  0  0  0  0  0  0  0  0  0
    8.6935   10.1204    6.4517 H   0  0  0  0  0  0  0  0  0  0  0  0
   12.6197    7.5221    1.0284 H   0  0  0  0  0  0  0  0  0  0  0  0
   11.8483    8.3380   -0.3737 H   0  0  0  0  0  0  0  0  0  0  0  0
   11.2709    9.3339    2.4364 H   0  0  0  0  0  0  0  0  0  0  0  0
   11.2412   10.3647   -0.4202 H   0  0  0  0  0  0  0  0  0  0  0  0
    9.9711   10.4720    0.8455 H   0  0  0  0  0  0  0  0  0  0  0  0
   12.7246   14.1521    1.2884 H   0  0  0  0  0  0  0  0  0  0  0  0
   13.0682   15.7874   -0.5461 H   0  0  0  0  0  0  0  0  0  0  0  0
   12.2196   15.2945   -2.8250 H   0  0  0  0  0  0  0  0  0  0  0  0
   11.0504   13.1542   -3.2815 H   0  0  0  0  0  0  0  0  0  0  0  0
   10.7213   11.5045   -1.4574 H   0  0  0  0  0  0  0  0  0  0  0  0
   13.5886    9.9907    0.8237 H   0  0  0  0  0  0  0  0  0  0  0  0
  1  2  1  0  0  0  0
  1 29  1  0  0  0  0
  1 30  1  0  0  0  0
  1 31  1  0  0  0  0
  2  8  1  0  0  0  0
  2  3  1  0  0  0  0
  3 13  1  0  0  0  0
  3  4  2  0  0  0  0
  4  5  1  0  0  0  0
  4 11  1  0  0  0  0
  5  6  2  0  0  0  0
  5  7  1  0  0  0  0
  7  8  1  0  0  0  0
  7 10  1  0  0  0  0
  8  9  2  0  0  0  0
 10 32  1  0  0  0  0
 10 33  1  0  0  0  0
 10 34  1  0  0  0  0
 11 12  1  0  0  0  0
 11 18  1  0  0  0  0
 12 13  2  0  0  0  0
 12 14  1  0  0  0  0
 14 15  1  0  0  0  0
 14 35  1  0  0  0  0
 15 16  1  0  0  0  0
 15 36  1  0  0  0  0
 15 37  1  0  0  0  0
 16 17  1  0  0  0  0
 16 38  1  0  0  0  0
 16 39  1  0  0  0  0
 17 40  1  0  0  0  0
 18 19  1  0  0  0  0
 18 41  1  0  0  0  0
 18 42  1  0  0  0  0
 19 20  1  0  0  0  0
 19 28  1  0  0  0  0
 19 43  1  0  0  0  0
 20 21  1  0  0  0  0
 20 44  1  0  0  0  0
 20 45  1  0  0  0  0
 21 22  1  0  0  0  0
 22 27  2  0  0  0  0
 22 23  1  0  0  0  0
 23 24  2  0  0  0  0
 23 46  1  0  0  0  0
 24 25  1  0  0  0  0
 24 47  1  0  0  0  0
 25 26  2  0  0  0  0
 25 48  1  0  0  0  0
 26 27  1  0  0  0  0
 26 49  1  0  0  0  0
 27 50  1  0  0  0  0
 28 51  1  0  0  0  0
M  END
> <Name>
ZINC08642818

> <reference>
BDB4945

> <quality>
0.773

> <status>
decoy

> <atoms in reference ligand area>
10

> <score>
-25.1712

$$$$
ZINC05574015
      BALL 1.4.0 (Jan  4 2012, 23:22:29)

 24 23  0999  0  0  0  0  0  0999 V2000
   11.5338   13.5741   -3.3530 C   0  0  0  0  0  0  0  0  0  0  0  0
   10.3446   12.6928   -2.9659 C   0  0  0  0  0  0  0  0  0  0  0  0
    9.6934   13.2468   -1.7923 O   0  0  0  0  0  0  0  0  0  0  0  0
    8.7562   12.4846   -1.1959 C   0  0  0  0  0  0  0  0  0  0  0  0
    9.0570   11.7977   -0.1186 N   0  0  0  0  0  0  0  0  0  0  0  0
    8.1466   10.9408    0.4181 C   0  0  0  0  0  0  0  0  0  0  0  0
    8.4699    9.6836    0.6255 N   0  0  0  0  0  0  0  0  0  0  0  0
    6.9031   11.3846    0.7398 N   0  0  0  0  0  0  0  0  0  0  0  0
    5.8935   10.5419    0.7783 C   0  0  0  0  0  0  0  0  0  0  0  0
    4.6269   11.0034    0.9958 N   0  0  0  0  0  0  0  0  0  0  0  0
    6.1094    9.2229    0.6030 O   0  0  0  0  0  0  0  0  0  0  0  0
    5.5284    8.6112   -0.5789 C   0  0  0  0  0  0  0  0  0  0  0  0
    7.5104   12.4276   -1.7051 O   0  5  0  0  0  0  0  0  0  0  0  0
   12.3293   13.4694   -2.6005 H   0  0  0  0  0  0  0  0  0  0  0  0
   11.2123   14.6249   -3.4019 H   0  0  0  0  0  0  0  0  0  0  0  0
   11.9171   13.2628   -4.3360 H   0  0  0  0  0  0  0  0  0  0  0  0
    9.6278   12.6570   -3.7996 H   0  0  0  0  0  0  0  0  0  0  0  0
   10.6981   11.6755   -2.7422 H   0  0  0  0  0  0  0  0  0  0  0  0
    9.4124    9.3473    0.3816 H   0  0  0  0  0  0  0  0  0  0  0  0
    4.4619   12.0112    1.1296 H   0  0  0  0  0  0  0  0  0  0  0  0
    3.8365   10.3437    1.0259 H   0  0  0  0  0  0  0  0  0  0  0  0
    5.9266    9.1650   -1.4419 H   0  0  0  0  0  0  0  0  0  0  0  0
    4.4462    8.8008   -0.5257 H   0  0  0  0  0  0  0  0  0  0  0  0
    5.7483    7.5359   -0.6511 H   0  0  0  0  0  0  0  0  0  0  0  0
  1  2  1  0  0  0  0
  1 14  1  0  0  0  0
  1 15  1  0  0  0  0
  1 16  1  0  0  0  0
  2  3  1  0  0  0  0
  2 17  1  0  0  0  0
  2 18  1  0  0  0  0
  3  4  1  0  0  0  0
  4  5  2  0  0  0  0
  4 13  1  0  0  0  0
  5  6  1  0  0  0  0
  6  7  2  0  0  0  0
  6  8  1  0  0  0  0
  7 19  1  0  0  0  0
  8  9  2  0  0  0  0
  9 10  1  0  0  0  0
  9 11  1  0  0  0  0
 10 20  1  0  0  0  0
 10 21  1  0  0  0  0
 11 12  1  0  0  0  0
 12 22  1  0  0  0  0
 12 23  1  0  0  0  0
 12 24  1  0  0  0  0
M  END
> <Name>
ZINC05574015

> <reference>
BDB5233

> <quality>
0.719

> <status>
decoy

> <atoms in reference ligand area>
13

> <score>
-25.1557

$$$$
ZINC05499507
      BALL 1.4.0 (Jan  4 2012, 23:22:29)

 41 42  0999  0  0  0  0  0  0999 V2000
   16.5669   11.0572    7.3082 C   0  0  0  0  0  0  0  0  0  0  0  0
   15.5943    9.9582    6.8754 C   0  0  0  0  0  0  0  0  0  0  0  0
   16.3500    9.9658    4.5751 C   0  0  0  0  0  0  0  0  0  0  0  0
   16.0095    8.8137    3.6278 C   0  0  0  0  0  0  0  0  0  0  0  0
   15.2721    9.3166    2.5118 O   0  0  0  0  0  0  0  0  0  0  0  0
   14.7138   11.5890    5.3173 C   0  0  0  0  0  0  0  0  0  0  0  0
   13.6849   11.6250    4.1856 C   0  0  0  0  0  0  0  0  0  0  0  0
   13.1662   13.0539    4.0130 C   0  0  0  0  0  0  0  0  0  0  0  0
   12.0961   13.0676    3.0124 N   0  0  0  0  0  0  0  0  0  0  0  0
   12.2562   13.1531    1.6613 C   0  0  0  0  0  0  0  0  0  0  0  0
   11.0949   13.1383    1.0742 N   0  0  0  0  0  0  0  0  0  0  0  0
   10.1185   13.0425    2.0084 C   0  0  0  0  0  0  0  0  0  0  0  0
   10.7492   12.9960    3.2633 C   0  0  0  0  0  0  0  0  0  0  0  0
   10.0024   12.9006    4.3584 N   0  0  0  0  0  0  0  0  0  0  0  0
    8.6897   12.8500    4.2730 C   0  0  0  0  0  0  0  0  0  0  0  0
    8.0526   12.8906    3.1172 N   0  0  0  0  0  0  0  0  0  0  0  0
    8.7151   12.9856    1.9689 C   0  0  0  0  0  0  0  0  0  0  0  0
    8.0385   13.0279    0.7624 N   0  0  0  0  0  0  0  0  0  0  0  0
   12.5948   10.7579    4.5053 O   0  0  0  0  0  0  0  0  0  0  0  0
   15.1991   10.2015    5.4721 N   0  3  0  0  0  0  0  0  0  0  0  0
   16.8696   11.6539    6.4350 H   0  0  0  0  0  0  0  0  0  0  0  0
   17.4562   10.6074    7.7739 H   0  0  0  0  0  0  0  0  0  0  0  0
   16.0697   11.7127    8.0383 H   0  0  0  0  0  0  0  0  0  0  0  0
   16.0869    8.9779    6.9545 H   0  0  0  0  0  0  0  0  0  0  0  0
   14.7019    9.9803    7.5182 H   0  0  0  0  0  0  0  0  0  0  0  0
   16.5537   10.8757    3.9916 H   0  0  0  0  0  0  0  0  0  0  0  0
   17.2345    9.7017    5.1733 H   0  0  0  0  0  0  0  0  0  0  0  0
   16.9387    8.3450    3.2715 H   0  0  0  0  0  0  0  0  0  0  0  0
   15.4029    8.0665    4.1605 H   0  0  0  0  0  0  0  0  0  0  0  0
   15.8337    9.2738    1.6977 H   0  0  0  0  0  0  0  0  0  0  0  0
   15.5582   12.2489    5.0689 H   0  0  0  0  0  0  0  0  0  0  0  0
   14.2439   11.9213    6.2547 H   0  0  0  0  0  0  0  0  0  0  0  0
   14.1571   11.2908    3.2500 H   0  0  0  0  0  0  0  0  0  0  0  0
   13.9874   13.7054    3.6795 H   0  0  0  0  0  0  0  0  0  0  0  0
   12.7743   13.4204    4.9733 H   0  0  0  0  0  0  0  0  0  0  0  0
   13.2243   13.2241    1.1438 H   0  0  0  0  0  0  0  0  0  0  0  0
    8.1015   12.7711    5.1992 H   0  0  0  0  0  0  0  0  0  0  0  0
    8.4140   12.5131   -0.0469 H   0  0  0  0  0  0  0  0  0  0  0  0
    7.1666   13.5689    0.6726 H   0  0  0  0  0  0  0  0  0  0  0  0
   12.5810   10.5894    5.4807 H   0  0  0  0  0  0  0  0  0  0  0  0
   14.4404    9.5518    5.2207 H   0  0  0  0  0  0  0  0  0  0  0  0
  1  2  1  0  0  0  0
  1 21  1  0  0  0  0
  1 22  1  0  0  0  0
  1 23  1  0  0  0  0
  2 20  1  0  0  0  0
  2 24  1  0  0  0  0
  2 25  1  0  0  0  0
  3  4  1  0  0  0  0
  3 20  1  0  0  0  0
  3 26  1  0  0  0  0
  3 27  1  0  0  0  0
  4  5  1  0  0  0  0
  4 28  1  0  0  0  0
  4 29  1  0  0  0  0
  5 30  1  0  0  0  0
  6  7  1  0  0  0  0
  6 20  1  0  0  0  0
  6 31  1  0  0  0  0
  6 32  1  0  0  0  0
  7  8  1  0  0  0  0
  7 19  1  0  0  0  0
  7 33  1  0  0  0  0
  8  9  1  0  0  0  0
  8 34  1  0  0  0  0
  8 35  1  0  0  0  0
  9 13  1  0  0  0  0
  9 10  1  0  0  0  0
 10 11  2  0  0  0  0
 10 36  1  0  0  0  0
 11 12  1  0  0  0  0
 12 17  2  0  0  0  0
 12 13  1  0  0  0  0
 13 14  2  0  0  0  0
 14 15  1  0  0  0  0
 15 16  2  0  0  0  0
 15 37  1  0  0  0  0
 16 17  1  0  0  0  0
 17 18  1  0  0  0  0
 18 38  1  0  0  0  0
 18 39  1  0  0  0  0
 19 40  1  0  0  0  0
 20 41  1  0  0  0  0
M  END
> <Name>
ZINC05499507

> <reference>
BDB5222

> <quality>
0.793

> <status>
decoy

> <atoms in reference ligand area>
11

> <score>
-25.136

$$$$
ZINC31229550
      BALL 1.4.0 (Jan  4 2012, 23:22:29)

 60 63  0999  0  0  0  0  0  0999 V2000
   17.5752    3.8073   -2.8501 C   0  0  0  0  0  0  0  0  0  0  0  0
   17.5578    4.3918   -1.4362 C   0  0  0  0  0  0  0  0  0  0  0  0
   16.2583    5.1705   -1.2224 C   0  0  0  0  0  0  0  0  0  0  0  0
   16.4114    6.0962   -0.0139 C   0  0  0  0  0  0  0  0  0  0  0  0
   15.0889    6.5458    0.4276 N   0  0  0  0  0  0  0  0  0  0  0  0
   14.9817    7.4552    1.4166 C   0  0  0  0  0  0  0  0  0  0  0  0
   15.9827    7.9025    1.9424 O   0  0  0  0  0  0  0  0  0  0  0  0
   13.6499    7.9079    1.8611 C   0  0  0  0  0  0  0  0  0  0  0  0
   13.2509    7.7146    3.1870 C   0  0  0  0  0  0  0  0  0  0  0  0
   12.0082    8.1384    3.5987 C   0  0  0  0  0  0  0  0  0  0  0  0
   11.1485    8.7591    2.6965 C   0  0  0  0  0  0  0  0  0  0  0  0
   11.5407    8.9480    1.3741 C   0  0  0  0  0  0  0  0  0  0  0  0
   12.7845    8.5316    0.9577 C   0  0  0  0  0  0  0  0  0  0  0  0
    9.8934    9.1863    3.1157 N   0  0  0  0  0  0  0  0  0  0  0  0
    9.7502   10.5500    4.0440 S   0  0  0  0  0  0  0  0  0  0  0  0
   10.6773   10.4133    5.1124 O   0  0  0  0  0  0  0  0  0  0  0  0
    8.3603   10.7486    4.2624 O   0  0  0  0  0  0  0  0  0  0  0  0
   10.3053   11.9065    3.0662 C   0  0  0  0  0  0  0  0  0  0  0  0
   10.0109   13.2024    3.4546 C   0  0  0  0  0  0  0  0  0  0  0  0
   10.4416   14.2721    2.6948 C   0  0  0  0  0  0  0  0  0  0  0  0
   11.1721   14.0473    1.5377 C   0  0  0  0  0  0  0  0  0  0  0  0
   11.4686   12.7404    1.1457 C   0  0  0  0  0  0  0  0  0  0  0  0
   11.0319   11.6727    1.9151 C   0  0  0  0  0  0  0  0  0  0  0  0
   12.2014   12.8308   -0.0353 N   0  0  0  0  0  0  0  0  0  0  0  0
   12.3434   14.1328   -0.3477 C   0  0  0  0  0  0  0  0  0  0  0  0
   12.9336   14.5592   -1.3227 O   0  0  0  0  0  0  0  0  0  0  0  0
   11.7332   14.8913    0.5824 N   0  0  0  0  0  0  0  0  0  0  0  0
   15.9648    5.9714   -2.4184 N   0  3  0  0  0  0  0  0  0  0  0  0
   14.7693    6.8268   -2.2060 C   0  0  0  0  0  0  0  0  0  0  0  0
   14.9245    7.9274   -3.2855 C   0  0  0  0  0  0  0  0  0  0  0  0
   16.4498    8.1786   -3.3061 C   0  0  0  0  0  0  0  0  0  0  0  0
   17.0761    6.8994   -2.7206 C   0  0  0  0  0  0  0  0  0  0  0  0
   18.3284    4.3324   -3.4559 H   0  0  0  0  0  0  0  0  0  0  0  0
   16.5841    3.9302   -3.3111 H   0  0  0  0  0  0  0  0  0  0  0  0
   17.8259    2.7373   -2.8022 H   0  0  0  0  0  0  0  0  0  0  0  0
   18.4154    5.0686   -1.3075 H   0  0  0  0  0  0  0  0  0  0  0  0
   17.6210    3.5759   -0.7012 H   0  0  0  0  0  0  0  0  0  0  0  0
   15.4337    4.4652   -1.0419 H   0  0  0  0  0  0  0  0  0  0  0  0
   17.0200    6.9688   -0.2937 H   0  0  0  0  0  0  0  0  0  0  0  0
   16.9052    5.5521    0.8047 H   0  0  0  0  0  0  0  0  0  0  0  0
   14.2410    6.1670   -0.0177 H   0  0  0  0  0  0  0  0  0  0  0  0
   13.9296    7.2243    3.9003 H   0  0  0  0  0  0  0  0  0  0  0  0
   11.6937    7.9866    4.6417 H   0  0  0  0  0  0  0  0  0  0  0  0
   10.8557    9.4307    0.6615 H   0  0  0  0  0  0  0  0  0  0  0  0
   13.0973    8.6894   -0.0850 H   0  0  0  0  0  0  0  0  0  0  0  0
    9.0528    8.6545    2.8487 H   0  0  0  0  0  0  0  0  0  0  0  0
    9.4314   13.3807    4.3724 H   0  0  0  0  0  0  0  0  0  0  0  0
   10.2058   15.3003    3.0067 H   0  0  0  0  0  0  0  0  0  0  0  0
   11.2636   10.6417    1.6094 H   0  0  0  0  0  0  0  0  0  0  0  0
   12.5716   12.0370   -0.5773 H   0  0  0  0  0  0  0  0  0  0  0  0
   11.6890   15.9203    0.5868 H   0  0  0  0  0  0  0  0  0  0  0  0
   15.8157    5.3006   -3.1857 H   0  0  0  0  0  0  0  0  0  0  0  0
   13.8500    6.2494   -2.3833 H   0  0  0  0  0  0  0  0  0  0  0  0
   14.7927    7.2754   -1.2019 H   0  0  0  0  0  0  0  0  0  0  0  0
   14.3929    8.8404   -2.9793 H   0  0  0  0  0  0  0  0  0  0  0  0
   14.5874    7.5524   -4.2631 H   0  0  0  0  0  0  0  0  0  0  0  0
   16.6987    9.0429   -2.6727 H   0  0  0  0  0  0  0  0  0  0  0  0
   16.7931    8.3260   -4.3407 H   0  0  0  0  0  0  0  0  0  0  0  0
   17.7523    6.4452   -3.4598 H   0  0  0  0  0  0  0  0  0  0  0  0
   17.6212    7.1421   -1.7965 H   0  0  0  0  0  0  0  0  0  0  0  0
  1  2  1  0  0  0  0
  1 33  1  0  0  0  0
  1 34  1  0  0  0  0
  1 35  1  0  0  0  0
  2  3  1  0  0  0  0
  2 36  1  0  0  0  0
  2 37  1  0  0  0  0
  3  4  1  0  0  0  0
  3 28  1  0  0  0  0
  3 38  1  0  0  0  0
  4  5  1  0  0  0  0
  4 39  1  0  0  0  0
  4 40  1  0  0  0  0
  5  6  1  0  0  0  0
  5 41  1  0  0  0  0
  6  7  2  0  0  0  0
  6  8  1  0  0  0  0
  8 13  2  0  0  0  0
  8  9  1  0  0  0  0
  9 10  2  0  0  0  0
  9 42  1  0  0  0  0
 10 11  1  0  0  0  0
 10 43  1  0  0  0  0
 11 12  2  0  0  0  0
 11 14  1  0  0  0  0
 12 13  1  0  0  0  0
 12 44  1  0  0  0  0
 13 45  1  0  0  0  0
 14 15  1  0  0  0  0
 14 46  1  0  0  0  0
 15 16  2  0  0  0  0
 15 17  2  0  0  0  0
 15 18  1  0  0  0  0
 18 23  2  0  0  0  0
 18 19  1  0  0  0  0
 19 20  2  0  0  0  0
 19 47  1  0  0  0  0
 20 21  1  0  0  0  0
 20 48  1  0  0  0  0
 21 27  1  0  0  0  0
 21 22  2  0  0  0  0
 22 23  1  0  0  0  0
 22 24  1  0  0  0  0
 23 49  1  0  0  0  0
 24 25  1  0  0  0  0
 24 50  1  0  0  0  0
 25 26  2  0  0  0  0
 25 27  1  0  0  0  0
 27 51  1  0  0  0  0
 28 32  1  0  0  0  0
 28 29  1  0  0  0  0
 28 52  1  0  0  0  0
 29 30  1  0  0  0  0
 29 53  1  0  0  0  0
 29 54  1  0  0  0  0
 30 31  1  0  0  0  0
 30 55  1  0  0  0  0
 30 56  1  0  0  0  0
 31 32  1  0  0  0  0
 31 57  1  0  0  0  0
 31 58  1  0  0  0  0
 32 59  1  0  0  0  0
 32 60  1  0  0  0  0
M  END
> <Name>
ZINC31229550

> <reference>
BDB4968

> <quality>
0.860

> <status>
decoy

> <atoms in reference ligand area>
11

> <score>
-25.1325

$$$$
ZINC29918098
      BALL 1.4.0 (Jan  4 2012, 23:22:29)

 35 36  0999  0  0  0  0  0  0999 V2000
    8.4729   14.0844   -0.8282 C   0  0  0  0  0  0  0  0  0  0  0  0
    8.0294   12.7333   -0.4760 N   0  0  0  0  0  0  0  0  0  0  0  0
    6.8964   12.1275   -1.1799 C   0  0  0  0  0  0  0  0  0  0  0  0
    8.6788   12.0313    0.5188 C   0  0  0  0  0  0  0  0  0  0  0  0
    9.7176   11.2551    0.2175 N   0  0  0  0  0  0  0  0  0  0  0  0
   10.3370   10.5787    1.1688 C   0  0  0  0  0  0  0  0  0  0  0  0
    9.9345   10.6773    2.4238 N   0  0  0  0  0  0  0  0  0  0  0  0
    8.8999   11.4551    2.7336 C   0  0  0  0  0  0  0  0  0  0  0  0
    8.2714   12.1330    1.7791 N   0  0  0  0  0  0  0  0  0  0  0  0
    8.4801   11.5571    4.0442 N   0  0  0  0  0  0  0  0  0  0  0  0
   11.5092    9.6971    0.8226 C   0  0  0  0  0  0  0  0  0  0  0  0
   12.6505    9.6322    2.2259 S   0  0  0  0  0  0  0  0  0  0  0  0
   13.8882    8.5666    1.5646 C   0  0  0  0  0  0  0  0  0  0  0  0
   15.1239    8.4527    1.9884 N   0  0  0  0  0  0  0  0  0  0  0  0
   15.7398    7.5776    1.2740 N   0  0  0  0  0  0  0  0  0  0  0  0
   14.9326    7.1089    0.3680 C   0  0  0  0  0  0  0  0  0  0  0  0
   13.7414    7.7180    0.5297 O   0  0  0  0  0  0  0  0  0  0  0  0
   15.2670    6.0687   -0.6699 C   0  0  0  0  0  0  0  0  0  0  0  0
   14.0675    6.1615   -2.0274 S   0  0  0  0  0  0  0  0  0  0  0  0
   14.6484    7.5560   -3.0318 C   0  0  0  0  0  0  0  0  0  0  0  0
    8.8229   14.5218    0.1185 H   0  0  0  0  0  0  0  0  0  0  0  0
    7.5532   14.6191   -1.1076 H   0  0  0  0  0  0  0  0  0  0  0  0
    9.2380   14.1189   -1.6177 H   0  0  0  0  0  0  0  0  0  0  0  0
    6.3156   12.9789   -1.5644 H   0  0  0  0  0  0  0  0  0  0  0  0
    6.2921   11.6579   -0.3897 H   0  0  0  0  0  0  0  0  0  0  0  0
    7.1810   11.4186   -1.9714 H   0  0  0  0  0  0  0  0  0  0  0  0
    7.4736   11.5850    4.2613 H   0  0  0  0  0  0  0  0  0  0  0  0
    9.1727   11.6052    4.8049 H   0  0  0  0  0  0  0  0  0  0  0  0
   11.1505    8.6824    0.5953 H   0  0  0  0  0  0  0  0  0  0  0  0
   12.0310   10.1067   -0.0548 H   0  0  0  0  0  0  0  0  0  0  0  0
   16.2782    6.2533   -1.0617 H   0  0  0  0  0  0  0  0  0  0  0  0
   15.2272    5.0684   -0.2142 H   0  0  0  0  0  0  0  0  0  0  0  0
   15.3512    8.1990   -2.4818 H   0  0  0  0  0  0  0  0  0  0  0  0
   13.8162    8.1476   -3.4411 H   0  0  0  0  0  0  0  0  0  0  0  0
   15.1969    7.1341   -3.8869 H   0  0  0  0  0  0  0  0  0  0  0  0
  1  2  1  0  0  0  0
  1 21  1  0  0  0  0
  1 22  1  0  0  0  0
  1 23  1  0  0  0  0
  2  3  1  0  0  0  0
  2  4  1  0  0  0  0
  3 24  1  0  0  0  0
  3 25  1  0  0  0  0
  3 26  1  0  0  0  0
  4  9  2  0  0  0  0
  4  5  1  0  0  0  0
  5  6  2  0  0  0  0
  6  7  1  0  0  0  0
  6 11  1  0  0  0  0
  7  8  2  0  0  0  0
  8  9  1  0  0  0  0
  8 10  1  0  0  0  0
 10 27  1  0  0  0  0
 10 28  1  0  0  0  0
 11 12  1  0  0  0  0
 11 29  1  0  0  0  0
 11 30  1  0  0  0  0
 12 13  1  0  0  0  0
 13 17  1  0  0  0  0
 13 14  2  0  0  0  0
 14 15  1  0  0  0  0
 15 16  2  0  0  0  0
 16 17  1  0  0  0  0
 16 18  1  0  0  0  0
 18 19  1  0  0  0  0
 18 31  1  0  0  0  0
 18 32  1  0  0  0  0
 19 20  1  0  0  0  0
 20 33  1  0  0  0  0
 20 34  1  0  0  0  0
 20 35  1  0  0  0  0
M  END
> <Name>
ZINC29918098

> <reference>
BDB5219

> <quality>
0.711

> <status>
decoy

> <atoms in reference ligand area>
17

> <score>
-25.0971

$$$$
ZINC29918169
      BALL 1.4.0 (Jan  4 2012, 23:22:29)

 44 45  0999  0  0  0  0  0  0999 V2000
    7.9127   15.5544    3.1358 C   0  0  0  0  0  0  0  0  0  0  0  0
    8.5572   14.1802    2.9429 C   0  0  0  0  0  0  0  0  0  0  0  0
    7.9580   13.5047    1.7078 C   0  0  0  0  0  0  0  0  0  0  0  0
   10.0660   14.3469    2.7515 C   0  0  0  0  0  0  0  0  0  0  0  0
   10.6665   13.0454    2.4484 N   0  0  0  0  0  0  0  0  0  0  0  0
   11.1088   12.2576    3.4727 C   0  0  0  0  0  0  0  0  0  0  0  0
   11.6831   11.0104    3.1719 C   0  0  0  0  0  0  0  0  0  0  0  0
   11.7762   10.6205    1.7591 C   0  0  0  0  0  0  0  0  0  0  0  0
   12.2645    9.5520    1.4403 O   0  0  0  0  0  0  0  0  0  0  0  0
   11.3096   11.4712    0.8219 N   0  0  0  0  0  0  0  0  0  0  0  0
   10.7702   12.6508    1.1698 C   0  0  0  0  0  0  0  0  0  0  0  0
   10.3613   13.3884    0.2945 O   0  0  0  0  0  0  0  0  0  0  0  0
   12.1497   10.1577    4.1950 C   0  0  0  0  0  0  0  0  0  0  0  0
   11.5185    9.1633    4.4919 O   0  0  0  0  0  0  0  0  0  0  0  0
   13.4312   10.4809    4.9191 C   0  0  0  0  0  0  0  0  0  0  0  0
   13.9134    9.0731    5.9496 S   0  0  0  0  0  0  0  0  0  0  0  0
   15.3965    9.7069    6.6589 C   0  0  0  0  0  0  0  0  0  0  0  0
   15.4819   10.5402    7.6679 N   0  0  0  0  0  0  0  0  0  0  0  0
   16.7208   10.7818    7.9166 N   0  0  0  0  0  0  0  0  0  0  0  0
   17.4690   10.1262    7.0785 C   0  0  0  0  0  0  0  0  0  0  0  0
   16.6531    9.4304    6.2624 O   0  0  0  0  0  0  0  0  0  0  0  0
   18.9752   10.1418    7.0294 C   0  0  0  0  0  0  0  0  0  0  0  0
   19.6316   10.4224    8.6971 S   0  0  0  0  0  0  0  0  0  0  0  0
   18.1795   10.2645    9.7726 C   0  0  0  0  0  0  0  0  0  0  0  0
   10.9950   12.6731    4.7633 N   0  0  0  0  0  0  0  0  0  0  0  0
    8.4619   16.1130    3.9079 H   0  0  0  0  0  0  0  0  0  0  0  0
    6.8659   15.4288    3.4496 H   0  0  0  0  0  0  0  0  0  0  0  0
    7.9459   16.1119    2.1881 H   0  0  0  0  0  0  0  0  0  0  0  0
    8.3666   13.5581    3.8299 H   0  0  0  0  0  0  0  0  0  0  0  0
    8.2984   14.0271    0.8015 H   0  0  0  0  0  0  0  0  0  0  0  0
    6.8602   13.5449    1.7629 H   0  0  0  0  0  0  0  0  0  0  0  0
    8.2839   12.4548    1.6689 H   0  0  0  0  0  0  0  0  0  0  0  0
   10.5113   14.7496    3.6732 H   0  0  0  0  0  0  0  0  0  0  0  0
   10.2557   15.0404    1.9191 H   0  0  0  0  0  0  0  0  0  0  0  0
   11.3679   11.2127   -0.1734 H   0  0  0  0  0  0  0  0  0  0  0  0
   14.2250   10.6868    4.1860 H   0  0  0  0  0  0  0  0  0  0  0  0
   13.2811   11.3656    5.5554 H   0  0  0  0  0  0  0  0  0  0  0  0
   19.3399    9.1758    6.6502 H   0  0  0  0  0  0  0  0  0  0  0  0
   19.3132   10.9488    6.3626 H   0  0  0  0  0  0  0  0  0  0  0  0
   18.4487   10.2849   10.8389 H   0  0  0  0  0  0  0  0  0  0  0  0
   17.5841    9.3700    9.5372 H   0  0  0  0  0  0  0  0  0  0  0  0
   17.5389   11.1386    9.5837 H   0  0  0  0  0  0  0  0  0  0  0  0
   11.0343   11.9817    5.5257 H   0  0  0  0  0  0  0  0  0  0  0  0
   10.8702   13.6727    4.9778 H   0  0  0  0  0  0  0  0  0  0  0  0
  1  2  1  0  0  0  0
  1 26  1  0  0  0  0
  1 27  1  0  0  0  0
  1 28  1  0  0  0  0
  2  3  1  0  0  0  0
  2  4  1  0  0  0  0
  2 29  1  0  0  0  0
  3 30  1  0  0  0  0
  3 31  1  0  0  0  0
  3 32  1  0  0  0  0
  4  5  1  0  0  0  0
  4 33  1  0  0  0  0
  4 34  1  0  0  0  0
  5 11  1  0  0  0  0
  5  6  1  0  0  0  0
  6  7  2  0  0  0  0
  6 25  1  0  0  0  0
  7  8  1  0  0  0  0
  7 13  1  0  0  0  0
  8  9  2  0  0  0  0
  8 10  1  0  0  0  0
 10 11  1  0  0  0  0
 10 35  1  0  0  0  0
 11 12  2  0  0  0  0
 13 14  2  0  0  0  0
 13 15  1  0  0  0  0
 15 16  1  0  0  0  0
 15 36  1  0  0  0  0
 15 37  1  0  0  0  0
 16 17  1  0  0  0  0
 17 21  1  0  0  0  0
 17 18  2  0  0  0  0
 18 19  1  0  0  0  0
 19 20  2  0  0  0  0
 20 21  1  0  0  0  0
 20 22  1  0  0  0  0
 22 23  1  0  0  0  0
 22 38  1  0  0  0  0
 22 39  1  0  0  0  0
 23 24  1  0  0  0  0
 24 40  1  0  0  0  0
 24 41  1  0  0  0  0
 24 42  1  0  0  0  0
 25 43  1  0  0  0  0
 25 44  1  0  0  0  0
M  END
> <Name>
ZINC29918169

> <reference>
BDB4945

> <quality>
0.715

> <status>
decoy

> <atoms in reference ligand area>
16

> <score>
-24.9924

$$$$
ZINC05202206
      BALL 1.4.0 (Jan  4 2012, 23:22:29)

 45 46  0999  0  0  0  0  0  0999 V2000
   13.8734   13.6213    2.6429 C   0  0  0  0  0  0  0  0  0  0  0  0
   12.8197   13.4003    1.5885 C   0  0  0  0  0  0  0  0  0  0  0  0
   11.7760   12.4522    1.6466 C   0  0  0  0  0  0  0  0  0  0  0  0
   11.0419   12.5800    0.4876 C   0  0  0  0  0  0  0  0  0  0  0  0
   11.6103   13.5598   -0.2436 N   0  0  0  0  0  0  0  0  0  0  0  0
   12.7166   14.0495    0.4602 N   0  0  0  0  0  0  0  0  0  0  0  0
   11.1521   14.0277   -1.5540 C   0  0  0  0  0  0  0  0  0  0  0  0
   11.6412   13.0656   -2.6386 C   0  0  0  0  0  0  0  0  0  0  0  0
   10.8448   13.2283   -3.8139 O   0  0  0  0  0  0  0  0  0  0  0  0
    9.8275   11.7727    0.1070 C   0  0  0  0  0  0  0  0  0  0  0  0
   11.5372   11.5679    2.6665 N   0  0  0  0  0  0  0  0  0  0  0  0
   12.2166   10.4741    2.7442 N   0  0  0  0  0  0  0  0  0  0  0  0
   12.0698    9.6523    3.8302 C   0  0  0  0  0  0  0  0  0  0  0  0
   13.0551    8.8006    4.3752 C   0  0  0  0  0  0  0  0  0  0  0  0
   12.5358    8.1852    5.4025 N   0  0  0  0  0  0  0  0  0  0  0  0
   11.2084    8.6012    5.5557 N   0  0  0  0  0  0  0  0  0  0  0  0
   10.9301    9.4982    4.5911 C   0  0  0  0  0  0  0  0  0  0  0  0
    9.6152   10.2042    4.3817 C   0  0  0  0  0  0  0  0  0  0  0  0
   10.2797    8.1395    6.5904 C   0  0  0  0  0  0  0  0  0  0  0  0
    9.7062    6.7785    6.1903 C   0  0  0  0  0  0  0  0  0  0  0  0
    8.9876    6.2217    7.2929 O   0  0  0  0  0  0  0  0  0  0  0  0
   14.4625    8.6341    3.8627 C   0  0  0  0  0  0  0  0  0  0  0  0
   13.1141   10.1229    1.7068 O   0  0  0  0  0  0  0  0  0  0  0  0
   14.0424   14.7072    2.5955 H   0  0  0  0  0  0  0  0  0  0  0  0
   14.7647   13.1538    2.1992 H   0  0  0  0  0  0  0  0  0  0  0  0
   13.6319   13.2520    3.6505 H   0  0  0  0  0  0  0  0  0  0  0  0
   10.0528   14.0650   -1.5664 H   0  0  0  0  0  0  0  0  0  0  0  0
   11.5554   15.0327   -1.7474 H   0  0  0  0  0  0  0  0  0  0  0  0
   12.6929   13.2843   -2.8757 H   0  0  0  0  0  0  0  0  0  0  0  0
   11.5541   12.0301   -2.2781 H   0  0  0  0  0  0  0  0  0  0  0  0
   11.1563   14.0216   -4.3176 H   0  0  0  0  0  0  0  0  0  0  0  0
    9.9743   10.8427    0.6758 H   0  0  0  0  0  0  0  0  0  0  0  0
   10.0338   11.5159   -0.9425 H   0  0  0  0  0  0  0  0  0  0  0  0
    8.8493   12.2488    0.2691 H   0  0  0  0  0  0  0  0  0  0  0  0
    8.9910    9.4143    3.9385 H   0  0  0  0  0  0  0  0  0  0  0  0
    9.8474   10.8970    3.5595 H   0  0  0  0  0  0  0  0  0  0  0  0
    9.1696   10.6871    5.2638 H   0  0  0  0  0  0  0  0  0  0  0  0
   10.8140    8.0447    7.5472 H   0  0  0  0  0  0  0  0  0  0  0  0
    9.4596    8.8646    6.6987 H   0  0  0  0  0  0  0  0  0  0  0  0
   10.5267    6.1020    5.9091 H   0  0  0  0  0  0  0  0  0  0  0  0
    9.0253    6.9044    5.3355 H   0  0  0  0  0  0  0  0  0  0  0  0
    8.3553    6.8948    7.6496 H   0  0  0  0  0  0  0  0  0  0  0  0
   15.0357    8.4835    4.7893 H   0  0  0  0  0  0  0  0  0  0  0  0
   14.7118    9.6495    3.5209 H   0  0  0  0  0  0  0  0  0  0  0  0
   14.6219    7.8535    3.1043 H   0  0  0  0  0  0  0  0  0  0  0  0
  1  2  1  0  0  0  0
  1 24  1  0  0  0  0
  1 25  1  0  0  0  0
  1 26  1  0  0  0  0
  2  6  2  0  0  0  0
  2  3  1  0  0  0  0
  3  4  2  0  0  0  0
  3 11  1  0  0  0  0
  4  5  1  0  0  0  0
  4 10  1  0  0  0  0
  5  6  1  0  0  0  0
  5  7  1  0  0  0  0
  7  8  1  0  0  0  0
  7 27  1  0  0  0  0
  7 28  1  0  0  0  0
  8  9  1  0  0  0  0
  8 29  1  0  0  0  0
  8 30  1  0  0  0  0
  9 31  1  0  0  0  0
 10 32  1  0  0  0  0
 10 33  1  0  0  0  0
 10 34  1  0  0  0  0
 11 12  2  0  0  0  0
 12 13  1  0  0  0  0
 12 23  2  0  0  0  0
 13 17  2  0  0  0  0
 13 14  1  0  0  0  0
 14 15  2  0  0  0  0
 14 22  1  0  0  0  0
 15 16  1  0  0  0  0
 16 17  1  0  0  0  0
 16 19  1  0  0  0  0
 17 18  1  0  0  0  0
 18 35  1  0  0  0  0
 18 36  1  0  0  0  0
 18 37  1  0  0  0  0
 19 20  1  0  0  0  0
 19 38  1  0  0  0  0
 19 39  1  0  0  0  0
 20 21  1  0  0  0  0
 20 40  1  0  0  0  0
 20 41  1  0  0  0  0
 21 42  1  0  0  0  0
 22 43  1  0  0  0  0
 22 44  1  0  0  0  0
 22 45  1  0  0  0  0
M  END
> <Name>
ZINC05202206

> <reference>
BDB5198

> <quality>
0.777

> <status>
decoy

> <atoms in reference ligand area>
15

> <score>
-24.9514

$$$$
ZINC00531613
      BALL 1.4.0 (Jan  4 2012, 23:22:29)

 36 37  0999  0  0  0  0  0  0999 V2000
    6.8771   11.5640    1.4274 C   0  0  0  0  0  0  0  0  0  0  0  0
    7.8118   10.6078    0.9236 O   0  0  0  0  0  0  0  0  0  0  0  0
    9.0303   10.5598    1.5248 C   0  0  0  0  0  0  0  0  0  0  0  0
    9.7314    9.3641    1.5734 C   0  0  0  0  0  0  0  0  0  0  0  0
   10.9680    9.3103    2.1823 C   0  0  0  0  0  0  0  0  0  0  0  0
   11.5165   10.4609    2.7512 C   0  0  0  0  0  0  0  0  0  0  0  0
   10.8085   11.6632    2.7075 C   0  0  0  0  0  0  0  0  0  0  0  0
    9.5721   11.7117    2.0903 C   0  0  0  0  0  0  0  0  0  0  0  0
    8.8823   12.8828    2.0405 O   0  0  0  0  0  0  0  0  0  0  0  0
    8.1675   13.2652    3.2172 C   0  0  0  0  0  0  0  0  0  0  0  0
   12.8416   10.4051    3.4040 C   0  0  0  0  0  0  0  0  0  0  0  0
   13.5946   11.4297    3.7302 N   0  0  0  0  0  0  0  0  0  0  0  0
   14.6805   11.0187    4.2807 N   0  0  0  0  0  0  0  0  0  0  0  0
   14.6853    9.7063    4.3452 C   0  0  0  0  0  0  0  0  0  0  0  0
   13.5186    9.2693    3.7845 N   0  0  0  0  0  0  0  0  0  0  0  0
   13.1073    7.9750    3.6374 N   0  0  0  0  0  0  0  0  0  0  0  0
   15.9605    8.6977    5.0243 S   0  0  0  0  0  0  0  0  0  0  0  0
   17.1281    9.9778    5.5482 C   0  0  0  0  0  0  0  0  0  0  0  0
   16.5562   10.7291    6.7227 C   0  0  0  0  0  0  0  0  0  0  0  0
   15.8082   10.1682    7.4953 O   0  0  0  0  0  0  0  0  0  0  0  0
   16.8758   12.0242    6.9144 N   0  0  0  0  0  0  0  0  0  0  0  0
    6.2736   11.8895    0.5672 H   0  0  0  0  0  0  0  0  0  0  0  0
    7.4697   12.4254    1.7691 H   0  0  0  0  0  0  0  0  0  0  0  0
    6.2477   11.1598    2.2340 H   0  0  0  0  0  0  0  0  0  0  0  0
    9.3003    8.4566    1.1253 H   0  0  0  0  0  0  0  0  0  0  0  0
   11.5218    8.3606    2.2195 H   0  0  0  0  0  0  0  0  0  0  0  0
   11.2332   12.5699    3.1631 H   0  0  0  0  0  0  0  0  0  0  0  0
    8.7935   12.9652    4.0705 H   0  0  0  0  0  0  0  0  0  0  0  0
    7.2541   12.6525    3.2370 H   0  0  0  0  0  0  0  0  0  0  0  0
    7.9350   14.3400    3.2435 H   0  0  0  0  0  0  0  0  0  0  0  0
   12.9380    7.6821    2.6645 H   0  0  0  0  0  0  0  0  0  0  0  0
   12.9709    7.3260    4.4256 H   0  0  0  0  0  0  0  0  0  0  0  0
   17.3045   10.6768    4.7174 H   0  0  0  0  0  0  0  0  0  0  0  0
   18.0791    9.5090    5.8413 H   0  0  0  0  0  0  0  0  0  0  0  0
   17.7914   12.3801    6.6046 H   0  0  0  0  0  0  0  0  0  0  0  0
   16.2044   12.6581    7.3707 H   0  0  0  0  0  0  0  0  0  0  0  0
  1  2  1  0  0  0  0
  1 22  1  0  0  0  0
  1 23  1  0  0  0  0
  1 24  1  0  0  0  0
  2  3  1  0  0  0  0
  3  8  2  0  0  0  0
  3  4  1  0  0  0  0
  4  5  2  0  0  0  0
  4 25  1  0  0  0  0
  5  6  1  0  0  0  0
  5 26  1  0  0  0  0
  6  7  2  0  0  0  0
  6 11  1  0  0  0  0
  7  8  1  0  0  0  0
  7 27  1  0  0  0  0
  8  9  1  0  0  0  0
  9 10  1  0  0  0  0
 10 28  1  0  0  0  0
 10 29  1  0  0  0  0
 10 30  1  0  0  0  0
 11 15  1  0  0  0  0
 11 12  2  0  0  0  0
 12 13  1  0  0  0  0
 13 14  2  0  0  0  0
 14 15  1  0  0  0  0
 14 17  1  0  0  0  0
 15 16  1  0  0  0  0
 16 31  1  0  0  0  0
 16 32  1  0  0  0  0
 17 18  1  0  0  0  0
 18 19  1  0  0  0  0
 18 33  1  0  0  0  0
 18 34  1  0  0  0  0
 19 20  2  0  0  0  0
 19 21  1  0  0  0  0
 21 35  1  0  0  0  0
 21 36  1  0  0  0  0
M  END
> <Name>
ZINC00531613

> <reference>
BDB5199

> <quality>
0.762

> <status>
decoy

> <atoms in reference ligand area>
15

> <score>
-24.9379

$$$$
ZINC17107909
      BALL 1.4.0 (Jan  4 2012, 23:22:29)

 34 36  0999  0  0  0  0  0  0999 V2000
   13.2227   13.5116    2.3299 C   0  0  0  0  0  0  0  0  0  0  0  0
   11.9683   13.0508    3.0264 C   0  0  0  0  0  0  0  0  0  0  0  0
   11.8552   13.1891    4.2214 O   0  0  0  0  0  0  0  0  0  0  0  0
   10.9765   12.4869    2.3192 O   0  0  0  0  0  0  0  0  0  0  0  0
    9.6580   12.4742    2.9273 C   0  0  0  0  0  0  0  0  0  0  0  0
    8.8405   13.7407    2.5184 C   0  0  0  0  0  0  0  0  0  0  0  0
    7.6193   13.2518    1.8855 O   0  0  0  0  0  0  0  0  0  0  0  0
    7.3693   12.0078    2.5567 C   0  0  0  0  0  0  0  0  0  0  0  0
    8.8182   11.3816    2.3596 C   0  0  0  0  0  0  0  0  0  0  0  0
    8.5779   10.0500    2.7406 O   0  0  0  0  0  0  0  0  0  0  0  0
    7.3407    9.7717    2.2466 C   0  0  0  0  0  0  0  0  0  0  0  0
    6.7555    8.6009    2.1007 N   0  0  0  0  0  0  0  0  0  0  0  0
    5.5039    8.5650    1.5964 C   0  0  0  0  0  0  0  0  0  0  0  0
    4.8849    9.5961    1.1000 N   0  3  0  0  0  0  0  0  0  0  0  0
    5.5312   10.9106    0.9665 C   0  0  0  0  0  0  0  0  0  0  0  0
    6.6721   10.9350    1.8711 N   0  0  0  0  0  0  0  0  0  0  0  0
    4.8380    7.3563    1.6076 N   0  0  0  0  0  0  0  0  0  0  0  0
    9.6430   14.5880    1.5289 C   0  0  0  0  0  0  0  0  0  0  0  0
    8.9833   14.5923    0.2612 O   0  0  0  0  0  0  0  0  0  0  0  0
   13.7532   14.1365    3.0634 H   0  0  0  0  0  0  0  0  0  0  0  0
   12.8822   14.1685    1.5160 H   0  0  0  0  0  0  0  0  0  0  0  0
   13.8443   12.6816    1.9629 H   0  0  0  0  0  0  0  0  0  0  0  0
    9.8402   12.3860    4.0085 H   0  0  0  0  0  0  0  0  0  0  0  0
    8.6152   14.3717    3.3907 H   0  0  0  0  0  0  0  0  0  0  0  0
    6.8381   12.2417    3.4911 H   0  0  0  0  0  0  0  0  0  0  0  0
    9.4182   11.1737    1.4614 H   0  0  0  0  0  0  0  0  0  0  0  0
    3.9087    9.4881    0.7898 H   0  0  0  0  0  0  0  0  0  0  0  0
    5.8756   11.0516   -0.0687 H   0  0  0  0  0  0  0  0  0  0  0  0
    4.8215   11.7041    1.2434 H   0  0  0  0  0  0  0  0  0  0  0  0
    4.3788    7.0021    2.4588 H   0  0  0  0  0  0  0  0  0  0  0  0
    4.8019    6.7987    0.7423 H   0  0  0  0  0  0  0  0  0  0  0  0
   10.6515   14.1640    1.4151 H   0  0  0  0  0  0  0  0  0  0  0  0
    9.7188   15.6186    1.9058 H   0  0  0  0  0  0  0  0  0  0  0  0
    8.0757   14.9747    0.3618 H   0  0  0  0  0  0  0  0  0  0  0  0
  1  2  1  0  0  0  0
  1 20  1  0  0  0  0
  1 21  1  0  0  0  0
  1 22  1  0  0  0  0
  2  3  2  0  0  0  0
  2  4  1  0  0  0  0
  4  5  1  0  0  0  0
  5  9  1  0  0  0  0
  5  6  1  0  0  0  0
  5 23  1  0  0  0  0
  6  7  1  0  0  0  0
  6 18  1  0  0  0  0
  6 24  1  0  0  0  0
  7  8  1  0  0  0  0
  8 16  1  0  0  0  0
  8  9  1  0  0  0  0
  8 25  1  0  0  0  0
  9 10  1  0  0  0  0
  9 26  1  0  0  0  0
 10 11  1  0  0  0  0
 11 16  1  0  0  0  0
 11 12  2  0  0  0  0
 12 13  1  0  0  0  0
 13 14  2  0  0  0  0
 13 17  1  0  0  0  0
 14 15  1  0  0  0  0
 14 27  1  0  0  0  0
 15 16  1  0  0  0  0
 15 28  1  0  0  0  0
 15 29  1  0  0  0  0
 17 30  1  0  0  0  0
 17 31  1  0  0  0  0
 18 19  1  0  0  0  0
 18 32  1  0  0  0  0
 18 33  1  0  0  0  0
 19 34  1  0  0  0  0
M  END
> <Name>
ZINC17107909

> <reference>
BDB5008

> <quality>
0.762

> <status>
decoy

> <atoms in reference ligand area>
19

> <score>
-24.7779

$$$$
ZINC05679876
      BALL 1.4.0 (Jan  4 2012, 23:22:29)

 48 50  0999  0  0  0  0  0  0999 V2000
   11.8080   13.0461   -3.0284 C   0  0  0  0  0  0  0  0  0  0  0  0
   12.9181   14.3823   -1.3418 C   0  0  0  0  0  0  0  0  0  0  0  0
   10.5481   13.9229   -1.1558 C   0  0  0  0  0  0  0  0  0  0  0  0
   10.3113   13.5239    0.3022 C   0  0  0  0  0  0  0  0  0  0  0  0
    9.0270   12.6985    0.4028 C   0  0  0  0  0  0  0  0  0  0  0  0
    7.8421   11.1279    1.8161 C   0  0  0  0  0  0  0  0  0  0  0  0
    7.9226   10.3830    3.1231 C   0  0  0  0  0  0  0  0  0  0  0  0
    6.8165    9.6238    3.5442 C   0  0  0  0  0  0  0  0  0  0  0  0
    5.8099    9.5761    2.8580 O   0  0  0  0  0  0  0  0  0  0  0  0
    6.8736    8.9494    4.7084 N   0  0  0  0  0  0  0  0  0  0  0  0
    7.9839    8.9950    5.4671 C   0  0  0  0  0  0  0  0  0  0  0  0
    8.0200    8.3769    6.5135 O   0  0  0  0  0  0  0  0  0  0  0  0
    9.0533    9.7140    5.0857 N   0  0  0  0  0  0  0  0  0  0  0  0
    9.0368   10.4256    3.9046 C   0  0  0  0  0  0  0  0  0  0  0  0
   10.1431   11.1574    3.5692 N   0  0  0  0  0  0  0  0  0  0  0  0
   10.1977   11.4796    2.1409 C   0  0  0  0  0  0  0  0  0  0  0  0
   10.2484    9.7416    5.9326 C   0  0  0  0  0  0  0  0  0  0  0  0
   10.3605    8.4411    6.6857 C   0  0  0  0  0  0  0  0  0  0  0  0
   10.6534    7.2435    6.1481 C   0  0  0  0  0  0  0  0  0  0  0  0
   10.6568    6.3082    7.2084 C   0  0  0  0  0  0  0  0  0  0  0  0
   10.3576    6.9890    8.3293 C   0  0  0  0  0  0  0  0  0  0  0  0
   10.1791    8.2804    8.0067 O   0  0  0  0  0  0  0  0  0  0  0  0
   11.8549   13.3863   -1.5908 N   0  3  0  0  0  0  0  0  0  0  0  0
    8.9254   12.1251    1.7658 N   0  0  0  0  0  0  0  0  0  0  0  0
   10.7591   12.9483   -3.3448 H   0  0  0  0  0  0  0  0  0  0  0  0
   12.3285   12.0911   -3.1931 H   0  0  0  0  0  0  0  0  0  0  0  0
   12.2974   13.8384   -3.6138 H   0  0  0  0  0  0  0  0  0  0  0  0
   12.9252   15.1186   -2.1592 H   0  0  0  0  0  0  0  0  0  0  0  0
   13.8920   13.8725   -1.3026 H   0  0  0  0  0  0  0  0  0  0  0  0
   12.7313   14.8942   -0.3863 H   0  0  0  0  0  0  0  0  0  0  0  0
   10.5537   15.0195   -1.2424 H   0  0  0  0  0  0  0  0  0  0  0  0
    9.7502   13.5041   -1.7866 H   0  0  0  0  0  0  0  0  0  0  0  0
   11.1609   12.9245    0.6611 H   0  0  0  0  0  0  0  0  0  0  0  0
   10.2139   14.4289    0.9200 H   0  0  0  0  0  0  0  0  0  0  0  0
    9.0529   11.8846   -0.3367 H   0  0  0  0  0  0  0  0  0  0  0  0
    8.1582   13.3452    0.2109 H   0  0  0  0  0  0  0  0  0  0  0  0
    6.8701   11.6375    1.7411 H   0  0  0  0  0  0  0  0  0  0  0  0
    7.9550   10.4203    0.9816 H   0  0  0  0  0  0  0  0  0  0  0  0
    6.0630    8.3956    5.0198 H   0  0  0  0  0  0  0  0  0  0  0  0
   10.8605   11.4504    4.2479 H   0  0  0  0  0  0  0  0  0  0  0  0
   10.3296   10.5567    1.5571 H   0  0  0  0  0  0  0  0  0  0  0  0
   11.0326   12.1696    1.9488 H   0  0  0  0  0  0  0  0  0  0  0  0
   11.1405    9.8787    5.3038 H   0  0  0  0  0  0  0  0  0  0  0  0
   10.1729   10.5736    6.6483 H   0  0  0  0  0  0  0  0  0  0  0  0
   10.8522    7.0322    5.0870 H   0  0  0  0  0  0  0  0  0  0  0  0
   10.8641    5.2307    7.1314 H   0  0  0  0  0  0  0  0  0  0  0  0
   10.2734    6.5606    9.3389 H   0  0  0  0  0  0  0  0  0  0  0  0
   12.0625   12.5335   -1.0517 H   0  0  0  0  0  0  0  0  0  0  0  0
  1 23  1  0  0  0  0
  1 25  1  0  0  0  0
  1 26  1  0  0  0  0
  1 27  1  0  0  0  0
  2 23  1  0  0  0  0
  2 28  1  0  0  0  0
  2 29  1  0  0  0  0
  2 30  1  0  0  0  0
  3  4  1  0  0  0  0
  3 23  1  0  0  0  0
  3 31  1  0  0  0  0
  3 32  1  0  0  0  0
  4  5  1  0  0  0  0
  4 33  1  0  0  0  0
  4 34  1  0  0  0  0
  5 24  1  0  0  0  0
  5 35  1  0  0  0  0
  5 36  1  0  0  0  0
  6  7  1  0  0  0  0
  6 24  1  0  0  0  0
  6 37  1  0  0  0  0
  6 38  1  0  0  0  0
  7 14  2  0  0  0  0
  7  8  1  0  0  0  0
  8  9  2  0  0  0  0
  8 10  1  0  0  0  0
 10 11  1  0  0  0  0
 10 39  1  0  0  0  0
 11 12  2  0  0  0  0
 11 13  1  0  0  0  0
 13 14  1  0  0  0  0
 13 17  1  0  0  0  0
 14 15  1  0  0  0  0
 15 16  1  0  0  0  0
 15 40  1  0  0  0  0
 16 24  1  0  0  0  0
 16 41  1  0  0  0  0
 16 42  1  0  0  0  0
 17 18  1  0  0  0  0
 17 43  1  0  0  0  0
 17 44  1  0  0  0  0
 18 22  1  0  0  0  0
 18 19  2  0  0  0  0
 19 20  1  0  0  0  0
 19 45  1  0  0  0  0
 20 21  2  0  0  0  0
 20 46  1  0  0  0  0
 21 22  1  0  0  0  0
 21 47  1  0  0  0  0
 23 48  1  0  0  0  0
M  END
> <Name>
ZINC05679876

> <reference>
BDB5198

> <quality>
0.739

> <status>
decoy

> <atoms in reference ligand area>
23

> <score>
-24.6383

$$$$
ZINC17430523
      BALL 1.4.0 (Jan  4 2012, 23:22:29)

 49 51  0999  0  0  0  0  0  0999 V2000
    6.9322    3.1475   -0.7462 C   0  0  0  0  0  0  0  0  0  0  0  0
    7.3466    4.3604   -1.2638 C   0  0  0  0  0  0  0  0  0  0  0  0
    8.4618    4.4195   -2.0785 C   0  0  0  0  0  0  0  0  0  0  0  0
    9.1629    3.2657   -2.3753 C   0  0  0  0  0  0  0  0  0  0  0  0
    8.7454    2.0518   -1.8620 C   0  0  0  0  0  0  0  0  0  0  0  0
    7.6328    1.9935   -1.0438 C   0  0  0  0  0  0  0  0  0  0  0  0
   10.3787    3.3300   -3.2634 C   0  0  0  0  0  0  0  0  0  0  0  0
   11.2564    4.3561   -2.7958 O   0  0  0  0  0  0  0  0  0  0  0  0
   10.7842    5.0395   -1.6490 N   0  0  0  0  0  0  0  0  0  0  0  0
   11.6162    5.9068   -0.9714 C   0  0  0  0  0  0  0  0  0  0  0  0
   11.0696    6.7804    0.0806 C   0  0  0  0  0  0  0  0  0  0  0  0
   11.7272    7.8267    0.6991 C   0  0  0  0  0  0  0  0  0  0  0  0
   10.8507    8.3523    1.6046 N   0  0  0  0  0  0  0  0  0  0  0  0
    9.6937    7.6392    1.5191 C   0  0  0  0  0  0  0  0  0  0  0  0
    9.8244    6.7105    0.6179 N   0  0  0  0  0  0  0  0  0  0  0  0
   11.1063    9.4823    2.5012 C   0  0  0  0  0  0  0  0  0  0  0  0
   11.1626   10.8119    1.7067 C   0  0  0  0  0  0  0  0  0  0  0  0
   10.7970   11.8539    2.7918 C   0  0  0  0  0  0  0  0  0  0  0  0
   10.0701   11.0326    3.8744 C   0  0  0  0  0  0  0  0  0  0  0  0
    9.9966    9.6762    3.4043 O   0  0  0  0  0  0  0  0  0  0  0  0
    8.6599   11.5862    4.0881 C   0  0  0  0  0  0  0  0  0  0  0  0
    7.9483   10.7405    4.9938 O   0  0  0  0  0  0  0  0  0  0  0  0
   11.9783   12.4533    3.3277 O   0  0  0  0  0  0  0  0  0  0  0  0
   10.1997   10.8161    0.6507 O   0  0  0  0  0  0  0  0  0  0  0  0
   13.0236    8.2565    0.4510 N   0  0  0  0  0  0  0  0  0  0  0  0
   14.0686    7.5752    0.9610 C   0  0  0  0  0  0  0  0  0  0  0  0
   14.8914    8.1483    1.6433 O   0  0  0  0  0  0  0  0  0  0  0  0
   12.9177    6.0016   -1.2204 N   0  0  0  0  0  0  0  0  0  0  0  0
    6.0451    3.1006   -0.0976 H   0  0  0  0  0  0  0  0  0  0  0  0
    6.7889    5.2786   -1.0275 H   0  0  0  0  0  0  0  0  0  0  0  0
    8.7915    5.3847   -2.4905 H   0  0  0  0  0  0  0  0  0  0  0  0
    9.2986    1.1325   -2.1047 H   0  0  0  0  0  0  0  0  0  0  0  0
    7.3047    1.0286   -0.6295 H   0  0  0  0  0  0  0  0  0  0  0  0
   10.9015    2.3624   -3.2402 H   0  0  0  0  0  0  0  0  0  0  0  0
   10.0693    3.5549   -4.2947 H   0  0  0  0  0  0  0  0  0  0  0  0
    9.8196    4.8892   -1.3208 H   0  0  0  0  0  0  0  0  0  0  0  0
    8.7895    7.8203    2.1187 H   0  0  0  0  0  0  0  0  0  0  0  0
   12.0487    9.2529    3.0199 H   0  0  0  0  0  0  0  0  0  0  0  0
   12.1317   10.9982    1.2207 H   0  0  0  0  0  0  0  0  0  0  0  0
   10.1799   12.6752    2.3984 H   0  0  0  0  0  0  0  0  0  0  0  0
   10.6093   11.0852    4.8317 H   0  0  0  0  0  0  0  0  0  0  0  0
    8.7239   12.6008    4.5080 H   0  0  0  0  0  0  0  0  0  0  0  0
    8.1286   11.6207    3.1255 H   0  0  0  0  0  0  0  0  0  0  0  0
    7.8176   11.2127    5.8541 H   0  0  0  0  0  0  0  0  0  0  0  0
   11.7218   13.2265    3.8903 H   0  0  0  0  0  0  0  0  0  0  0  0
   10.2977    9.9832    0.1247 H   0  0  0  0  0  0  0  0  0  0  0  0
   13.1870    9.0961   -0.1228 H   0  0  0  0  0  0  0  0  0  0  0  0
   14.1754    6.4992    0.7585 H   0  0  0  0  0  0  0  0  0  0  0  0
   13.3126    5.3959   -1.9539 H   0  0  0  0  0  0  0  0  0  0  0  0
  1  6  2  0  0  0  0
  1  2  1  0  0  0  0
  1 29  1  0  0  0  0
  2  3  2  0  0  0  0
  2 30  1  0  0  0  0
  3  4  1  0  0  0  0
  3 31  1  0  0  0  0
  4  5  2  0  0  0  0
  4  7  1  0  0  0  0
  5  6  1  0  0  0  0
  5 32  1  0  0  0  0
  6 33  1  0  0  0  0
  7  8  1  0  0  0  0
  7 34  1  0  0  0  0
  7 35  1  0  0  0  0
  8  9  1  0  0  0  0
  9 10  1  0  0  0  0
  9 36  1  0  0  0  0
 10 11  1  0  0  0  0
 10 28  2  0  0  0  0
 11 15  1  0  0  0  0
 11 12  2  0  0  0  0
 12 13  1  0  0  0  0
 12 25  1  0  0  0  0
 13 14  1  0  0  0  0
 13 16  1  0  0  0  0
 14 15  2  0  0  0  0
 14 37  1  0  0  0  0
 16 20  1  0  0  0  0
 16 17  1  0  0  0  0
 16 38  1  0  0  0  0
 17 18  1  0  0  0  0
 17 24  1  0  0  0  0
 17 39  1  0  0  0  0
 18 19  1  0  0  0  0
 18 23  1  0  0  0  0
 18 40  1  0  0  0  0
 19 20  1  0  0  0  0
 19 21  1  0  0  0  0
 19 41  1  0  0  0  0
 21 22  1  0  0  0  0
 21 42  1  0  0  0  0
 21 43  1  0  0  0  0
 22 44  1  0  0  0  0
 23 45  1  0  0  0  0
 24 46  1  0  0  0  0
 25 26  1  0  0  0  0
 25 47  1  0  0  0  0
 26 27  2  0  0  0  0
 26 48  1  0  0  0  0
 28 49  1  0  0  0  0
M  END
> <Name>
ZINC17430523

> <reference>
BDB4945

> <quality>
0.724

> <status>
decoy

> <atoms in reference ligand area>
11

> <score>
-24.6126

$$$$
ZINC03888603
      BALL 1.4.0 (Jan  4 2012, 23:22:29)

 43 44  0999  0  0  0  0  0  0999 V2000
    4.7326    6.3060   -2.4995 C   0  0  0  0  0  0  0  0  0  0  0  0
    3.8447    6.6061   -1.2902 C   0  0  0  0  0  0  0  0  0  0  0  0
    4.2470    5.7003   -0.1247 C   0  0  0  0  0  0  0  0  0  0  0  0
    4.9193    6.5386    0.9644 C   0  0  0  0  0  0  0  0  0  0  0  0
    4.5533    7.9467    0.7925 N   0  0  0  0  0  0  0  0  0  0  0  0
    5.5480    8.9322    0.7803 C   0  0  0  0  0  0  0  0  0  0  0  0
    5.7950    9.6848    1.9184 C   0  0  0  0  0  0  0  0  0  0  0  0
    6.7810   10.6541    1.9056 C   0  0  0  0  0  0  0  0  0  0  0  0
    7.5159   10.8832    0.7571 C   0  0  0  0  0  0  0  0  0  0  0  0
    7.2762   10.1373   -0.3821 C   0  0  0  0  0  0  0  0  0  0  0  0
    6.2930    9.1597   -0.3766 C   0  0  0  0  0  0  0  0  0  0  0  0
    6.0483    8.4033   -1.5293 N   0  0  0  0  0  0  0  0  0  0  0  0
    8.7664   12.1245    0.7475 S   0  0  0  0  0  0  0  0  0  0  0  0
    9.9962   11.4642    1.0137 O   0  0  0  0  0  0  0  0  0  0  0  0
    8.2851   13.1920    1.5524 O   0  0  0  0  0  0  0  0  0  0  0  0
    8.8668   12.7063   -0.7997 N   0  0  0  0  0  0  0  0  0  0  0  0
   10.0640   12.6709   -1.6523 C   0  0  0  0  0  0  0  0  0  0  0  0
    9.6937   13.3446   -2.9905 C   0  0  0  0  0  0  0  0  0  0  0  0
    8.4814   14.2333   -2.6058 C   0  0  0  0  0  0  0  0  0  0  0  0
    7.7725   13.3513   -1.5478 C   0  0  0  0  0  0  0  0  0  0  0  0
    4.3643    5.4047   -3.0113 H   0  0  0  0  0  0  0  0  0  0  0  0
    5.7668    6.1397   -2.1640 H   0  0  0  0  0  0  0  0  0  0  0  0
    4.7063    7.1578   -3.1950 H   0  0  0  0  0  0  0  0  0  0  0  0
    3.9694    7.6587   -0.9959 H   0  0  0  0  0  0  0  0  0  0  0  0
    2.7924    6.4206   -1.5515 H   0  0  0  0  0  0  0  0  0  0  0  0
    3.3508    5.2142    0.2883 H   0  0  0  0  0  0  0  0  0  0  0  0
    4.9494    4.9324   -0.4812 H   0  0  0  0  0  0  0  0  0  0  0  0
    4.5851    6.1916    1.9532 H   0  0  0  0  0  0  0  0  0  0  0  0
    6.0116    6.4326    0.8885 H   0  0  0  0  0  0  0  0  0  0  0  0
    3.5643    8.2119    0.6807 H   0  0  0  0  0  0  0  0  0  0  0  0
    5.2066    9.5108    2.8314 H   0  0  0  0  0  0  0  0  0  0  0  0
    6.9813   11.2446    2.8118 H   0  0  0  0  0  0  0  0  0  0  0  0
    7.8656   10.3194   -1.2928 H   0  0  0  0  0  0  0  0  0  0  0  0
    5.3577    8.7289   -2.2206 H   0  0  0  0  0  0  0  0  0  0  0  0
    6.5583    7.5222   -1.6859 H   0  0  0  0  0  0  0  0  0  0  0  0
   10.3634   11.6279   -1.8329 H   0  0  0  0  0  0  0  0  0  0  0  0
   10.8813   13.2276   -1.1705 H   0  0  0  0  0  0  0  0  0  0  0  0
   10.5261   13.9698   -3.3459 H   0  0  0  0  0  0  0  0  0  0  0  0
    9.3910   12.5875   -3.7287 H   0  0  0  0  0  0  0  0  0  0  0  0
    7.8267   14.3879   -3.4761 H   0  0  0  0  0  0  0  0  0  0  0  0
    8.8248   15.1746   -2.1517 H   0  0  0  0  0  0  0  0  0  0  0  0
    7.1723   13.9814   -0.8749 H   0  0  0  0  0  0  0  0  0  0  0  0
    7.1545   12.5901   -2.0465 H   0  0  0  0  0  0  0  0  0  0  0  0
  1  2  1  0  0  0  0
  1 21  1  0  0  0  0
  1 22  1  0  0  0  0
  1 23  1  0  0  0  0
  2  3  1  0  0  0  0
  2 24  1  0  0  0  0
  2 25  1  0  0  0  0
  3  4  1  0  0  0  0
  3 26  1  0  0  0  0
  3 27  1  0  0  0  0
  4  5  1  0  0  0  0
  4 28  1  0  0  0  0
  4 29  1  0  0  0  0
  5  6  1  0  0  0  0
  5 30  1  0  0  0  0
  6 11  2  0  0  0  0
  6  7  1  0  0  0  0
  7  8  2  0  0  0  0
  7 31  1  0  0  0  0
  8  9  1  0  0  0  0
  8 32  1  0  0  0  0
  9 10  2  0  0  0  0
  9 13  1  0  0  0  0
 10 11  1  0  0  0  0
 10 33  1  0  0  0  0
 11 12  1  0  0  0  0
 12 34  1  0  0  0  0
 12 35  1  0  0  0  0
 13 14  2  0  0  0  0
 13 15  2  0  0  0  0
 13 16  1  0  0  0  0
 16 20  1  0  0  0  0
 16 17  1  0  0  0  0
 17 18  1  0  0  0  0
 17 36  1  0  0  0  0
 17 37  1  0  0  0  0
 18 19  1  0  0  0  0
 18 38  1  0  0  0  0
 18 39  1  0  0  0  0
 19 20  1  0  0  0  0
 19 40  1  0  0  0  0
 19 41  1  0  0  0  0
 20 42  1  0  0  0  0
 20 43  1  0  0  0  0
M  END
> <Name>
ZINC03888603

> <reference>
BDB5204

> <quality>
0.748

> <status>
decoy

> <atoms in reference ligand area>
19

> <score>
-24.5676

$$$$
ZINC31259784
      BALL 1.4.0 (Jan  4 2012, 23:22:29)

 34 36  0999  0  0  0  0  0  0999 V2000
   14.9830   11.6997    5.2853 C   0  0  0  0  0  0  0  0  0  0  0  0
   15.9557   10.9922    5.7922 C   0  0  0  0  0  0  0  0  0  0  0  0
   15.6244    9.5181    5.7715 C   0  0  0  0  0  0  0  0  0  0  0  0
   14.4463    9.3940    4.7777 C   0  0  0  0  0  0  0  0  0  0  0  0
   13.8408   10.8155    4.8420 C   0  0  0  0  0  0  0  0  0  0  0  0
   13.3595   11.2271    3.5165 N   0  3  0  0  0  0  0  0  0  0  0  0
   12.4765   12.3967    3.6170 C   0  0  0  0  0  0  0  0  0  0  0  0
   11.4654   12.3602    2.5001 C   0  0  0  0  0  0  0  0  0  0  0  0
   10.1541   12.0281    2.6030 C   0  0  0  0  0  0  0  0  0  0  0  0
    9.5867   12.1451    1.2371 C   0  0  0  0  0  0  0  0  0  0  0  0
    8.3171   11.8746    1.0772 N   0  0  0  0  0  0  0  0  0  0  0  0
    7.5345   11.5031    2.1177 C   0  0  0  0  0  0  0  0  0  0  0  0
    7.9538   11.3797    3.3542 N   0  0  0  0  0  0  0  0  0  0  0  0
    9.2424   11.6234    3.6883 C   0  0  0  0  0  0  0  0  0  0  0  0
    9.6330   11.5089    4.8356 O   0  0  0  0  0  0  0  0  0  0  0  0
    6.2154   11.2376    1.8616 N   0  0  0  0  0  0  0  0  0  0  0  0
   10.6047   12.5339    0.4043 N   0  0  0  0  0  0  0  0  0  0  0  0
   11.7094   12.6734    1.0749 C   0  0  0  0  0  0  0  0  0  0  0  0
   14.9150    9.0952    3.4612 O   0  0  0  0  0  0  0  0  0  0  0  0
   15.2271    9.0788    7.0720 O   0  0  0  0  0  0  0  0  0  0  0  0
   14.9933   12.7958    5.1931 H   0  0  0  0  0  0  0  0  0  0  0  0
   16.8935   11.4138    6.1831 H   0  0  0  0  0  0  0  0  0  0  0  0
   16.4859    8.9010    5.4765 H   0  0  0  0  0  0  0  0  0  0  0  0
   13.7357    8.5897    5.0188 H   0  0  0  0  0  0  0  0  0  0  0  0
   12.9802   10.8719    5.5248 H   0  0  0  0  0  0  0  0  0  0  0  0
   14.1659   11.4612    2.9199 H   0  0  0  0  0  0  0  0  0  0  0  0
   12.8421   10.4480    3.0850 H   0  0  0  0  0  0  0  0  0  0  0  0
   11.9538   12.3798    4.5847 H   0  0  0  0  0  0  0  0  0  0  0  0
   13.0744   13.3167    3.5393 H   0  0  0  0  0  0  0  0  0  0  0  0
    5.9212   10.7322    1.0138 H   0  0  0  0  0  0  0  0  0  0  0  0
    5.5039   11.5530    2.5363 H   0  0  0  0  0  0  0  0  0  0  0  0
   12.6768   12.9774    0.6485 H   0  0  0  0  0  0  0  0  0  0  0  0
   15.2232    9.9334    3.0341 H   0  0  0  0  0  0  0  0  0  0  0  0
   14.3449    9.4710    7.2912 H   0  0  0  0  0  0  0  0  0  0  0  0
  1  5  1  0  0  0  0
  1  2  2  0  0  0  0
  1 21  1  0  0  0  0
  2  3  1  0  0  0  0
  2 22  1  0  0  0  0
  3  4  1  0  0  0  0
  3 20  1  0  0  0  0
  3 23  1  0  0  0  0
  4  5  1  0  0  0  0
  4 19  1  0  0  0  0
  4 24  1  0  0  0  0
  5  6  1  0  0  0  0
  5 25  1  0  0  0  0
  6  7  1  0  0  0  0
  6 26  1  0  0  0  0
  6 27  1  0  0  0  0
  7  8  1  0  0  0  0
  7 28  1  0  0  0  0
  7 29  1  0  0  0  0
  8 18  1  0  0  0  0
  8  9  2  0  0  0  0
  9 14  1  0  0  0  0
  9 10  1  0  0  0  0
 10 11  2  0  0  0  0
 10 17  1  0  0  0  0
 11 12  1  0  0  0  0
 12 13  2  0  0  0  0
 12 16  1  0  0  0  0
 13 14  1  0  0  0  0
 14 15  2  0  0  0  0
 16 30  1  0  0  0  0
 16 31  1  0  0  0  0
 17 18  2  0  0  0  0
 18 32  1  0  0  0  0
 19 33  1  0  0  0  0
 20 34  1  0  0  0  0
M  END
> <Name>
ZINC31259784

> <reference>
BDB5008

> <quality>
0.737

> <status>
decoy

> <atoms in reference ligand area>
13

> <score>
-24.3835

$$$$
ZINC06382444
      BALL 1.4.0 (Jan  4 2012, 23:22:29)

 40 41  0999  0  0  0  0  0  0999 V2000
    8.8685   13.5251   -4.0139 C   0  0  0  0  0  0  0  0  0  0  0  0
    9.7622   12.7878   -3.0145 C   0  0  0  0  0  0  0  0  0  0  0  0
   10.4580   14.9071   -2.0728 C   0  0  0  0  0  0  0  0  0  0  0  0
   11.9644   14.7749   -2.3050 C   0  0  0  0  0  0  0  0  0  0  0  0
    8.5889   13.7085   -1.1071 C   0  0  0  0  0  0  0  0  0  0  0  0
    8.5670   12.8093    0.1306 C   0  0  0  0  0  0  0  0  0  0  0  0
    8.0602   11.4190   -0.2580 C   0  0  0  0  0  0  0  0  0  0  0  0
    7.3724   10.8130    0.8849 N   0  0  0  0  0  0  0  0  0  0  0  0
    6.5076    9.7969    0.6898 C   0  0  0  0  0  0  0  0  0  0  0  0
    6.5348    9.0752   -0.4162 N   0  0  0  0  0  0  0  0  0  0  0  0
    5.7556    8.0212   -0.6341 C   0  0  0  0  0  0  0  0  0  0  0  0
    5.0938    7.4074    0.3401 N   0  0  0  0  0  0  0  0  0  0  0  0
    5.2072    7.9537    1.5501 C   0  0  0  0  0  0  0  0  0  0  0  0
    5.3125    7.4463    2.7428 N   0  0  0  0  0  0  0  0  0  0  0  0
    5.7779    8.3469    3.6180 C   0  0  0  0  0  0  0  0  0  0  0  0
    5.9384    9.5327    3.1015 N   0  0  0  0  0  0  0  0  0  0  0  0
    5.4694    9.4446    1.7215 C   0  0  0  0  0  0  0  0  0  0  0  0
    7.6989   13.3750    1.1148 O   0  0  0  0  0  0  0  0  0  0  0  0
    9.9033   13.5712   -1.7691 N   0  3  0  0  0  0  0  0  0  0  0  0
    8.4930   12.8071   -4.7579 H   0  0  0  0  0  0  0  0  0  0  0  0
    9.4619   14.2980   -4.5243 H   0  0  0  0  0  0  0  0  0  0  0  0
    8.0229   13.9922   -3.4880 H   0  0  0  0  0  0  0  0  0  0  0  0
    9.3166   11.8098   -2.7800 H   0  0  0  0  0  0  0  0  0  0  0  0
   10.7560   12.6312   -3.4595 H   0  0  0  0  0  0  0  0  0  0  0  0
   10.2740   15.5833   -1.2250 H   0  0  0  0  0  0  0  0  0  0  0  0
    9.9785   15.3071   -2.9784 H   0  0  0  0  0  0  0  0  0  0  0  0
   12.4200   14.2054   -1.4815 H   0  0  0  0  0  0  0  0  0  0  0  0
   12.4223   15.7735   -2.3599 H   0  0  0  0  0  0  0  0  0  0  0  0
   12.1398   14.2440   -3.2522 H   0  0  0  0  0  0  0  0  0  0  0  0
    8.4361   14.7555   -0.8061 H   0  0  0  0  0  0  0  0  0  0  0  0
    7.7931   13.3999   -1.8010 H   0  0  0  0  0  0  0  0  0  0  0  0
    9.5837   12.7271    0.5423 H   0  0  0  0  0  0  0  0  0  0  0  0
    7.3604   11.5064   -1.1021 H   0  0  0  0  0  0  0  0  0  0  0  0
    8.9109   10.7861   -0.5508 H   0  0  0  0  0  0  0  0  0  0  0  0
    7.5495   11.1630    1.8372 H   0  0  0  0  0  0  0  0  0  0  0  0
    5.6547    7.6422   -1.6618 H   0  0  0  0  0  0  0  0  0  0  0  0
    6.0022    8.1095    4.6684 H   0  0  0  0  0  0  0  0  0  0  0  0
    4.6249   10.1337    1.5733 H   0  0  0  0  0  0  0  0  0  0  0  0
    6.9778   13.8842    0.6667 H   0  0  0  0  0  0  0  0  0  0  0  0
   10.5475   13.0778   -1.1346 H   0  0  0  0  0  0  0  0  0  0  0  0
  1  2  1  0  0  0  0
  1 20  1  0  0  0  0
  1 21  1  0  0  0  0
  1 22  1  0  0  0  0
  2 19  1  0  0  0  0
  2 23  1  0  0  0  0
  2 24  1  0  0  0  0
  3  4  1  0  0  0  0
  3 19  1  0  0  0  0
  3 25  1  0  0  0  0
  3 26  1  0  0  0  0
  4 27  1  0  0  0  0
  4 28  1  0  0  0  0
  4 29  1  0  0  0  0
  5  6  1  0  0  0  0
  5 19  1  0  0  0  0
  5 30  1  0  0  0  0
  5 31  1  0  0  0  0
  6  7  1  0  0  0  0
  6 18  1  0  0  0  0
  6 32  1  0  0  0  0
  7  8  1  0  0  0  0
  7 33  1  0  0  0  0
  7 34  1  0  0  0  0
  8  9  1  0  0  0  0
  8 35  1  0  0  0  0
  9 17  1  0  0  0  0
  9 10  2  0  0  0  0
 10 11  1  0  0  0  0
 11 12  2  0  0  0  0
 11 36  1  0  0  0  0
 12 13  1  0  0  0  0
 13 17  1  0  0  0  0
 13 14  2  0  0  0  0
 14 15  1  0  0  0  0
 15 16  2  0  0  0  0
 15 37  1  0  0  0  0
 16 17  1  0  0  0  0
 17 38  1  0  0  0  0
 18 39  1  0  0  0  0
 19 40  1  0  0  0  0
M  END
> <Name>
ZINC06382444

> <reference>
BDB5009

> <quality>
0.769

> <status>
decoy

> <atoms in reference ligand area>
22

> <score>
-24.3231

$$$$
ZINC12483756
      BALL 1.4.0 (Jan  4 2012, 23:22:29)

 48 50  0999  0  0  0  0  0  0999 V2000
    5.5637    9.5894    2.5257 C   0  0  0  0  0  0  0  0  0  0  0  0
    6.7066    9.5681    3.3832 O   0  0  0  0  0  0  0  0  0  0  0  0
    7.7200   10.5096    3.0245 C   0  0  0  0  0  0  0  0  0  0  0  0
    8.9843   10.2340    3.8411 C   0  0  0  0  0  0  0  0  0  0  0  0
   11.3504   10.7297    3.9769 C   0  0  0  0  0  0  0  0  0  0  0  0
   12.3696   11.8576    3.7826 C   0  0  0  0  0  0  0  0  0  0  0  0
   12.7064   11.9844    2.2925 C   0  0  0  0  0  0  0  0  0  0  0  0
   13.1086   10.5982    1.7626 C   0  0  0  0  0  0  0  0  0  0  0  0
   14.0763    9.9645    2.7890 C   0  0  0  0  0  0  0  0  0  0  0  0
   13.2290    9.2428    3.7011 O   0  0  0  0  0  0  0  0  0  0  0  0
   11.8713    9.4648    3.2772 C   0  0  0  0  0  0  0  0  0  0  0  0
   11.9399    9.7469    1.8620 O   0  0  0  0  0  0  0  0  0  0  0  0
   11.9239   13.1338    0.3103 C   0  0  0  0  0  0  0  0  0  0  0  0
   10.6929   13.6177   -0.4118 C   0  0  0  0  0  0  0  0  0  0  0  0
   10.1129   14.8216   -0.2579 C   0  0  0  0  0  0  0  0  0  0  0  0
    8.9957   14.8517   -1.1239 C   0  0  0  0  0  0  0  0  0  0  0  0
    8.9551   13.6614   -1.7491 C   0  0  0  0  0  0  0  0  0  0  0  0
    9.9855   12.9180   -1.3138 O   0  0  0  0  0  0  0  0  0  0  0  0
    7.9274   13.2342   -2.7651 C   0  0  0  0  0  0  0  0  0  0  0  0
    8.5678   12.5007   -3.8111 O   0  0  0  0  0  0  0  0  0  0  0  0
   13.5584   11.5580    4.5167 O   0  0  0  0  0  0  0  0  0  0  0  0
   10.0618   11.1300    3.3808 N   0  3  0  0  0  0  0  0  0  0  0  0
   11.5193   12.4692    1.5635 N   0  0  0  0  0  0  0  0  0  0  0  0
    5.0553    8.6193    2.6267 H   0  0  0  0  0  0  0  0  0  0  0  0
    5.9267    9.6860    1.4918 H   0  0  0  0  0  0  0  0  0  0  0  0
    4.8832   10.4156    2.7797 H   0  0  0  0  0  0  0  0  0  0  0  0
    7.3650   11.5296    3.2330 H   0  0  0  0  0  0  0  0  0  0  0  0
    7.9480   10.4126    1.9528 H   0  0  0  0  0  0  0  0  0  0  0  0
    8.7819   10.4202    4.9062 H   0  0  0  0  0  0  0  0  0  0  0  0
    9.2926    9.1873    3.7011 H   0  0  0  0  0  0  0  0  0  0  0  0
   11.2085   10.5295    5.0492 H   0  0  0  0  0  0  0  0  0  0  0  0
   11.9451   12.8048    4.1466 H   0  0  0  0  0  0  0  0  0  0  0  0
   13.5335   12.6951    2.1483 H   0  0  0  0  0  0  0  0  0  0  0  0
   13.5250   10.6882    0.7485 H   0  0  0  0  0  0  0  0  0  0  0  0
   14.7622    9.2710    2.2805 H   0  0  0  0  0  0  0  0  0  0  0  0
   14.6252   10.7523    3.3257 H   0  0  0  0  0  0  0  0  0  0  0  0
   11.2236    8.6056    3.5057 H   0  0  0  0  0  0  0  0  0  0  0  0
   12.4661   12.4188   -0.3259 H   0  0  0  0  0  0  0  0  0  0  0  0
   12.5751   13.9894    0.5426 H   0  0  0  0  0  0  0  0  0  0  0  0
   10.4443   15.6280    0.4130 H   0  0  0  0  0  0  0  0  0  0  0  0
    8.2942   15.6880   -1.2602 H   0  0  0  0  0  0  0  0  0  0  0  0
    7.4373   14.1232   -3.1887 H   0  0  0  0  0  0  0  0  0  0  0  0
    7.1741   12.5967   -2.2791 H   0  0  0  0  0  0  0  0  0  0  0  0
    8.5788   11.5378   -3.5813 H   0  0  0  0  0  0  0  0  0  0  0  0
   13.3205   11.3149    5.4464 H   0  0  0  0  0  0  0  0  0  0  0  0
    9.8443   12.0978    3.6583 H   0  0  0  0  0  0  0  0  0  0  0  0
   10.1314   11.0812    2.3543 H   0  0  0  0  0  0  0  0  0  0  0  0
   10.9048   11.6724    1.3436 H   0  0  0  0  0  0  0  0  0  0  0  0
  1  2  1  0  0  0  0
  1 24  1  0  0  0  0
  1 25  1  0  0  0  0
  1 26  1  0  0  0  0
  2  3  1  0  0  0  0
  3  4  1  0  0  0  0
  3 27  1  0  0  0  0
  3 28  1  0  0  0  0
  4 22  1  0  0  0  0
  4 29  1  0  0  0  0
  4 30  1  0  0  0  0
  5 11  1  0  0  0  0
  5  6  1  0  0  0  0
  5 22  1  0  0  0  0
  5 31  1  0  0  0  0
  6  7  1  0  0  0  0
  6 21  1  0  0  0  0
  6 32  1  0  0  0  0
  7  8  1  0  0  0  0
  7 23  1  0  0  0  0
  7 33  1  0  0  0  0
  8 12  1  0  0  0  0
  8  9  1  0  0  0  0
  8 34  1  0  0  0  0
  9 10  1  0  0  0  0
  9 35  1  0  0  0  0
  9 36  1  0  0  0  0
 10 11  1  0  0  0  0
 11 12  1  0  0  0  0
 11 37  1  0  0  0  0
 13 14  1  0  0  0  0
 13 23  1  0  0  0  0
 13 38  1  0  0  0  0
 13 39  1  0  0  0  0
 14 18  1  0  0  0  0
 14 15  2  0  0  0  0
 15 16  1  0  0  0  0
 15 40  1  0  0  0  0
 16 17  2  0  0  0  0
 16 41  1  0  0  0  0
 17 18  1  0  0  0  0
 17 19  1  0  0  0  0
 19 20  1  0  0  0  0
 19 42  1  0  0  0  0
 19 43  1  0  0  0  0
 20 44  1  0  0  0  0
 21 45  1  0  0  0  0
 22 46  1  0  0  0  0
 22 47  1  0  0  0  0
 23 48  1  0  0  0  0
M  END
> <Name>
ZINC12483756

> <reference>
BDB5023

> <quality>
0.670

> <status>
decoy

> <atoms in reference ligand area>
21

> <score>
-24.1441

$$$$
ZINC07149658
      BALL 1.4.0 (Jan  4 2012, 23:22:29)

 32 32  0999  0  0  0  0  0  0999 V2000
    5.4083    8.9132    6.0179 C   0  0  0  0  0  0  0  0  0  0  0  0
    5.2430    8.2839    4.6332 C   0  0  0  0  0  0  0  0  0  0  0  0
    6.0575    9.0067    3.6727 O   0  0  0  0  0  0  0  0  0  0  0  0
    7.2416    8.4573    3.3386 C   0  0  0  0  0  0  0  0  0  0  0  0
    7.5065    7.3245    3.6897 O   0  0  0  0  0  0  0  0  0  0  0  0
    8.2157    9.2303    2.5470 C   0  0  0  0  0  0  0  0  0  0  0  0
    9.5853    8.9539    2.6430 C   0  0  0  0  0  0  0  0  0  0  0  0
   10.4664    9.7086    1.8694 C   0  0  0  0  0  0  0  0  0  0  0  0
    9.9475   10.7204    1.0371 C   0  0  0  0  0  0  0  0  0  0  0  0
    8.6423   10.9492    0.9834 N   0  0  0  0  0  0  0  0  0  0  0  0
    7.7837   10.2520    1.6953 C   0  0  0  0  0  0  0  0  0  0  0  0
    6.3119   10.5585    1.5913 C   0  0  0  0  0  0  0  0  0  0  0  0
   11.0440   11.6910    0.0571 S   0  0  0  0  0  0  0  0  0  0  0  0
    9.8845   12.3206   -1.1819 C   0  0  0  0  0  0  0  0  0  0  0  0
   10.6509   12.9963   -2.2896 C   0  0  0  0  0  0  0  0  0  0  0  0
   11.8580   12.8920   -2.3430 O   0  0  0  0  0  0  0  0  0  0  0  0
    9.9949   13.7163   -3.2211 N   0  0  0  0  0  0  0  0  0  0  0  0
   11.8762    9.4640    1.9252 C   0  0  0  0  0  0  0  0  0  0  0  0
   12.9947    9.2699    1.9694 N   0  0  0  0  0  0  0  0  0  0  0  0
    5.6349    8.1278    6.7540 H   0  0  0  0  0  0  0  0  0  0  0  0
    4.4769    9.4243    6.3031 H   0  0  0  0  0  0  0  0  0  0  0  0
    6.2324    9.6413    5.9945 H   0  0  0  0  0  0  0  0  0  0  0  0
    5.5638    7.2323    4.6675 H   0  0  0  0  0  0  0  0  0  0  0  0
    4.1870    8.3353    4.3295 H   0  0  0  0  0  0  0  0  0  0  0  0
    9.9561    8.1625    3.3110 H   0  0  0  0  0  0  0  0  0  0  0  0
    6.2433   11.6563    1.6075 H   0  0  0  0  0  0  0  0  0  0  0  0
    5.8727   10.1900    2.5301 H   0  0  0  0  0  0  0  0  0  0  0  0
    5.8307   10.1217    0.7037 H   0  0  0  0  0  0  0  0  0  0  0  0
    9.2032   13.0458   -0.7130 H   0  0  0  0  0  0  0  0  0  0  0  0
    9.3016   11.4849   -1.5967 H   0  0  0  0  0  0  0  0  0  0  0  0
    8.9667   13.6808   -3.2696 H   0  0  0  0  0  0  0  0  0  0  0  0
   10.5218   14.3022   -3.8844 H   0  0  0  0  0  0  0  0  0  0  0  0
  1  2  1  0  0  0  0
  1 20  1  0  0  0  0
  1 21  1  0  0  0  0
  1 22  1  0  0  0  0
  2  3  1  0  0  0  0
  2 23  1  0  0  0  0
  2 24  1  0  0  0  0
  3  4  1  0  0  0  0
  4  5  2  0  0  0  0
  4  6  1  0  0  0  0
  6 11  2  0  0  0  0
  6  7  1  0  0  0  0
  7  8  2  0  0  0  0
  7 25  1  0  0  0  0
  8  9  1  0  0  0  0
  8 18  1  0  0  0  0
  9 10  2  0  0  0  0
  9 13  1  0  0  0  0
 10 11  1  0  0  0  0
 11 12  1  0  0  0  0
 12 26  1  0  0  0  0
 12 27  1  0  0  0  0
 12 28  1  0  0  0  0
 13 14  1  0  0  0  0
 14 15  1  0  0  0  0
 14 29  1  0  0  0  0
 14 30  1  0  0  0  0
 15 16  2  0  0  0  0
 15 17  1  0  0  0  0
 17 31  1  0  0  0  0
 17 32  1  0  0  0  0
 18 19  3  0  0  0  0
M  END
> <Name>
ZINC07149658

> <reference>
BDB5204

> <quality>
0.741

> <status>
decoy

> <atoms in reference ligand area>
13

> <score>
-24.0688

$$$$
ZINC10569467
      BALL 1.4.0 (Jan  4 2012, 23:22:29)

 35 35  0999  0  0  0  0  0  0999 V2000
   10.9968   13.1466   -3.3400 C   0  0  0  0  0  0  0  0  0  0  0  0
   10.5404   12.7430   -1.9617 C   0  0  0  0  0  0  0  0  0  0  0  0
   11.3204   12.2996   -0.9496 C   0  0  0  0  0  0  0  0  0  0  0  0
   10.4057   12.0697    0.1123 C   0  0  0  0  0  0  0  0  0  0  0  0
    9.2240   12.3842   -0.3494 N   0  0  0  0  0  0  0  0  0  0  0  0
    9.2825   12.7591   -1.4975 O   0  0  0  0  0  0  0  0  0  0  0  0
   10.7079   11.6028    1.3917 N   0  0  0  0  0  0  0  0  0  0  0  0
   11.2901   10.3974    1.5490 C   0  0  0  0  0  0  0  0  0  0  0  0
   11.5512    9.7188    0.5784 O   0  0  0  0  0  0  0  0  0  0  0  0
   11.6166    9.8929    2.9309 C   0  0  0  0  0  0  0  0  0  0  0  0
   10.6099   10.4619    3.9327 C   0  0  0  0  0  0  0  0  0  0  0  0
   13.2902   10.4228    3.3883 S   0  0  0  0  0  0  0  0  0  0  0  0
   13.5834    9.6184    4.9876 C   0  0  0  0  0  0  0  0  0  0  0  0
   14.8447   10.1680    5.6025 C   0  0  0  0  0  0  0  0  0  0  0  0
   15.3817   11.1354    5.1169 O   0  0  0  0  0  0  0  0  0  0  0  0
   15.3715    9.5830    6.6896 O   0  0  0  0  0  0  0  0  0  0  0  0
   15.9091   10.4595    7.7148 C   0  0  0  0  0  0  0  0  0  0  0  0
   17.4083   10.5305    7.5795 C   0  0  0  0  0  0  0  0  0  0  0  0
   17.9523   10.0564    6.6049 O   0  0  0  0  0  0  0  0  0  0  0  0
   18.1445   11.1210    8.5418 N   0  0  0  0  0  0  0  0  0  0  0  0
   11.3755   12.1987   -3.7500 H   0  0  0  0  0  0  0  0  0  0  0  0
   11.8867   13.7564   -3.1247 H   0  0  0  0  0  0  0  0  0  0  0  0
   10.2525   13.6466   -3.9772 H   0  0  0  0  0  0  0  0  0  0  0  0
   12.4103   12.1514   -0.9490 H   0  0  0  0  0  0  0  0  0  0  0  0
   10.4862   12.1791    2.2160 H   0  0  0  0  0  0  0  0  0  0  0  0
   11.5640    8.7942    2.9421 H   0  0  0  0  0  0  0  0  0  0  0  0
    9.7886   10.9529    3.3901 H   0  0  0  0  0  0  0  0  0  0  0  0
   11.1109   11.1961    4.5808 H   0  0  0  0  0  0  0  0  0  0  0  0
   10.2045    9.6464    4.5495 H   0  0  0  0  0  0  0  0  0  0  0  0
   13.6910    8.5338    4.8395 H   0  0  0  0  0  0  0  0  0  0  0  0
   12.7337    9.8145    5.6580 H   0  0  0  0  0  0  0  0  0  0  0  0
   15.6496   10.0655    8.7085 H   0  0  0  0  0  0  0  0  0  0  0  0
   15.4827   11.4666    7.5969 H   0  0  0  0  0  0  0  0  0  0  0  0
   18.1192   10.7579    9.5053 H   0  0  0  0  0  0  0  0  0  0  0  0
   18.7324   11.9354    8.3136 H   0  0  0  0  0  0  0  0  0  0  0  0
  1  2  1  0  0  0  0
  1 21  1  0  0  0  0
  1 22  1  0  0  0  0
  1 23  1  0  0  0  0
  2  6  1  0  0  0  0
  2  3  2  0  0  0  0
  3  4  1  0  0  0  0
  3 24  1  0  0  0  0
  4  5  2  0  0  0  0
  4  7  1  0  0  0  0
  5  6  1  0  0  0  0
  7  8  1  0  0  0  0
  7 25  1  0  0  0  0
  8  9  2  0  0  0  0
  8 10  1  0  0  0  0
 10 11  1  0  0  0  0
 10 12  1  0  0  0  0
 10 26  1  0  0  0  0
 11 27  1  0  0  0  0
 11 28  1  0  0  0  0
 11 29  1  0  0  0  0
 12 13  1  0  0  0  0
 13 14  1  0  0  0  0
 13 30  1  0  0  0  0
 13 31  1  0  0  0  0
 14 15  2  0  0  0  0
 14 16  1  0  0  0  0
 16 17  1  0  0  0  0
 17 18  1  0  0  0  0
 17 32  1  0  0  0  0
 17 33  1  0  0  0  0
 18 19  2  0  0  0  0
 18 20  1  0  0  0  0
 20 34  1  0  0  0  0
 20 35  1  0  0  0  0
M  END
> <Name>
ZINC10569467

> <reference>
BDB4986

> <quality>
0.721

> <status>
decoy

> <atoms in reference ligand area>
15

> <score>
-24.0418

$$$$
ZINC19752419
      BALL 1.4.0 (Jan  4 2012, 23:22:29)

 40 41  0999  0  0  0  0  0  0999 V2000
   11.8847   15.1385   -1.5844 C   0  0  0  0  0  0  0  0  0  0  0  0
   11.1395   13.9221   -1.0314 C   0  0  0  0  0  0  0  0  0  0  0  0
    9.9648   14.3915   -0.1707 C   0  0  0  0  0  0  0  0  0  0  0  0
    9.3055   13.1990    0.4729 C   0  0  0  0  0  0  0  0  0  0  0  0
    8.5318   12.3530   -0.1419 N   0  0  0  0  0  0  0  0  0  0  0  0
    8.1093   11.4018    0.7312 C   0  0  0  0  0  0  0  0  0  0  0  0
    7.2814   10.2817    0.6062 C   0  0  0  0  0  0  0  0  0  0  0  0
    7.0335    9.4869    1.7052 C   0  0  0  0  0  0  0  0  0  0  0  0
    7.6094    9.7907    2.9408 C   0  0  0  0  0  0  0  0  0  0  0  0
    8.4241   10.8980    3.0766 C   0  0  0  0  0  0  0  0  0  0  0  0
    8.6810   11.7064    1.9771 C   0  0  0  0  0  0  0  0  0  0  0  0
    9.4331   12.8496    1.7820 N   0  0  0  0  0  0  0  0  0  0  0  0
   10.2213   13.5543    2.7962 C   0  0  0  0  0  0  0  0  0  0  0  0
   11.6733   13.1759    2.6562 C   0  0  0  0  0  0  0  0  0  0  0  0
   12.2105   13.2309    1.5754 O   0  0  0  0  0  0  0  0  0  0  0  0
   12.3698   12.7777    3.7324 O   0  5  0  0  0  0  0  0  0  0  0  0
    7.3621    8.9960    4.0166 O   0  0  0  0  0  0  0  0  0  0  0  0
    7.5858    9.5648    5.3083 C   0  0  0  0  0  0  0  0  0  0  0  0
    6.2286    8.3969    1.5839 O   0  0  0  0  0  0  0  0  0  0  0  0
    5.1929    8.4612    0.6014 C   0  0  0  0  0  0  0  0  0  0  0  0
    8.9893   15.0940   -1.0149 N   0  3  0  0  0  0  0  0  0  0  0  0
   11.7145   15.2122   -2.6687 H   0  0  0  0  0  0  0  0  0  0  0  0
   12.9618   15.0298   -1.3895 H   0  0  0  0  0  0  0  0  0  0  0  0
   11.5144   16.0506   -1.0934 H   0  0  0  0  0  0  0  0  0  0  0  0
   10.7617   13.3129   -1.8657 H   0  0  0  0  0  0  0  0  0  0  0  0
   11.8246   13.3189   -0.4177 H   0  0  0  0  0  0  0  0  0  0  0  0
   10.3319   15.0735    0.6103 H   0  0  0  0  0  0  0  0  0  0  0  0
    6.8292   10.0356   -0.3659 H   0  0  0  0  0  0  0  0  0  0  0  0
    8.8685   11.1389    4.0536 H   0  0  0  0  0  0  0  0  0  0  0  0
    9.8652   13.2744    3.7987 H   0  0  0  0  0  0  0  0  0  0  0  0
   10.1108   14.6399    2.6576 H   0  0  0  0  0  0  0  0  0  0  0  0
    7.6218   10.6547    5.1644 H   0  0  0  0  0  0  0  0  0  0  0  0
    8.5861    9.2329    5.6233 H   0  0  0  0  0  0  0  0  0  0  0  0
    6.8151    9.2780    6.0389 H   0  0  0  0  0  0  0  0  0  0  0  0
    4.2423    8.4749    1.1546 H   0  0  0  0  0  0  0  0  0  0  0  0
    5.2419    7.5176    0.0382 H   0  0  0  0  0  0  0  0  0  0  0  0
    5.2886    9.3339   -0.0613 H   0  0  0  0  0  0  0  0  0  0  0  0
    9.3840   15.9950   -1.3205 H   0  0  0  0  0  0  0  0  0  0  0  0
    8.1268   15.2623   -0.4775 H   0  0  0  0  0  0  0  0  0  0  0  0
    8.7713   14.5182   -1.8406 H   0  0  0  0  0  0  0  0  0  0  0  0
  1  2  1  0  0  0  0
  1 22  1  0  0  0  0
  1 23  1  0  0  0  0
  1 24  1  0  0  0  0
  2  3  1  0  0  0  0
  2 25  1  0  0  0  0
  2 26  1  0  0  0  0
  3  4  1  0  0  0  0
  3 21  1  0  0  0  0
  3 27  1  0  0  0  0
  4 12  1  0  0  0  0
  4  5  2  0  0  0  0
  5  6  1  0  0  0  0
  6 11  1  0  0  0  0
  6  7  2  0  0  0  0
  7  8  1  0  0  0  0
  7 28  1  0  0  0  0
  8  9  2  0  0  0  0
  8 19  1  0  0  0  0
  9 10  1  0  0  0  0
  9 17  1  0  0  0  0
 10 11  2  0  0  0  0
 10 29  1  0  0  0  0
 11 12  1  0  0  0  0
 12 13  1  0  0  0  0
 13 14  1  0  0  0  0
 13 30  1  0  0  0  0
 13 31  1  0  0  0  0
 14 15  2  0  0  0  0
 14 16  1  0  0  0  0
 17 18  1  0  0  0  0
 18 32  1  0  0  0  0
 18 33  1  0  0  0  0
 18 34  1  0  0  0  0
 19 20  1  0  0  0  0
 20 35  1  0  0  0  0
 20 36  1  0  0  0  0
 20 37  1  0  0  0  0
 21 38  1  0  0  0  0
 21 39  1  0  0  0  0
 21 40  1  0  0  0  0
M  END
> <Name>
ZINC19752419

> <reference>
BDB4995

> <quality>
0.772

> <status>
decoy

> <atoms in reference ligand area>
17

> <score>
-23.9225

$$$$
ZINC31345689
      BALL 1.4.0 (Jan  4 2012, 23:22:29)

 43 43  0999  0  0  0  0  0  0999 V2000
   14.1087   13.0290    4.4125 C   0  0  0  0  0  0  0  0  0  0  0  0
   12.9733   12.7527    3.4249 C   0  0  0  0  0  0  0  0  0  0  0  0
   12.0752   11.7940    3.9876 O   0  0  0  0  0  0  0  0  0  0  0  0
   11.4234   10.9856    3.1259 C   0  0  0  0  0  0  0  0  0  0  0  0
   11.9436   10.6759    2.0703 O   0  0  0  0  0  0  0  0  0  0  0  0
   10.1380   10.4936    3.4523 C   0  0  0  0  0  0  0  0  0  0  0  0
    9.2317   10.2159    2.4903 C   0  0  0  0  0  0  0  0  0  0  0  0
    7.9914    9.7401    2.8067 N   0  0  0  0  0  0  0  0  0  0  0  0
    7.5799    9.5159    4.0610 C   0  0  0  0  0  0  0  0  0  0  0  0
    6.4557    9.0912    4.2438 O   0  0  0  0  0  0  0  0  0  0  0  0
    8.3711    9.7462    5.1274 N   0  0  0  0  0  0  0  0  0  0  0  0
    9.7332   10.2544    4.8927 C   0  0  0  0  0  0  0  0  0  0  0  0
    9.5953   10.4339    1.0441 C   0  0  0  0  0  0  0  0  0  0  0  0
    9.5959   11.8734    0.7512 N   0  0  0  0  0  0  0  0  0  0  0  0
   10.4927   12.1819   -0.3708 C   0  0  0  0  0  0  0  0  0  0  0  0
   11.3603   13.3604   -0.0110 C   0  0  0  0  0  0  0  0  0  0  0  0
   10.9136   14.2553    0.6748 O   0  0  0  0  0  0  0  0  0  0  0  0
   12.6328   13.4197   -0.4513 N   0  0  0  0  0  0  0  0  0  0  0  0
    8.2346   12.3572    0.4853 C   0  0  0  0  0  0  0  0  0  0  0  0
    7.6799   11.6612   -0.7592 C   0  0  0  0  0  0  0  0  0  0  0  0
    7.3389   12.0451    1.6860 C   0  0  0  0  0  0  0  0  0  0  0  0
   14.0654   12.3006    5.2357 H   0  0  0  0  0  0  0  0  0  0  0  0
   14.0040   14.0462    4.8179 H   0  0  0  0  0  0  0  0  0  0  0  0
   15.0754   12.9392    3.8952 H   0  0  0  0  0  0  0  0  0  0  0  0
   12.4300   13.6869    3.2199 H   0  0  0  0  0  0  0  0  0  0  0  0
   13.3899   12.3574    2.4868 H   0  0  0  0  0  0  0  0  0  0  0  0
    7.3357    9.5426    2.0373 H   0  0  0  0  0  0  0  0  0  0  0  0
    8.0312    9.5710    6.0838 H   0  0  0  0  0  0  0  0  0  0  0  0
    9.8486   11.1973    5.4475 H   0  0  0  0  0  0  0  0  0  0  0  0
   10.4463    9.5464    5.3403 H   0  0  0  0  0  0  0  0  0  0  0  0
    8.8598    9.9298    0.4000 H   0  0  0  0  0  0  0  0  0  0  0  0
   10.5962   10.0206    0.8511 H   0  0  0  0  0  0  0  0  0  0  0  0
    9.8960   12.4255   -1.2622 H   0  0  0  0  0  0  0  0  0  0  0  0
   11.1289   11.3098   -0.5823 H   0  0  0  0  0  0  0  0  0  0  0  0
   13.1635   12.5516   -0.6111 H   0  0  0  0  0  0  0  0  0  0  0  0
   13.0745   14.3332   -0.6280 H   0  0  0  0  0  0  0  0  0  0  0  0
    8.2578   13.4441    0.3179 H   0  0  0  0  0  0  0  0  0  0  0  0
    8.2475   10.7380   -0.9479 H   0  0  0  0  0  0  0  0  0  0  0  0
    7.7717   12.3311   -1.6268 H   0  0  0  0  0  0  0  0  0  0  0  0
    6.6202   11.4127   -0.5996 H   0  0  0  0  0  0  0  0  0  0  0  0
    6.3053   11.8901    1.3432 H   0  0  0  0  0  0  0  0  0  0  0  0
    7.3674   12.8861    2.3945 H   0  0  0  0  0  0  0  0  0  0  0  0
    7.6989   11.1337    2.1858 H   0  0  0  0  0  0  0  0  0  0  0  0
  1  2  1  0  0  0  0
  1 22  1  0  0  0  0
  1 23  1  0  0  0  0
  1 24  1  0  0  0  0
  2  3  1  0  0  0  0
  2 25  1  0  0  0  0
  2 26  1  0  0  0  0
  3  4  1  0  0  0  0
  4  5  2  0  0  0  0
  4  6  1  0  0  0  0
  6 12  1  0  0  0  0
  6  7  2  0  0  0  0
  7  8  1  0  0  0  0
  7 13  1  0  0  0  0
  8  9  1  0  0  0  0
  8 27  1  0  0  0  0
  9 10  2  0  0  0  0
  9 11  1  0  0  0  0
 11 12  1  0  0  0  0
 11 28  1  0  0  0  0
 12 29  1  0  0  0  0
 12 30  1  0  0  0  0
 13 14  1  0  0  0  0
 13 31  1  0  0  0  0
 13 32  1  0  0  0  0
 14 15  1  0  0  0  0
 14 19  1  0  0  0  0
 15 16  1  0  0  0  0
 15 33  1  0  0  0  0
 15 34  1  0  0  0  0
 16 17  2  0  0  0  0
 16 18  1  0  0  0  0
 18 35  1  0  0  0  0
 18 36  1  0  0  0  0
 19 20  1  0  0  0  0
 19 21  1  0  0  0  0
 19 37  1  0  0  0  0
 20 38  1  0  0  0  0
 20 39  1  0  0  0  0
 20 40  1  0  0  0  0
 21 41  1  0  0  0  0
 21 42  1  0  0  0  0
 21 43  1  0  0  0  0
M  END
> <Name>
ZINC31345689

> <reference>
BDB4986

> <quality>
0.723

> <status>
decoy

> <atoms in reference ligand area>
21

> <score>
-23.9074

$$$$
ZINC04535668
      BALL 1.4.0 (Jan  4 2012, 23:22:29)

 48 49  0999  0  0  0  0  0  0999 V2000
   12.8025   14.2507   -1.8181 C   0  0  0  0  0  0  0  0  0  0  0  0
   12.5613   14.6983   -0.3751 C   0  0  0  0  0  0  0  0  0  0  0  0
   11.7192   13.6703    0.3356 C   0  0  0  0  0  0  0  0  0  0  0  0
   11.1964   13.9488    1.5847 C   0  0  0  0  0  0  0  0  0  0  0  0
   10.4244   13.0057    2.2368 C   0  0  0  0  0  0  0  0  0  0  0  0
   10.1750   11.7840    1.6399 C   0  0  0  0  0  0  0  0  0  0  0  0
   10.7020   11.5035    0.3932 C   0  0  0  0  0  0  0  0  0  0  0  0
   11.4698   12.4487   -0.2613 C   0  0  0  0  0  0  0  0  0  0  0  0
    9.3337   10.7557    2.3511 C   0  0  0  0  0  0  0  0  0  0  0  0
    8.6650    9.8494    1.3441 C   0  0  0  0  0  0  0  0  0  0  0  0
    9.1025    8.5916    1.5992 C   0  0  0  0  0  0  0  0  0  0  0  0
   10.0450    8.6285    2.7391 C   0  0  0  0  0  0  0  0  0  0  0  0
   10.6094    7.6608    3.2090 O   0  0  0  0  0  0  0  0  0  0  0  0
   10.1847    9.8925    3.1783 N   0  0  0  0  0  0  0  0  0  0  0  0
   11.0321   10.3293    4.2906 C   0  0  0  0  0  0  0  0  0  0  0  0
   12.5036   10.2003    3.8919 C   0  0  0  0  0  0  0  0  0  0  0  0
   14.0278    9.1167    2.3539 C   0  0  0  0  0  0  0  0  0  0  0  0
   14.1908    7.8189    1.5602 C   0  0  0  0  0  0  0  0  0  0  0  0
   13.6494    7.9911    0.2490 O   0  0  0  0  0  0  0  0  0  0  0  0
    8.7361    7.4814    0.9207 O   0  5  0  0  0  0  0  0  0  0  0  0
    7.7539   10.2374    0.3332 C   0  0  0  0  0  0  0  0  0  0  0  0
    7.9389   11.2626   -0.2897 O   0  0  0  0  0  0  0  0  0  0  0  0
    6.5538    9.3777    0.0301 C   0  0  0  0  0  0  0  0  0  0  0  0
   12.6171    9.2609    2.7602 N   0  3  0  0  0  0  0  0  0  0  0  0
   13.6098   13.5039   -1.8414 H   0  0  0  0  0  0  0  0  0  0  0  0
   13.0896   15.1191   -2.4292 H   0  0  0  0  0  0  0  0  0  0  0  0
   11.8816   13.8065   -2.2238 H   0  0  0  0  0  0  0  0  0  0  0  0
   13.5261   14.8026    0.1427 H   0  0  0  0  0  0  0  0  0  0  0  0
   12.0374   15.6655   -0.3727 H   0  0  0  0  0  0  0  0  0  0  0  0
   11.3948   14.9210    2.0596 H   0  0  0  0  0  0  0  0  0  0  0  0
   10.0085   13.2273    3.2308 H   0  0  0  0  0  0  0  0  0  0  0  0
   10.5106   10.5283   -0.0781 H   0  0  0  0  0  0  0  0  0  0  0  0
   11.8822   12.2286   -1.2570 H   0  0  0  0  0  0  0  0  0  0  0  0
    8.5939   11.2935    2.9623 H   0  0  0  0  0  0  0  0  0  0  0  0
   10.8088   11.3791    4.5316 H   0  0  0  0  0  0  0  0  0  0  0  0
   10.8353    9.7009    5.1717 H   0  0  0  0  0  0  0  0  0  0  0  0
   12.8908   11.1851    3.5917 H   0  0  0  0  0  0  0  0  0  0  0  0
   13.0845    9.8191    4.7447 H   0  0  0  0  0  0  0  0  0  0  0  0
   14.6660    9.0827    3.2491 H   0  0  0  0  0  0  0  0  0  0  0  0
   14.3178    9.9718    1.7256 H   0  0  0  0  0  0  0  0  0  0  0  0
   15.2588    7.5666    1.4851 H   0  0  0  0  0  0  0  0  0  0  0  0
   13.6569    7.0049    2.0726 H   0  0  0  0  0  0  0  0  0  0  0  0
   14.1296    8.7227   -0.2138 H   0  0  0  0  0  0  0  0  0  0  0  0
    5.9006   10.0094   -0.5899 H   0  0  0  0  0  0  0  0  0  0  0  0
    6.0491    9.2423    0.9980 H   0  0  0  0  0  0  0  0  0  0  0  0
    6.7998    8.4215   -0.4549 H   0  0  0  0  0  0  0  0  0  0  0  0
   12.2478    8.3414    3.0414 H   0  0  0  0  0  0  0  0  0  0  0  0
   12.0679    9.6157    1.9643 H   0  0  0  0  0  0  0  0  0  0  0  0
  1  2  1  0  0  0  0
  1 25  1  0  0  0  0
  1 26  1  0  0  0  0
  1 27  1  0  0  0  0
  2  3  1  0  0  0  0
  2 28  1  0  0  0  0
  2 29  1  0  0  0  0
  3  8  2  0  0  0  0
  3  4  1  0  0  0  0
  4  5  2  0  0  0  0
  4 30  1  0  0  0  0
  5  6  1  0  0  0  0
  5 31  1  0  0  0  0
  6  7  2  0  0  0  0
  6  9  1  0  0  0  0
  7  8  1  0  0  0  0
  7 32  1  0  0  0  0
  8 33  1  0  0  0  0
  9 14  1  0  0  0  0
  9 10  1  0  0  0  0
  9 34  1  0  0  0  0
 10 11  2  0  0  0  0
 10 21  1  0  0  0  0
 11 12  1  0  0  0  0
 11 20  1  0  0  0  0
 12 13  2  0  0  0  0
 12 14  1  0  0  0  0
 14 15  1  0  0  0  0
 15 16  1  0  0  0  0
 15 35  1  0  0  0  0
 15 36  1  0  0  0  0
 16 24  1  0  0  0  0
 16 37  1  0  0  0  0
 16 38  1  0  0  0  0
 17 18  1  0  0  0  0
 17 24  1  0  0  0  0
 17 39  1  0  0  0  0
 17 40  1  0  0  0  0
 18 19  1  0  0  0  0
 18 41  1  0  0  0  0
 18 42  1  0  0  0  0
 19 43  1  0  0  0  0
 21 22  2  0  0  0  0
 21 23  1  0  0  0  0
 23 44  1  0  0  0  0
 23 45  1  0  0  0  0
 23 46  1  0  0  0  0
 24 47  1  0  0  0  0
 24 48  1  0  0  0  0
M  END
> <Name>
ZINC04535668

> <reference>
BDB5023

> <quality>
0.713

> <status>
decoy

> <atoms in reference ligand area>
15

> <score>
-23.7558

$$$$
ZINC20236119
      BALL 1.4.0 (Jan  4 2012, 23:22:29)

 40 40  0999  0  0  0  0  0  0999 V2000
   13.2972   11.2083    2.7733 C   0  0  0  0  0  0  0  0  0  0  0  0
   12.6648    9.8649    3.1420 C   0  0  0  0  0  0  0  0  0  0  0  0
   11.2807    9.5203    2.0212 S   0  0  0  0  0  0  0  0  0  0  0  0
   11.7034    9.6414    0.6699 O   0  0  0  0  0  0  0  0  0  0  0  0
   10.5722    8.3686    2.4581 O   0  0  0  0  0  0  0  0  0  0  0  0
   10.2261   10.7767    2.2483 N   0  0  0  0  0  0  0  0  0  0  0  0
   10.4863   11.7720    3.2915 C   0  0  0  0  0  0  0  0  0  0  0  0
    9.5449   11.5303    4.4731 C   0  0  0  0  0  0  0  0  0  0  0  0
    9.8058   12.5283    5.5190 N   0  3  0  0  0  0  0  0  0  0  0  0
    9.0865   10.8877    1.4442 C   0  0  0  0  0  0  0  0  0  0  0  0
    9.1832   11.4451    0.1760 C   0  0  0  0  0  0  0  0  0  0  0  0
    8.0594   11.5507   -0.6216 C   0  0  0  0  0  0  0  0  0  0  0  0
    6.8320   11.1110   -0.1532 C   0  0  0  0  0  0  0  0  0  0  0  0
    6.7307   10.5568    1.1190 C   0  0  0  0  0  0  0  0  0  0  0  0
    7.8580   10.4457    1.9162 C   0  0  0  0  0  0  0  0  0  0  0  0
    5.5264   10.1242    1.5790 O   0  0  0  0  0  0  0  0  0  0  0  0
    5.3538    8.7124    1.7172 C   0  0  0  0  0  0  0  0  0  0  0  0
    5.7254   11.2208   -0.9377 O   0  0  0  0  0  0  0  0  0  0  0  0
    4.4930   10.7468   -0.3910 C   0  0  0  0  0  0  0  0  0  0  0  0
   13.9667   11.0752    1.9107 H   0  0  0  0  0  0  0  0  0  0  0  0
   13.8737   11.5905    3.6286 H   0  0  0  0  0  0  0  0  0  0  0  0
   12.5066   11.9280    2.5146 H   0  0  0  0  0  0  0  0  0  0  0  0
   13.4171    9.0678    3.0504 H   0  0  0  0  0  0  0  0  0  0  0  0
   12.2959    9.9039    4.1776 H   0  0  0  0  0  0  0  0  0  0  0  0
   11.5292   11.6842    3.6303 H   0  0  0  0  0  0  0  0  0  0  0  0
   10.3155   12.7809    2.8880 H   0  0  0  0  0  0  0  0  0  0  0  0
    9.7151   10.5221    4.8786 H   0  0  0  0  0  0  0  0  0  0  0  0
    8.5018   11.6184    4.1350 H   0  0  0  0  0  0  0  0  0  0  0  0
    9.3412   13.4142    5.2732 H   0  0  0  0  0  0  0  0  0  0  0  0
   10.8206   12.6845    5.6004 H   0  0  0  0  0  0  0  0  0  0  0  0
    9.4385   12.1875    6.4189 H   0  0  0  0  0  0  0  0  0  0  0  0
   10.1553   11.8031   -0.1941 H   0  0  0  0  0  0  0  0  0  0  0  0
    8.1396   11.9842   -1.6294 H   0  0  0  0  0  0  0  0  0  0  0  0
    7.7799   10.0079    2.9223 H   0  0  0  0  0  0  0  0  0  0  0  0
    5.8824    8.4249    2.6382 H   0  0  0  0  0  0  0  0  0  0  0  0
    5.8803    8.2519    0.8683 H   0  0  0  0  0  0  0  0  0  0  0  0
    4.2955    8.4141    1.7476 H   0  0  0  0  0  0  0  0  0  0  0  0
    3.8063   10.6197   -1.2408 H   0  0  0  0  0  0  0  0  0  0  0  0
    4.1022   11.5586    0.2401 H   0  0  0  0  0  0  0  0  0  0  0  0
    4.6111    9.8126    0.1776 H   0  0  0  0  0  0  0  0  0  0  0  0
  1  2  1  0  0  0  0
  1 20  1  0  0  0  0
  1 21  1  0  0  0  0
  1 22  1  0  0  0  0
  2  3  1  0  0  0  0
  2 23  1  0  0  0  0
  2 24  1  0  0  0  0
  3  4  2  0  0  0  0
  3  5  2  0  0  0  0
  3  6  1  0  0  0  0
  6  7  1  0  0  0  0
  6 10  1  0  0  0  0
  7  8  1  0  0  0  0
  7 25  1  0  0  0  0
  7 26  1  0  0  0  0
  8  9  1  0  0  0  0
  8 27  1  0  0  0  0
  8 28  1  0  0  0  0
  9 29  1  0  0  0  0
  9 30  1  0  0  0  0
  9 31  1  0  0  0  0
 10 15  2  0  0  0  0
 10 11  1  0  0  0  0
 11 12  2  0  0  0  0
 11 32  1  0  0  0  0
 12 13  1  0  0  0  0
 12 33  1  0  0  0  0
 13 14  2  0  0  0  0
 13 18  1  0  0  0  0
 14 15  1  0  0  0  0
 14 16  1  0  0  0  0
 15 34  1  0  0  0  0
 16 17  1  0  0  0  0
 17 35  1  0  0  0  0
 17 36  1  0  0  0  0
 17 37  1  0  0  0  0
 18 19  1  0  0  0  0
 19 38  1  0  0  0  0
 19 39  1  0  0  0  0
 19 40  1  0  0  0  0
M  END
> <Name>
ZINC20236119

> <reference>
BDB5222

> <quality>
0.747

> <status>
decoy

> <atoms in reference ligand area>
15

> <score>
-23.7485

$$$$
ZINC13216929
      BALL 1.4.0 (Jan  4 2012, 23:22:29)

 47 48  0999  0  0  0  0  0  0999 V2000
   10.4454   11.8228   -0.2239 C   0  0  0  0  0  0  0  0  0  0  0  0
    9.6503   11.1751    0.8224 N   0  0  0  0  0  0  0  0  0  0  0  0
    8.2990   11.1188    0.8869 C   0  0  0  0  0  0  0  0  0  0  0  0
    7.9804   10.4305    2.0106 C   0  0  0  0  0  0  0  0  0  0  0  0
    9.1099   10.0705    2.6159 N   0  0  0  0  0  0  0  0  0  0  0  0
   10.1333   10.5146    1.9172 C   0  0  0  0  0  0  0  0  0  0  0  0
   11.5554   10.3266    2.2542 C   0  0  0  0  0  0  0  0  0  0  0  0
   12.3464   11.2340    2.0811 O   0  0  0  0  0  0  0  0  0  0  0  0
   11.9794    9.1490    2.7543 N   0  0  0  0  0  0  0  0  0  0  0  0
   13.2997    9.0061    3.1755 C   0  0  0  0  0  0  0  0  0  0  0  0
   14.0796    7.9677    2.6755 C   0  0  0  0  0  0  0  0  0  0  0  0
   15.3844    7.8238    3.0896 C   0  0  0  0  0  0  0  0  0  0  0  0
   15.9257    8.7218    4.0137 C   0  0  0  0  0  0  0  0  0  0  0  0
   15.1380    9.7600    4.5186 C   0  0  0  0  0  0  0  0  0  0  0  0
   13.8357    9.9020    4.0956 C   0  0  0  0  0  0  0  0  0  0  0  0
   17.3243    8.5705    4.4598 C   0  0  0  0  0  0  0  0  0  0  0  0
   18.1096    7.9269    3.7909 O   0  0  0  0  0  0  0  0  0  0  0  0
   17.7326    9.1505    5.6059 N   0  0  0  0  0  0  0  0  0  0  0  0
   19.1224    9.0054    6.0457 C   0  0  0  0  0  0  0  0  0  0  0  0
   19.2164    9.2982    7.5445 C   0  0  0  0  0  0  0  0  0  0  0  0
   17.0991   10.4718    7.5911 C   0  0  0  0  0  0  0  0  0  0  0  0
   18.8141   11.0037    9.2154 C   0  0  0  0  0  0  0  0  0  0  0  0
    6.6103   10.1266    2.4814 N   0  0  0  0  0  0  0  0  0  0  0  0
    5.6516   10.6544    1.9468 O   0  0  0  0  0  0  0  0  0  0  0  0
    6.4417    9.3487    3.4033 O   0  0  0  0  0  0  0  0  0  0  0  0
   18.5545   10.5907    7.8202 N   0  3  0  0  0  0  0  0  0  0  0  0
    9.8237   12.6912   -0.4877 H   0  0  0  0  0  0  0  0  0  0  0  0
   10.3457   11.1195   -1.0638 H   0  0  0  0  0  0  0  0  0  0  0  0
   11.4857   12.0761    0.0282 H   0  0  0  0  0  0  0  0  0  0  0  0
    7.5921   11.5506    0.1632 H   0  0  0  0  0  0  0  0  0  0  0  0
   11.3275    8.3548    2.8250 H   0  0  0  0  0  0  0  0  0  0  0  0
   13.6529    7.2610    1.9484 H   0  0  0  0  0  0  0  0  0  0  0  0
   16.0003    7.0030    2.6937 H   0  0  0  0  0  0  0  0  0  0  0  0
   15.5581   10.4628    5.2531 H   0  0  0  0  0  0  0  0  0  0  0  0
   13.2181   10.7246    4.4854 H   0  0  0  0  0  0  0  0  0  0  0  0
   17.0674    9.6957    6.1725 H   0  0  0  0  0  0  0  0  0  0  0  0
   19.7585    9.7132    5.4940 H   0  0  0  0  0  0  0  0  0  0  0  0
   19.4633    7.9778    5.8513 H   0  0  0  0  0  0  0  0  0  0  0  0
   20.2733    9.3550    7.8440 H   0  0  0  0  0  0  0  0  0  0  0  0
   18.7125    8.4992    8.1081 H   0  0  0  0  0  0  0  0  0  0  0  0
   16.8645    9.4472    7.2669 H   0  0  0  0  0  0  0  0  0  0  0  0
   16.7953   11.1804    6.8065 H   0  0  0  0  0  0  0  0  0  0  0  0
   16.5570   10.6973    8.5213 H   0  0  0  0  0  0  0  0  0  0  0  0
   19.2790   10.1692    9.7610 H   0  0  0  0  0  0  0  0  0  0  0  0
   17.8626   11.2696    9.6989 H   0  0  0  0  0  0  0  0  0  0  0  0
   19.4887   11.8725    9.2262 H   0  0  0  0  0  0  0  0  0  0  0  0
   18.9362   11.3047    7.1835 H   0  0  0  0  0  0  0  0  0  0  0  0
  1  2  1  0  0  0  0
  1 27  1  0  0  0  0
  1 28  1  0  0  0  0
  1 29  1  0  0  0  0
  2  6  1  0  0  0  0
  2  3  1  0  0  0  0
  3  4  2  0  0  0  0
  3 30  1  0  0  0  0
  4  5  1  0  0  0  0
  4 23  1  0  0  0  0
  5  6  2  0  0  0  0
  6  7  1  0  0  0  0
  7  8  2  0  0  0  0
  7  9  1  0  0  0  0
  9 10  1  0  0  0  0
  9 31  1  0  0  0  0
 10 15  2  0  0  0  0
 10 11  1  0  0  0  0
 11 12  2  0  0  0  0
 11 32  1  0  0  0  0
 12 13  1  0  0  0  0
 12 33  1  0  0  0  0
 13 14  2  0  0  0  0
 13 16  1  0  0  0  0
 14 15  1  0  0  0  0
 14 34  1  0  0  0  0
 15 35  1  0  0  0  0
 16 17  2  0  0  0  0
 16 18  1  0  0  0  0
 18 19  1  0  0  0  0
 18 36  1  0  0  0  0
 19 20  1  0  0  0  0
 19 37  1  0  0  0  0
 19 38  1  0  0  0  0
 20 26  1  0  0  0  0
 20 39  1  0  0  0  0
 20 40  1  0  0  0  0
 21 26  1  0  0  0  0
 21 41  1  0  0  0  0
 21 42  1  0  0  0  0
 21 43  1  0  0  0  0
 22 26  1  0  0  0  0
 22 44  1  0  0  0  0
 22 45  1  0  0  0  0
 22 46  1  0  0  0  0
 23 24  2  0  0  0  0
 23 25  2  0  0  0  0
 26 47  1  0  0  0  0
M  END
> <Name>
ZINC13216929

> <reference>
BDB5244

> <quality>
0.664

> <status>
decoy

> <atoms in reference ligand area>
11

> <score>
-23.3404

$$$$
ZINC29530525
      BALL 1.4.0 (Jan  4 2012, 23:22:29)

 38 39  0999  0  0  0  0  0  0999 V2000
   10.3134   13.1337   -3.9851 C   0  0  0  0  0  0  0  0  0  0  0  0
    8.8964   13.8149   -3.0804 S   0  0  0  0  0  0  0  0  0  0  0  0
    7.9384   12.7953   -2.8318 O   0  0  0  0  0  0  0  0  0  0  0  0
    8.5025   15.0557   -3.6502 O   0  0  0  0  0  0  0  0  0  0  0  0
    9.4939   14.2068   -1.5864 N   0  0  0  0  0  0  0  0  0  0  0  0
    9.3694   13.2592   -0.4761 C   0  0  0  0  0  0  0  0  0  0  0  0
    8.0470   12.4996   -0.5998 C   0  0  0  0  0  0  0  0  0  0  0  0
    8.0261   11.3454    0.4043 C   0  0  0  0  0  0  0  0  0  0  0  0
    8.8269   11.7042    1.5774 N   0  0  0  0  0  0  0  0  0  0  0  0
    9.9288   10.9310    1.9308 C   0  0  0  0  0  0  0  0  0  0  0  0
   10.5699   10.1690    0.9669 C   0  0  0  0  0  0  0  0  0  0  0  0
   11.6724    9.3966    1.3248 C   0  0  0  0  0  0  0  0  0  0  0  0
   12.1177    9.4045    2.6675 C   0  0  0  0  0  0  0  0  0  0  0  0
   11.4569   10.1793    3.6206 C   0  0  0  0  0  0  0  0  0  0  0  0
   10.3814   10.9350    3.2516 C   0  0  0  0  0  0  0  0  0  0  0  0
    9.6848   11.7618    4.2626 N   0  0  0  0  0  0  0  0  0  0  0  0
   10.1823   12.8066    4.6427 O   0  0  0  0  0  0  0  0  0  0  0  0
    8.6140   11.3974    4.7146 O   0  0  0  0  0  0  0  0  0  0  0  0
   13.2821    8.5791    3.0114 C   0  0  0  0  0  0  0  0  0  0  0  0
   13.7160    8.5405    4.1485 O   0  0  0  0  0  0  0  0  0  0  0  0
   13.8545    7.8623    2.0165 N   0  0  0  0  0  0  0  0  0  0  0  0
   13.3598    7.9143    0.7520 C   0  0  0  0  0  0  0  0  0  0  0  0
   12.3325    8.6340    0.4168 N   0  0  0  0  0  0  0  0  0  0  0  0
   10.2110   13.3740   -5.0536 H   0  0  0  0  0  0  0  0  0  0  0  0
   10.3334   12.0412   -3.8582 H   0  0  0  0  0  0  0  0  0  0  0  0
   11.2460   13.5684   -3.5960 H   0  0  0  0  0  0  0  0  0  0  0  0
    9.9530   15.1168   -1.4379 H   0  0  0  0  0  0  0  0  0  0  0  0
   10.2058   12.5455   -0.5074 H   0  0  0  0  0  0  0  0  0  0  0  0
    9.3895   13.8060    0.4781 H   0  0  0  0  0  0  0  0  0  0  0  0
    7.2106   13.1826   -0.3899 H   0  0  0  0  0  0  0  0  0  0  0  0
    7.9466   12.0995   -1.6195 H   0  0  0  0  0  0  0  0  0  0  0  0
    6.9895   11.1481    0.7150 H   0  0  0  0  0  0  0  0  0  0  0  0
    8.4466   10.4431   -0.0637 H   0  0  0  0  0  0  0  0  0  0  0  0
    8.5744   12.5286    2.1408 H   0  0  0  0  0  0  0  0  0  0  0  0
   10.2108   10.1742   -0.0728 H   0  0  0  0  0  0  0  0  0  0  0  0
   11.8009   10.1814    4.6655 H   0  0  0  0  0  0  0  0  0  0  0  0
   13.8547    7.3161   -0.0272 H   0  0  0  0  0  0  0  0  0  0  0  0
   12.0108    8.6259   -0.5616 H   0  0  0  0  0  0  0  0  0  0  0  0
  1  2  1  0  0  0  0
  1 24  1  0  0  0  0
  1 25  1  0  0  0  0
  1 26  1  0  0  0  0
  2  3  2  0  0  0  0
  2  4  2  0  0  0  0
  2  5  1  0  0  0  0
  5  6  1  0  0  0  0
  5 27  1  0  0  0  0
  6  7  1  0  0  0  0
  6 28  1  0  0  0  0
  6 29  1  0  0  0  0
  7  8  1  0  0  0  0
  7 30  1  0  0  0  0
  7 31  1  0  0  0  0
  8  9  1  0  0  0  0
  8 32  1  0  0  0  0
  8 33  1  0  0  0  0
  9 10  1  0  0  0  0
  9 34  1  0  0  0  0
 10 15  2  0  0  0  0
 10 11  1  0  0  0  0
 11 12  2  0  0  0  0
 11 35  1  0  0  0  0
 12 23  1  0  0  0  0
 12 13  1  0  0  0  0
 13 14  2  0  0  0  0
 13 19  1  0  0  0  0
 14 15  1  0  0  0  0
 14 36  1  0  0  0  0
 15 16  1  0  0  0  0
 16 17  2  0  0  0  0
 16 18  2  0  0  0  0
 19 20  2  0  0  0  0
 19 21  1  0  0  0  0
 21 22  2  0  0  0  0
 22 23  1  0  0  0  0
 22 37  1  0  0  0  0
 23 38  1  0  0  0  0
M  END
> <Name>
ZINC29530525

> <reference>
BDB4942

> <quality>
0.623

> <status>
decoy

> <atoms in reference ligand area>
20

> <score>
-23.2883

$$$$
ZINC19001641
      BALL 1.4.0 (Jan  4 2012, 23:22:29)

 42 42  0999  0  0  0  0  0  0999 V2000
   12.9106   13.5191    3.6396 C   0  0  0  0  0  0  0  0  0  0  0  0
   11.5035   13.0289    3.9869 C   0  0  0  0  0  0  0  0  0  0  0  0
   10.4800   13.7545    3.1112 C   0  0  0  0  0  0  0  0  0  0  0  0
   11.4119   11.5223    3.7366 C   0  0  0  0  0  0  0  0  0  0  0  0
   12.0290   11.2032    2.4467 N   0  0  0  0  0  0  0  0  0  0  0  0
   12.4320    9.9439    2.1857 C   0  0  0  0  0  0  0  0  0  0  0  0
   12.9703    9.2857    3.0541 O   0  0  0  0  0  0  0  0  0  0  0  0
   12.2377    9.4142    0.9617 N   0  0  0  0  0  0  0  0  0  0  0  0
   12.6407    8.1549    0.7007 C   0  0  0  0  0  0  0  0  0  0  0  0
   13.1777    7.4984    1.5669 O   0  0  0  0  0  0  0  0  0  0  0  0
   12.4235    7.5627   -0.6679 C   0  0  0  0  0  0  0  0  0  0  0  0
   12.7193    6.1416   -0.6329 O   0  0  0  0  0  0  0  0  0  0  0  0
   12.5745    5.4604   -1.7805 C   0  0  0  0  0  0  0  0  0  0  0  0
   12.0440    5.9845   -2.7312 O   0  0  0  0  0  0  0  0  0  0  0  0
   13.0736    4.0423   -1.8831 C   0  0  0  0  0  0  0  0  0  0  0  0
   14.1255    3.9506   -2.9903 C   0  0  0  0  0  0  0  0  0  0  0  0
   15.5028    3.7152   -2.3670 C   0  0  0  0  0  0  0  0  0  0  0  0
   16.5950    4.2609   -3.2654 C   0  0  0  0  0  0  0  0  0  0  0  0
   16.8538    3.9131   -4.3976 O   0  0  0  0  0  0  0  0  0  0  0  0
   17.2181    5.2135   -2.5441 N   0  0  0  0  0  0  0  0  0  0  0  0
   16.6770    5.3443   -1.3274 C   0  0  0  0  0  0  0  0  0  0  0  0
   17.0684    6.1394   -0.4958 O   0  0  0  0  0  0  0  0  0  0  0  0
   15.6497    4.4941   -1.1253 N   0  5  0  0  0  0  0  0  0  0  0  0
   12.8459   14.4925    3.1313 H   0  0  0  0  0  0  0  0  0  0  0  0
   13.4000   12.7912    2.9756 H   0  0  0  0  0  0  0  0  0  0  0  0
   13.5002   13.6267    4.5619 H   0  0  0  0  0  0  0  0  0  0  0  0
   11.2935   13.2381    5.0463 H   0  0  0  0  0  0  0  0  0  0  0  0
   10.9741   14.5764    2.5722 H   0  0  0  0  0  0  0  0  0  0  0  0
    9.6777   14.1619    3.7440 H   0  0  0  0  0  0  0  0  0  0  0  0
   10.0505   13.0479    2.3859 H   0  0  0  0  0  0  0  0  0  0  0  0
   11.9397   10.9846    4.5380 H   0  0  0  0  0  0  0  0  0  0  0  0
   10.3557   11.2152    3.7229 H   0  0  0  0  0  0  0  0  0  0  0  0
   12.1549   11.9412    1.7394 H   0  0  0  0  0  0  0  0  0  0  0  0
   11.7812    9.9718    0.2258 H   0  0  0  0  0  0  0  0  0  0  0  0
   11.3763    7.7114   -0.9700 H   0  0  0  0  0  0  0  0  0  0  0  0
   13.0878    8.0569   -1.3922 H   0  0  0  0  0  0  0  0  0  0  0  0
   13.5230    3.7413   -0.9253 H   0  0  0  0  0  0  0  0  0  0  0  0
   12.2334    3.3730   -2.1203 H   0  0  0  0  0  0  0  0  0  0  0  0
   13.8797    3.1146   -3.6616 H   0  0  0  0  0  0  0  0  0  0  0  0
   14.1389    4.8893   -3.5636 H   0  0  0  0  0  0  0  0  0  0  0  0
   15.5859    2.6306   -2.2036 H   0  0  0  0  0  0  0  0  0  0  0  0
   18.0127    5.7721   -2.8870 H   0  0  0  0  0  0  0  0  0  0  0  0
  1  2  1  0  0  0  0
  1 24  1  0  0  0  0
  1 25  1  0  0  0  0
  1 26  1  0  0  0  0
  2  3  1  0  0  0  0
  2  4  1  0  0  0  0
  2 27  1  0  0  0  0
  3 28  1  0  0  0  0
  3 29  1  0  0  0  0
  3 30  1  0  0  0  0
  4  5  1  0  0  0  0
  4 31  1  0  0  0  0
  4 32  1  0  0  0  0
  5  6  1  0  0  0  0
  5 33  1  0  0  0  0
  6  7  2  0  0  0  0
  6  8  1  0  0  0  0
  8  9  1  0  0  0  0
  8 34  1  0  0  0  0
  9 10  2  0  0  0  0
  9 11  1  0  0  0  0
 11 12  1  0  0  0  0
 11 35  1  0  0  0  0
 11 36  1  0  0  0  0
 12 13  1  0  0  0  0
 13 14  2  0  0  0  0
 13 15  1  0  0  0  0
 15 16  1  0  0  0  0
 15 37  1  0  0  0  0
 15 38  1  0  0  0  0
 16 17  1  0  0  0  0
 16 39  1  0  0  0  0
 16 40  1  0  0  0  0
 17 23  1  0  0  0  0
 17 18  1  0  0  0  0
 17 41  1  0  0  0  0
 18 19  2  0  0  0  0
 18 20  1  0  0  0  0
 20 21  1  0  0  0  0
 20 42  1  0  0  0  0
 21 22  2  0  0  0  0
 21 23  1  0  0  0  0
M  END
> <Name>
ZINC19001641

> <reference>
BDB5024

> <quality>
0.669

> <status>
decoy

> <atoms in reference ligand area>
10

> <score>
-23.2189

$$$$
ZINC01731417
      BALL 1.4.0 (Jan  4 2012, 23:22:29)

 35 35  0999  0  0  0  0  0  0999 V2000
   14.6576   10.4362    4.5182 C   0  0  0  0  0  0  0  0  0  0  0  0
   15.6468   11.3513    5.1928 C   0  0  0  0  0  0  0  0  0  0  0  0
   16.4454   10.4757    6.5517 Cl  0  0  0  0  0  0  0  0  0  0  0  0
   13.3371   10.7748    4.4719 N   0  0  0  0  0  0  0  0  0  0  0  0
   12.8679   11.2597    3.4580 O   0  0  0  0  0  0  0  0  0  0  0  0
   11.6420   10.8458    3.0943 C   0  0  0  0  0  0  0  0  0  0  0  0
   11.0536   10.0228    3.7683 O   0  0  0  0  0  0  0  0  0  0  0  0
   11.0106   11.3901    1.8771 C   0  0  0  0  0  0  0  0  0  0  0  0
   11.7955   11.9956    0.8923 C   0  0  0  0  0  0  0  0  0  0  0  0
   11.2020   12.4996   -0.2498 C   0  0  0  0  0  0  0  0  0  0  0  0
    9.8219   12.4149   -0.4139 C   0  0  0  0  0  0  0  0  0  0  0  0
    9.0368   11.8168    0.5682 C   0  0  0  0  0  0  0  0  0  0  0  0
    9.6259   11.3061    1.7095 C   0  0  0  0  0  0  0  0  0  0  0  0
    7.6891   11.7354    0.4046 O   0  0  0  0  0  0  0  0  0  0  0  0
    7.2126   11.4216   -0.9055 C   0  0  0  0  0  0  0  0  0  0  0  0
    9.2403   12.9167   -1.5348 O   0  0  0  0  0  0  0  0  0  0  0  0
    9.9264   12.7080   -2.7709 C   0  0  0  0  0  0  0  0  0  0  0  0
   11.9661   13.0836   -1.2114 O   0  0  0  0  0  0  0  0  0  0  0  0
   12.3764   14.4332   -0.9831 C   0  0  0  0  0  0  0  0  0  0  0  0
   15.0039    9.2970    3.9551 N   0  0  0  0  0  0  0  0  0  0  0  0
   15.1222   12.2350    5.5851 H   0  0  0  0  0  0  0  0  0  0  0  0
   16.4077   11.6695    4.4650 H   0  0  0  0  0  0  0  0  0  0  0  0
   12.7367   10.6203    5.2945 H   0  0  0  0  0  0  0  0  0  0  0  0
   12.8848   12.0710    1.0259 H   0  0  0  0  0  0  0  0  0  0  0  0
    9.0052   10.8339    2.4852 H   0  0  0  0  0  0  0  0  0  0  0  0
    8.0081   10.8386   -1.3925 H   0  0  0  0  0  0  0  0  0  0  0  0
    7.1212   12.3792   -1.4389 H   0  0  0  0  0  0  0  0  0  0  0  0
    6.2592   10.8732   -0.8914 H   0  0  0  0  0  0  0  0  0  0  0  0
    9.2601   12.0940   -3.3946 H   0  0  0  0  0  0  0  0  0  0  0  0
   10.8157   12.1058   -2.5331 H   0  0  0  0  0  0  0  0  0  0  0  0
   10.1967   13.6494   -3.2717 H   0  0  0  0  0  0  0  0  0  0  0  0
   13.4688   14.4502   -1.1110 H   0  0  0  0  0  0  0  0  0  0  0  0
   12.1570   14.6487    0.0731 H   0  0  0  0  0  0  0  0  0  0  0  0
   11.8788   15.1486   -1.6544 H   0  0  0  0  0  0  0  0  0  0  0  0
   15.9987    9.0316    3.9844 H   0  0  0  0  0  0  0  0  0  0  0  0
  1  2  1  0  0  0  0
  1  4  1  0  0  0  0
  1 20  2  0  0  0  0
  2  3  1  0  0  0  0
  2 21  1  0  0  0  0
  2 22  1  0  0  0  0
  4  5  1  0  0  0  0
  4 23  1  0  0  0  0
  5  6  1  0  0  0  0
  6  7  2  0  0  0  0
  6  8  1  0  0  0  0
  8 13  2  0  0  0  0
  8  9  1  0  0  0  0
  9 10  2  0  0  0  0
  9 24  1  0  0  0  0
 10 11  1  0  0  0  0
 10 18  1  0  0  0  0
 11 12  2  0  0  0  0
 11 16  1  0  0  0  0
 12 13  1  0  0  0  0
 12 14  1  0  0  0  0
 13 25  1  0  0  0  0
 14 15  1  0  0  0  0
 15 26  1  0  0  0  0
 15 27  1  0  0  0  0
 15 28  1  0  0  0  0
 16 17  1  0  0  0  0
 17 29  1  0  0  0  0
 17 30  1  0  0  0  0
 17 31  1  0  0  0  0
 18 19  1  0  0  0  0
 19 32  1  0  0  0  0
 19 33  1  0  0  0  0
 19 34  1  0  0  0  0
 20 35  1  0  0  0  0
M  END
> <Name>
ZINC01731417

> <reference>
BDB4986

> <quality>
0.750

> <status>
decoy

> <atoms in reference ligand area>
20

> <score>
-23.2125

$$$$
ZINC25495269
      BALL 1.4.0 (Jan  4 2012, 23:22:29)

 41 40  0999  0  0  0  0  0  0999 V2000
   13.0683   13.0767    2.9536 C   0  0  0  0  0  0  0  0  0  0  0  0
   13.5218   12.8549    4.3980 C   0  0  0  0  0  0  0  0  0  0  0  0
   14.4540   11.7428    4.4472 O   0  0  0  0  0  0  0  0  0  0  0  0
   13.9300   10.5072    4.4298 C   0  0  0  0  0  0  0  0  0  0  0  0
   13.9778    9.8167    5.4200 O   0  0  0  0  0  0  0  0  0  0  0  0
   13.2822    9.9812    3.1749 C   0  0  0  0  0  0  0  0  0  0  0  0
   11.8930   10.6032    3.0191 C   0  0  0  0  0  0  0  0  0  0  0  0
   11.1607   10.5329    4.3343 C   0  0  0  0  0  0  0  0  0  0  0  0
   11.0126    9.4069    4.9251 N   0  0  0  0  0  0  0  0  0  0  0  0
   10.2293    9.3212    6.0833 N   0  0  0  0  0  0  0  0  0  0  0  0
   10.3133    8.2336    6.8748 C   0  0  0  0  0  0  0  0  0  0  0  0
   10.9990    7.2877    6.5375 O   0  0  0  0  0  0  0  0  0  0  0  0
    9.6372    8.1943    8.0401 N   0  0  0  0  0  0  0  0  0  0  0  0
   10.6026   11.7880    4.9541 C   0  0  0  0  0  0  0  0  0  0  0  0
   11.1181    9.8458    1.9716 C   0  0  0  0  0  0  0  0  0  0  0  0
   10.7823   10.4248    0.8805 N   0  0  0  0  0  0  0  0  0  0  0  0
   11.0327   11.7924    0.7074 N   0  0  0  0  0  0  0  0  0  0  0  0
   10.7649   12.3822   -0.4746 C   0  0  0  0  0  0  0  0  0  0  0  0
    9.7924   13.1033   -0.5875 O   0  0  0  0  0  0  0  0  0  0  0  0
   11.5749   12.1725   -1.5312 N   0  0  0  0  0  0  0  0  0  0  0  0
   10.7387    8.4067    2.2087 C   0  0  0  0  0  0  0  0  0  0  0  0
   12.8371   14.1410    2.8001 H   0  0  0  0  0  0  0  0  0  0  0  0
   12.1697   12.4744    2.7538 H   0  0  0  0  0  0  0  0  0  0  0  0
   13.8717   12.7741    2.2658 H   0  0  0  0  0  0  0  0  0  0  0  0
   14.0164   13.7641    4.7708 H   0  0  0  0  0  0  0  0  0  0  0  0
   12.6484   12.6284    5.0270 H   0  0  0  0  0  0  0  0  0  0  0  0
   13.9010   10.2447    2.3045 H   0  0  0  0  0  0  0  0  0  0  0  0
   13.1880    8.8872    3.2403 H   0  0  0  0  0  0  0  0  0  0  0  0
   11.9943   11.6545    2.7115 H   0  0  0  0  0  0  0  0  0  0  0  0
    9.5891   10.0894    6.3301 H   0  0  0  0  0  0  0  0  0  0  0  0
    8.6325    7.9676    8.0452 H   0  0  0  0  0  0  0  0  0  0  0  0
   10.1253    8.3910    8.9255 H   0  0  0  0  0  0  0  0  0  0  0  0
    9.8097   12.1131    4.2645 H   0  0  0  0  0  0  0  0  0  0  0  0
   11.4155   12.5251    4.8761 H   0  0  0  0  0  0  0  0  0  0  0  0
   10.2420   11.6622    5.9856 H   0  0  0  0  0  0  0  0  0  0  0  0
   11.4214   12.3471    1.4834 H   0  0  0  0  0  0  0  0  0  0  0  0
   12.3050   11.4476   -1.4845 H   0  0  0  0  0  0  0  0  0  0  0  0
   11.4638   12.7373   -2.3853 H   0  0  0  0  0  0  0  0  0  0  0  0
   11.6262    7.8294    1.9100 H   0  0  0  0  0  0  0  0  0  0  0  0
    9.9560    8.1964    1.4650 H   0  0  0  0  0  0  0  0  0  0  0  0
   10.4163    8.1867    3.2371 H   0  0  0  0  0  0  0  0  0  0  0  0
  1  2  1  0  0  0  0
  1 22  1  0  0  0  0
  1 23  1  0  0  0  0
  1 24  1  0  0  0  0
  2  3  1  0  0  0  0
  2 25  1  0  0  0  0
  2 26  1  0  0  0  0
  3  4  1  0  0  0  0
  4  5  2  0  0  0  0
  4  6  1  0  0  0  0
  6  7  1  0  0  0  0
  6 27  1  0  0  0  0
  6 28  1  0  0  0  0
  7  8  1  0  0  0  0
  7 15  1  0  0  0  0
  7 29  1  0  0  0  0
  8  9  2  0  0  0  0
  8 14  1  0  0  0  0
  9 10  1  0  0  0  0
 10 11  1  0  0  0  0
 10 30  1  0  0  0  0
 11 12  2  0  0  0  0
 11 13  1  0  0  0  0
 13 31  1  0  0  0  0
 13 32  1  0  0  0  0
 14 33  1  0  0  0  0
 14 34  1  0  0  0  0
 14 35  1  0  0  0  0
 15 16  2  0  0  0  0
 15 21  1  0  0  0  0
 16 17  1  0  0  0  0
 17 18  1  0  0  0  0
 17 36  1  0  0  0  0
 18 19  2  0  0  0  0
 18 20  1  0  0  0  0
 20 37  1  0  0  0  0
 20 38  1  0  0  0  0
 21 39  1  0  0  0  0
 21 40  1  0  0  0  0
 21 41  1  0  0  0  0
M  END
> <Name>
ZINC25495269

> <reference>
BDB5021

> <quality>
0.696

> <status>
decoy

> <atoms in reference ligand area>
12

> <score>
-23.1834

$$$$
ZINC01603645
      BALL 1.4.0 (Jan  4 2012, 23:22:29)

 23 23  0999  0  0  0  0  0  0999 V2000
   11.1945   13.1321    1.6005 C   0  0  0  0  0  0  0  0  0  0  0  0
   11.5126   13.6899    0.2371 C   0  0  0  0  0  0  0  0  0  0  0  0
   11.3186   14.8592    0.0025 O   0  0  0  0  0  0  0  0  0  0  0  0
    9.5172   13.6190    2.0754 S   0  0  0  0  0  0  0  0  0  0  0  0
    8.6009   12.8764    0.7665 C   0  0  0  0  0  0  0  0  0  0  0  0
    7.5569   12.1164    1.0615 N   0  3  0  0  0  0  0  0  0  0  0  0
    6.8373   11.5424    0.1003 C   0  0  0  0  0  0  0  0  0  0  0  0
    7.2028   11.7422   -1.2314 C   0  0  0  0  0  0  0  0  0  0  0  0
    8.3117   12.5451   -1.5007 C   0  0  0  0  0  0  0  0  0  0  0  0
    8.9782   13.0891   -0.4854 N   0  0  0  0  0  0  0  0  0  0  0  0
    8.7147   12.7731   -2.8110 N   0  0  0  0  0  0  0  0  0  0  0  0
    6.4710   11.1479   -2.2775 N   0  0  0  0  0  0  0  0  0  0  0  0
    5.7407   10.7505    0.4186 N   0  0  0  0  0  0  0  0  0  0  0  0
   12.0113   12.8877   -0.7166 O   0  5  0  0  0  0  0  0  0  0  0  0
   11.2631   12.0346    1.5730 H   0  0  0  0  0  0  0  0  0  0  0  0
   11.9118   13.5260    2.3355 H   0  0  0  0  0  0  0  0  0  0  0  0
    7.2987   11.9677    2.0475 H   0  0  0  0  0  0  0  0  0  0  0  0
    8.0149   12.7740   -3.5667 H   0  0  0  0  0  0  0  0  0  0  0  0
    9.7079   12.9405   -3.0263 H   0  0  0  0  0  0  0  0  0  0  0  0
    6.5449   11.5341   -3.2295 H   0  0  0  0  0  0  0  0  0  0  0  0
    5.8667   10.3342   -2.0943 H   0  0  0  0  0  0  0  0  0  0  0  0
    4.8084   11.1803    0.5020 H   0  0  0  0  0  0  0  0  0  0  0  0
    5.8586    9.7386    0.5707 H   0  0  0  0  0  0  0  0  0  0  0  0
  1  2  1  0  0  0  0
  1  4  1  0  0  0  0
  1 15  1  0  0  0  0
  1 16  1  0  0  0  0
  2  3  2  0  0  0  0
  2 14  1  0  0  0  0
  4  5  1  0  0  0  0
  5 10  2  0  0  0  0
  5  6  1  0  0  0  0
  6  7  2  0  0  0  0
  6 17  1  0  0  0  0
  7  8  1  0  0  0  0
  7 13  1  0  0  0  0
  8  9  2  0  0  0  0
  8 12  1  0  0  0  0
  9 10  1  0  0  0  0
  9 11  1  0  0  0  0
 11 18  1  0  0  0  0
 11 19  1  0  0  0  0
 12 20  1  0  0  0  0
 12 21  1  0  0  0  0
 13 22  1  0  0  0  0
 13 23  1  0  0  0  0
M  END
> <Name>
ZINC01603645

> <reference>
BDB5257

> <quality>
0.800

> <status>
decoy

> <atoms in reference ligand area>
21

> <score>
-23.0613

$$$$
ZINC20261639
      BALL 1.4.0 (Jan  4 2012, 23:22:29)

 36 36  0999  0  0  0  0  0  0999 V2000
   13.3289    8.9055    1.7330 C   0  0  0  0  0  0  0  0  0  0  0  0
   11.8871    9.1511    1.2839 C   0  0  0  0  0  0  0  0  0  0  0  0
   11.7088   10.5387    0.9926 O   0  0  0  0  0  0  0  0  0  0  0  0
   11.5133   11.3714    2.0500 C   0  0  0  0  0  0  0  0  0  0  0  0
   11.4942   10.8644    3.3388 C   0  0  0  0  0  0  0  0  0  0  0  0
   11.2964   11.7124    4.4129 C   0  0  0  0  0  0  0  0  0  0  0  0
   11.1171   13.0674    4.2050 C   0  0  0  0  0  0  0  0  0  0  0  0
   11.1396   13.5821    2.9224 C   0  0  0  0  0  0  0  0  0  0  0  0
   11.3323   12.7367    1.8395 C   0  0  0  0  0  0  0  0  0  0  0  0
   11.3506   13.2547    0.5393 N   0  0  0  0  0  0  0  0  0  0  0  0
   12.2715   14.3413    0.1967 C   0  0  0  0  0  0  0  0  0  0  0  0
   10.3311   12.6394   -0.6115 S   0  0  0  0  0  0  0  0  0  0  0  0
   10.0698   11.3077   -0.1898 O   0  0  0  0  0  0  0  0  0  0  0  0
   10.9847   12.8928   -1.8476 O   0  0  0  0  0  0  0  0  0  0  0  0
    8.8248   13.6421   -0.4840 C   0  0  0  0  0  0  0  0  0  0  0  0
    8.1487   13.7230   -1.8542 C   0  0  0  0  0  0  0  0  0  0  0  0
    7.0366   12.7647   -1.9087 N   0  3  0  0  0  0  0  0  0  0  0  0
   14.0217    9.3642    1.0122 H   0  0  0  0  0  0  0  0  0  0  0  0
   13.5185    7.8231    1.7850 H   0  0  0  0  0  0  0  0  0  0  0  0
   13.4856    9.3522    2.7259 H   0  0  0  0  0  0  0  0  0  0  0  0
   11.6779    8.5577    0.3816 H   0  0  0  0  0  0  0  0  0  0  0  0
   11.1962    8.8540    2.0865 H   0  0  0  0  0  0  0  0  0  0  0  0
   11.6365    9.7868    3.5078 H   0  0  0  0  0  0  0  0  0  0  0  0
   11.2816   11.3078    5.4357 H   0  0  0  0  0  0  0  0  0  0  0  0
   10.9562   13.7375    5.0623 H   0  0  0  0  0  0  0  0  0  0  0  0
   11.0047   14.6617    2.7604 H   0  0  0  0  0  0  0  0  0  0  0  0
   12.8998   14.4739    1.0898 H   0  0  0  0  0  0  0  0  0  0  0  0
   11.6370   15.2358    0.1116 H   0  0  0  0  0  0  0  0  0  0  0  0
   12.8643   14.1579   -0.7116 H   0  0  0  0  0  0  0  0  0  0  0  0
    8.1358   13.1788    0.2375 H   0  0  0  0  0  0  0  0  0  0  0  0
    9.0852   14.6553   -0.1440 H   0  0  0  0  0  0  0  0  0  0  0  0
    7.7631   14.7408   -2.0135 H   0  0  0  0  0  0  0  0  0  0  0  0
    8.8794   13.4806   -2.6398 H   0  0  0  0  0  0  0  0  0  0  0  0
    6.5809   12.8182   -2.8308 H   0  0  0  0  0  0  0  0  0  0  0  0
    6.3511   12.9906   -1.1739 H   0  0  0  0  0  0  0  0  0  0  0  0
    7.3966   11.8113   -1.7595 H   0  0  0  0  0  0  0  0  0  0  0  0
  1  2  1  0  0  0  0
  1 18  1  0  0  0  0
  1 19  1  0  0  0  0
  1 20  1  0  0  0  0
  2  3  1  0  0  0  0
  2 21  1  0  0  0  0
  2 22  1  0  0  0  0
  3  4  1  0  0  0  0
  4  9  2  0  0  0  0
  4  5  1  0  0  0  0
  5  6  2  0  0  0  0
  5 23  1  0  0  0  0
  6  7  1  0  0  0  0
  6 24  1  0  0  0  0
  7  8  2  0  0  0  0
  7 25  1  0  0  0  0
  8  9  1  0  0  0  0
  8 26  1  0  0  0  0
  9 10  1  0  0  0  0
 10 11  1  0  0  0  0
 10 12  1  0  0  0  0
 11 27  1  0  0  0  0
 11 28  1  0  0  0  0
 11 29  1  0  0  0  0
 12 13  2  0  0  0  0
 12 14  2  0  0  0  0
 12 15  1  0  0  0  0
 15 16  1  0  0  0  0
 15 30  1  0  0  0  0
 15 31  1  0  0  0  0
 16 17  1  0  0  0  0
 16 32  1  0  0  0  0
 16 33  1  0  0  0  0
 17 34  1  0  0  0  0
 17 35  1  0  0  0  0
 17 36  1  0  0  0  0
M  END
> <Name>
ZINC20261639

> <reference>
BDB5204

> <quality>
0.750

> <status>
decoy

> <atoms in reference ligand area>
22

> <score>
-22.9715

$$$$
ZINC03121134
      BALL 1.4.0 (Jan  4 2012, 23:22:29)

 30 30  0999  0  0  0  0  0  0999 V2000
   11.8280   13.2607   -3.2061 C   0  0  0  0  0  0  0  0  0  0  0  0
   11.8358   12.8812   -1.8046 O   0  0  0  0  0  0  0  0  0  0  0  0
   10.8889   13.4268   -1.0182 C   0  0  0  0  0  0  0  0  0  0  0  0
   10.7071   14.6281   -1.0305 O   0  0  0  0  0  0  0  0  0  0  0  0
   10.1426   12.6404   -0.2175 N   0  5  0  0  0  0  0  0  0  0  0  0
   10.8242   11.9167    1.0869 P   0  0  0  0  0  0  0  0  0  0  0  0
    9.8803   11.9629    2.2259 O   0  0  0  0  0  0  0  0  0  0  0  0
   11.1792   10.3136    0.7173 N   0  0  0  0  0  0  0  0  0  0  0  0
   12.3832    9.9442    1.2464 N   0  0  0  0  0  0  0  0  0  0  0  0
   12.4349    9.3164    2.4931 C   0  0  0  0  0  0  0  0  0  0  0  0
   11.5403    9.6781    3.4924 C   0  0  0  0  0  0  0  0  0  0  0  0
   11.5939    9.0551    4.7237 C   0  0  0  0  0  0  0  0  0  0  0  0
   12.5369    8.0722    4.9624 C   0  0  0  0  0  0  0  0  0  0  0  0
   13.4290    7.7097    3.9699 C   0  0  0  0  0  0  0  0  0  0  0  0
   13.3808    8.3288    2.7363 C   0  0  0  0  0  0  0  0  0  0  0  0
   12.1802   12.6893    1.4819 O   0  0  0  0  0  0  0  0  0  0  0  0
   12.2742   14.1138    1.5449 C   0  0  0  0  0  0  0  0  0  0  0  0
   12.7826   12.9120   -3.6268 H   0  0  0  0  0  0  0  0  0  0  0  0
   11.8299   14.3604   -3.2293 H   0  0  0  0  0  0  0  0  0  0  0  0
   10.9685   12.8454   -3.7527 H   0  0  0  0  0  0  0  0  0  0  0  0
   10.5696    9.6933    0.1653 H   0  0  0  0  0  0  0  0  0  0  0  0
   13.2528   10.1285    0.7262 H   0  0  0  0  0  0  0  0  0  0  0  0
   10.7900   10.4599    3.3031 H   0  0  0  0  0  0  0  0  0  0  0  0
   10.8858    9.3409    5.5154 H   0  0  0  0  0  0  0  0  0  0  0  0
   12.5776    7.5776    5.9441 H   0  0  0  0  0  0  0  0  0  0  0  0
   14.1777    6.9274    4.1632 H   0  0  0  0  0  0  0  0  0  0  0  0
   14.0908    8.0401    1.9474 H   0  0  0  0  0  0  0  0  0  0  0  0
   13.3596   14.2916    1.5634 H   0  0  0  0  0  0  0  0  0  0  0  0
   11.9180   14.3426    2.5601 H   0  0  0  0  0  0  0  0  0  0  0  0
   11.7504   14.6772    0.7586 H   0  0  0  0  0  0  0  0  0  0  0  0
  1  2  1  0  0  0  0
  1 18  1  0  0  0  0
  1 19  1  0  0  0  0
  1 20  1  0  0  0  0
  2  3  1  0  0  0  0
  3  4  2  0  0  0  0
  3  5  1  0  0  0  0
  5  6  1  0  0  0  0
  6  7  2  0  0  0  0
  6  8  1  0  0  0  0
  6 16  1  0  0  0  0
  8  9  1  0  0  0  0
  8 21  1  0  0  0  0
  9 10  1  0  0  0  0
  9 22  1  0  0  0  0
 10 15  2  0  0  0  0
 10 11  1  0  0  0  0
 11 12  2  0  0  0  0
 11 23  1  0  0  0  0
 12 13  1  0  0  0  0
 12 24  1  0  0  0  0
 13 14  2  0  0  0  0
 13 25  1  0  0  0  0
 14 15  1  0  0  0  0
 14 26  1  0  0  0  0
 15 27  1  0  0  0  0
 16 17  1  0  0  0  0
 17 28  1  0  0  0  0
 17 29  1  0  0  0  0
 17 30  1  0  0  0  0
M  END
> <Name>
ZINC03121134

> <reference>
BDB5015

> <quality>
0.725

> <status>
decoy

> <atoms in reference ligand area>
14

> <score>
-22.9587

$$$$
ZINC31944609
      BALL 1.4.0 (Jan  4 2012, 23:22:29)

 31 31  0999  0  0  0  0  0  0999 V2000
    8.6523   14.7132   -4.9215 C   0  0  0  0  0  0  0  0  0  0  0  0
    8.9136   14.0625   -3.5875 C   0  0  0  0  0  0  0  0  0  0  0  0
    7.9711   14.1524   -2.5796 C   0  0  0  0  0  0  0  0  0  0  0  0
    8.2077   13.5572   -1.3560 C   0  0  0  0  0  0  0  0  0  0  0  0
    9.3934   12.8676   -1.1386 C   0  0  0  0  0  0  0  0  0  0  0  0
   10.3401   12.7838   -2.1512 C   0  0  0  0  0  0  0  0  0  0  0  0
   10.0953   13.3767   -3.3742 C   0  0  0  0  0  0  0  0  0  0  0  0
    9.6361   12.2636    0.1000 N   0  0  0  0  0  0  0  0  0  0  0  0
    8.6787   11.5162    0.6844 C   0  0  0  0  0  0  0  0  0  0  0  0
    7.5767   11.4423    0.1830 O   0  0  0  0  0  0  0  0  0  0  0  0
    8.9773   10.7725    1.9605 C   0  0  0  0  0  0  0  0  0  0  0  0
    7.6106    9.6397    2.3343 S   0  0  0  0  0  0  0  0  0  0  0  0
    6.3861   10.3362    2.1486 O   0  0  0  0  0  0  0  0  0  0  0  0
    7.8283    8.4249    1.6300 O   0  0  0  0  0  0  0  0  0  0  0  0
    7.8270    9.3220    4.1072 C   0  5  0  0  0  0  0  0  0  0  0  0
    6.6229    8.5861    4.6361 C   0  0  0  0  0  0  0  0  0  0  0  0
    6.8159    7.2584    5.5060 S   0  0  0  0  0  0  0  0  0  0  0  0
    5.3836    9.0472    4.3760 N   0  0  0  0  0  0  0  0  0  0  0  0
    9.1623   15.6865   -4.8702 H   0  0  0  0  0  0  0  0  0  0  0  0
    7.5706   14.9129   -4.9357 H   0  0  0  0  0  0  0  0  0  0  0  0
    8.9803   14.1111   -5.7817 H   0  0  0  0  0  0  0  0  0  0  0  0
    7.0320   14.6984   -2.7526 H   0  0  0  0  0  0  0  0  0  0  0  0
    7.4578   13.6294   -0.5544 H   0  0  0  0  0  0  0  0  0  0  0  0
   11.2840   12.2457   -1.9792 H   0  0  0  0  0  0  0  0  0  0  0  0
   10.8410   13.3032   -4.1795 H   0  0  0  0  0  0  0  0  0  0  0  0
   10.5462   12.3900    0.5652 H   0  0  0  0  0  0  0  0  0  0  0  0
    9.9072   10.1973    1.8409 H   0  0  0  0  0  0  0  0  0  0  0  0
    9.0937   11.4902    2.7859 H   0  0  0  0  0  0  0  0  0  0  0  0
    7.9358   10.2774    4.6413 H   0  0  0  0  0  0  0  0  0  0  0  0
    4.6251    8.3873    4.1514 H   0  0  0  0  0  0  0  0  0  0  0  0
    5.1947   10.0594    4.4018 H   0  0  0  0  0  0  0  0  0  0  0  0
  1  2  1  0  0  0  0
  1 19  1  0  0  0  0
  1 20  1  0  0  0  0
  1 21  1  0  0  0  0
  2  7  2  0  0  0  0
  2  3  1  0  0  0  0
  3  4  2  0  0  0  0
  3 22  1  0  0  0  0
  4  5  1  0  0  0  0
  4 23  1  0  0  0  0
  5  6  2  0  0  0  0
  5  8  1  0  0  0  0
  6  7  1  0  0  0  0
  6 24  1  0  0  0  0
  7 25  1  0  0  0  0
  8  9  1  0  0  0  0
  8 26  1  0  0  0  0
  9 10  2  0  0  0  0
  9 11  1  0  0  0  0
 11 12  1  0  0  0  0
 11 27  1  0  0  0  0
 11 28  1  0  0  0  0
 12 13  2  0  0  0  0
 12 14  2  0  0  0  0
 12 15  1  0  0  0  0
 15 16  1  0  0  0  0
 15 29  1  0  0  0  0
 16 17  2  0  0  0  0
 16 18  1  0  0  0  0
 18 30  1  0  0  0  0
 18 31  1  0  0  0  0
M  END
> <Name>
ZINC31944609

> <reference>
BDB5204

> <quality>
0.745

> <status>
decoy

> <atoms in reference ligand area>
17

> <score>
-22.9278

$$$$
ZINC19639944
      BALL 1.4.0 (Jan  4 2012, 23:22:29)

 64 66  0999  0  0  0  0  0  0999 V2000
   11.6968    5.3678   -2.8079 C   0  0  0  0  0  0  0  0  0  0  0  0
   10.4213    5.9298   -2.1767 C   0  0  0  0  0  0  0  0  0  0  0  0
    9.6847    4.8128   -1.4347 C   0  0  0  0  0  0  0  0  0  0  0  0
    9.3389    5.2820   -0.0201 C   0  0  0  0  0  0  0  0  0  0  0  0
   10.6206    5.3915    0.8084 C   0  0  0  0  0  0  0  0  0  0  0  0
   10.2748    5.8607    2.2231 C   0  0  0  0  0  0  0  0  0  0  0  0
   10.6508    7.3358    2.3773 C   0  0  0  0  0  0  0  0  0  0  0  0
    9.7926    8.2292    1.4425 C   0  0  0  0  0  0  0  0  0  0  0  0
    8.4862    8.4016    2.2432 C   0  0  0  0  0  0  0  0  0  0  0  0
    8.1088    9.8537    2.5240 C   0  0  0  0  0  0  0  0  0  0  0  0
    8.4130    9.4508    3.9422 C   0  0  0  0  0  0  0  0  0  0  0  0
    8.3278   10.0556    4.9900 O   0  0  0  0  0  0  0  0  0  0  0  0
    8.8114    8.1935    3.6602 N   0  0  0  0  0  0  0  0  0  0  0  0
   10.2469    7.8683    3.7742 C   0  0  0  0  0  0  0  0  0  0  0  0
    9.0633   10.8672    1.9469 C   0  0  0  0  0  0  0  0  0  0  0  0
    9.1874   10.9978    0.5762 C   0  0  0  0  0  0  0  0  0  0  0  0
   10.0628   11.9273    0.0470 C   0  0  0  0  0  0  0  0  0  0  0  0
   10.8141   12.7267    0.8885 C   0  0  0  0  0  0  0  0  0  0  0  0
   10.6891   12.5970    2.2589 C   0  0  0  0  0  0  0  0  0  0  0  0
    9.8105   11.6699    2.7881 C   0  0  0  0  0  0  0  0  0  0  0  0
   11.5076   13.4688    3.1760 C   0  0  0  0  0  0  0  0  0  0  0  0
   12.9335   12.9813    3.1922 C   0  0  0  0  0  0  0  0  0  0  0  0
   13.5447   12.8672    2.1562 O   0  0  0  0  0  0  0  0  0  0  0  0
   10.9684   13.4076    4.4980 O   0  0  0  0  0  0  0  0  0  0  0  0
   11.7690   13.7398    0.3115 C   0  0  0  0  0  0  0  0  0  0  0  0
   10.1988   12.0690   -1.4471 C   0  0  0  0  0  0  0  0  0  0  0  0
    6.7352   10.1637    2.2806 O   0  0  0  0  0  0  0  0  0  0  0  0
   12.1440    7.5478    2.1194 C   0  0  0  0  0  0  0  0  0  0  0  0
   13.5244   12.6738    4.3575 O   0  5  0  0  0  0  0  0  0  0  0  0
   12.3313    8.8379    1.4324 N   0  3  0  0  0  0  0  0  0  0  0  0
   12.4834    5.2924   -2.0427 H   0  0  0  0  0  0  0  0  0  0  0  0
   12.0333    6.0362   -3.6141 H   0  0  0  0  0  0  0  0  0  0  0  0
   11.4926    4.3694   -3.2220 H   0  0  0  0  0  0  0  0  0  0  0  0
   10.6841    6.7288   -1.4678 H   0  0  0  0  0  0  0  0  0  0  0  0
    9.7701    6.3375   -2.9639 H   0  0  0  0  0  0  0  0  0  0  0  0
    8.7591    4.5626   -1.9740 H   0  0  0  0  0  0  0  0  0  0  0  0
   10.3282    3.9224   -1.3779 H   0  0  0  0  0  0  0  0  0  0  0  0
    8.8496    6.2660   -0.0693 H   0  0  0  0  0  0  0  0  0  0  0  0
    8.6589    4.5575    0.4518 H   0  0  0  0  0  0  0  0  0  0  0  0
   11.3014    6.1166    0.3386 H   0  0  0  0  0  0  0  0  0  0  0  0
   11.1102    4.4078    0.8584 H   0  0  0  0  0  0  0  0  0  0  0  0
   10.8348    5.2618    2.9564 H   0  0  0  0  0  0  0  0  0  0  0  0
    9.1956    5.7379    2.3968 H   0  0  0  0  0  0  0  0  0  0  0  0
    9.5923    7.7086    0.4944 H   0  0  0  0  0  0  0  0  0  0  0  0
   10.2799    9.2042    1.2939 H   0  0  0  0  0  0  0  0  0  0  0  0
    7.7624    7.7866    1.6884 H   0  0  0  0  0  0  0  0  0  0  0  0
   10.3977    7.0861    4.5327 H   0  0  0  0  0  0  0  0  0  0  0  0
   10.8215    8.7755    4.0123 H   0  0  0  0  0  0  0  0  0  0  0  0
    8.5894   10.3620   -0.0932 H   0  0  0  0  0  0  0  0  0  0  0  0
    9.7061   11.5713    3.8787 H   0  0  0  0  0  0  0  0  0  0  0  0
   11.4794   14.5078    2.8161 H   0  0  0  0  0  0  0  0  0  0  0  0
   10.8434   14.3256    4.8472 H   0  0  0  0  0  0  0  0  0  0  0  0
   11.4933   14.6940    0.7841 H   0  0  0  0  0  0  0  0  0  0  0  0
   11.4989   13.8137   -0.7522 H   0  0  0  0  0  0  0  0  0  0  0  0
   12.8292   13.4871    0.4601 H   0  0  0  0  0  0  0  0  0  0  0  0
   10.8970   12.9065   -1.5924 H   0  0  0  0  0  0  0  0  0  0  0  0
    9.2105   12.4056   -1.7934 H   0  0  0  0  0  0  0  0  0  0  0  0
   10.5318   11.1506   -1.9527 H   0  0  0  0  0  0  0  0  0  0  0  0
    6.4278   10.7410    3.0239 H   0  0  0  0  0  0  0  0  0  0  0  0
   12.5282    6.7350    1.4857 H   0  0  0  0  0  0  0  0  0  0  0  0
   12.6850    7.5594    3.0771 H   0  0  0  0  0  0  0  0  0  0  0  0
   11.9743    9.6025    2.0230 H   0  0  0  0  0  0  0  0  0  0  0  0
   11.8267    8.8312    0.5345 H   0  0  0  0  0  0  0  0  0  0  0  0
   13.3352    8.9860    1.2561 H   0  0  0  0  0  0  0  0  0  0  0  0
  1  2  1  0  0  0  0
  1 31  1  0  0  0  0
  1 32  1  0  0  0  0
  1 33  1  0  0  0  0
  2  3  1  0  0  0  0
  2 34  1  0  0  0  0
  2 35  1  0  0  0  0
  3  4  1  0  0  0  0
  3 36  1  0  0  0  0
  3 37  1  0  0  0  0
  4  5  1  0  0  0  0
  4 38  1  0  0  0  0
  4 39  1  0  0  0  0
  5  6  1  0  0  0  0
  5 40  1  0  0  0  0
  5 41  1  0  0  0  0
  6  7  1  0  0  0  0
  6 42  1  0  0  0  0
  6 43  1  0  0  0  0
  7 14  1  0  0  0  0
  7  8  1  0  0  0  0
  7 28  1  0  0  0  0
  8  9  1  0  0  0  0
  8 44  1  0  0  0  0
  8 45  1  0  0  0  0
  9 13  1  0  0  0  0
  9 10  1  0  0  0  0
  9 46  1  0  0  0  0
 10 11  1  0  0  0  0
 10 15  1  0  0  0  0
 10 27  1  0  0  0  0
 11 12  2  0  0  0  0
 11 13  1  0  0  0  0
 13 14  1  0  0  0  0
 14 47  1  0  0  0  0
 14 48  1  0  0  0  0
 15 20  2  0  0  0  0
 15 16  1  0  0  0  0
 16 17  2  0  0  0  0
 16 49  1  0  0  0  0
 17 18  1  0  0  0  0
 17 26  1  0  0  0  0
 18 19  2  0  0  0  0
 18 25  1  0  0  0  0
 19 20  1  0  0  0  0
 19 21  1  0  0  0  0
 20 50  1  0  0  0  0
 21 22  1  0  0  0  0
 21 24  1  0  0  0  0
 21 51  1  0  0  0  0
 22 23  2  0  0  0  0
 22 29  1  0  0  0  0
 24 52  1  0  0  0  0
 25 53  1  0  0  0  0
 25 54  1  0  0  0  0
 25 55  1  0  0  0  0
 26 56  1  0  0  0  0
 26 57  1  0  0  0  0
 26 58  1  0  0  0  0
 27 59  1  0  0  0  0
 28 30  1  0  0  0  0
 28 60  1  0  0  0  0
 28 61  1  0  0  0  0
 30 62  1  0  0  0  0
 30 63  1  0  0  0  0
 30 64  1  0  0  0  0
M  END
> <Name>
ZINC19639944

> <reference>
BDB4965

> <quality>
0.776

> <status>
decoy

> <atoms in reference ligand area>
19

> <score>
-22.7598

$$$$
ZINC06382443
      BALL 1.4.0 (Jan  4 2012, 23:22:29)

 40 41  0999  0  0  0  0  0  0999 V2000
    4.1018    8.4675    4.6009 C   0  0  0  0  0  0  0  0  0  0  0  0
    4.8407    8.2209    3.2840 C   0  0  0  0  0  0  0  0  0  0  0  0
    7.2038    8.0916    3.7955 C   0  0  0  0  0  0  0  0  0  0  0  0
    7.3749    8.2399    5.3088 C   0  0  0  0  0  0  0  0  0  0  0  0
    6.4368    9.4646    1.9545 C   0  0  0  0  0  0  0  0  0  0  0  0
    7.5178   10.5412    2.0701 C   0  0  0  0  0  0  0  0  0  0  0  0
    7.7754   11.1552    0.6925 C   0  0  0  0  0  0  0  0  0  0  0  0
    8.9649   12.0083    0.7528 N   0  0  0  0  0  0  0  0  0  0  0  0
    9.3856   12.6576   -0.3515 C   0  0  0  0  0  0  0  0  0  0  0  0
    8.8742   12.3922   -1.5402 N   0  0  0  0  0  0  0  0  0  0  0  0
    9.2886   12.9555   -2.6695 C   0  0  0  0  0  0  0  0  0  0  0  0
   10.4536   13.5860   -2.7657 N   0  0  0  0  0  0  0  0  0  0  0  0
   11.1530   13.6850   -1.6360 C   0  0  0  0  0  0  0  0  0  0  0  0
   12.4334   13.5920   -1.3545 N   0  0  0  0  0  0  0  0  0  0  0  0
   12.6383   13.3896   -0.0465 C   0  0  0  0  0  0  0  0  0  0  0  0
   11.5402   13.4015    0.6555 N   0  0  0  0  0  0  0  0  0  0  0  0
   10.4609   13.7086   -0.2788 C   0  0  0  0  0  0  0  0  0  0  0  0
    8.7238    9.9543    2.5631 O   0  0  0  0  0  0  0  0  0  0  0  0
    6.1166    8.9666    3.3088 N   0  3  0  0  0  0  0  0  0  0  0  0
    3.4914    7.5889    4.8570 H   0  0  0  0  0  0  0  0  0  0  0  0
    3.4541    9.3515    4.5060 H   0  0  0  0  0  0  0  0  0  0  0  0
    4.8365    8.6423    5.4006 H   0  0  0  0  0  0  0  0  0  0  0  0
    4.2250    8.5731    2.4433 H   0  0  0  0  0  0  0  0  0  0  0  0
    5.0447    7.1459    3.1717 H   0  0  0  0  0  0  0  0  0  0  0  0
    6.9626    7.0454    3.5560 H   0  0  0  0  0  0  0  0  0  0  0  0
    8.1434    8.3665    3.2940 H   0  0  0  0  0  0  0  0  0  0  0  0
    7.2707    9.3008    5.5799 H   0  0  0  0  0  0  0  0  0  0  0  0
    8.3786    7.8907    5.5929 H   0  0  0  0  0  0  0  0  0  0  0  0
    6.6121    7.6454    5.8329 H   0  0  0  0  0  0  0  0  0  0  0  0
    6.8069    8.6343    1.3351 H   0  0  0  0  0  0  0  0  0  0  0  0
    5.5339    9.8964    1.4980 H   0  0  0  0  0  0  0  0  0  0  0  0
    7.1814   11.3255    2.7641 H   0  0  0  0  0  0  0  0  0  0  0  0
    7.9372   10.3528   -0.0423 H   0  0  0  0  0  0  0  0  0  0  0  0
    6.9070   11.7591    0.3908 H   0  0  0  0  0  0  0  0  0  0  0  0
    9.4798   12.1121    1.6388 H   0  0  0  0  0  0  0  0  0  0  0  0
    8.6429   12.8976   -3.5581 H   0  0  0  0  0  0  0  0  0  0  0  0
   13.6344   13.2291    0.3918 H   0  0  0  0  0  0  0  0  0  0  0  0
    9.9742   14.6472    0.0250 H   0  0  0  0  0  0  0  0  0  0  0  0
    8.8092   10.1381    3.5321 H   0  0  0  0  0  0  0  0  0  0  0  0
    6.0225    9.7696    3.9471 H   0  0  0  0  0  0  0  0  0  0  0  0
  1  2  1  0  0  0  0
  1 20  1  0  0  0  0
  1 21  1  0  0  0  0
  1 22  1  0  0  0  0
  2 19  1  0  0  0  0
  2 23  1  0  0  0  0
  2 24  1  0  0  0  0
  3  4  1  0  0  0  0
  3 19  1  0  0  0  0
  3 25  1  0  0  0  0
  3 26  1  0  0  0  0
  4 27  1  0  0  0  0
  4 28  1  0  0  0  0
  4 29  1  0  0  0  0
  5  6  1  0  0  0  0
  5 19  1  0  0  0  0
  5 30  1  0  0  0  0
  5 31  1  0  0  0  0
  6  7  1  0  0  0  0
  6 18  1  0  0  0  0
  6 32  1  0  0  0  0
  7  8  1  0  0  0  0
  7 33  1  0  0  0  0
  7 34  1  0  0  0  0
  8  9  1  0  0  0  0
  8 35  1  0  0  0  0
  9 17  1  0  0  0  0
  9 10  2  0  0  0  0
 10 11  1  0  0  0  0
 11 12  2  0  0  0  0
 11 36  1  0  0  0  0
 12 13  1  0  0  0  0
 13 17  1  0  0  0  0
 13 14  2  0  0  0  0
 14 15  1  0  0  0  0
 15 16  2  0  0  0  0
 15 37  1  0  0  0  0
 16 17  1  0  0  0  0
 17 38  1  0  0  0  0
 18 39  1  0  0  0  0
 19 40  1  0  0  0  0
M  END
> <Name>
ZINC06382443

> <reference>
BDB5222

> <quality>
0.774

> <status>
decoy

> <atoms in reference ligand area>
16

> <score>
-22.699

$$$$
ZINC23696717
      BALL 1.4.0 (Jan  4 2012, 23:22:29)

 57 57  0999  0  0  0  0  0  0999 V2000
    9.3654   15.6261    2.3762 C   0  0  0  0  0  0  0  0  0  0  0  0
    9.5169   14.6735    1.1886 C   0  0  0  0  0  0  0  0  0  0  0  0
    8.4883   13.5468    1.3042 C   0  0  0  0  0  0  0  0  0  0  0  0
    8.7967   12.4662    0.2658 C   0  0  0  0  0  0  0  0  0  0  0  0
    7.6876   11.5107    0.2112 N   0  0  0  0  0  0  0  0  0  0  0  0
    7.5924   10.5188    1.1594 C   0  0  0  0  0  0  0  0  0  0  0  0
    6.5397    9.6286    1.0998 C   0  0  0  0  0  0  0  0  0  0  0  0
    5.5994    9.7571    0.0605 C   0  0  0  0  0  0  0  0  0  0  0  0
    4.6620    8.9813   -0.0185 O   0  0  0  0  0  0  0  0  0  0  0  0
    5.7417   10.7433   -0.8464 N   0  0  0  0  0  0  0  0  0  0  0  0
    6.7711   11.6052   -0.7693 C   0  0  0  0  0  0  0  0  0  0  0  0
    6.8755   12.4864   -1.6008 O   0  0  0  0  0  0  0  0  0  0  0  0
    6.4114    8.6037    2.0610 N   0  0  0  0  0  0  0  0  0  0  0  0
    6.3603    8.9384    3.4864 C   0  0  0  0  0  0  0  0  0  0  0  0
    5.0988    8.3349    4.1071 C   0  0  0  0  0  0  0  0  0  0  0  0
    6.3356    7.3153    1.6675 C   0  0  0  0  0  0  0  0  0  0  0  0
    5.6394    6.5336    2.2809 O   0  0  0  0  0  0  0  0  0  0  0  0
    7.1154    6.8473    0.4659 C   0  0  0  0  0  0  0  0  0  0  0  0
    6.8651    5.4164    0.2466 N   0  3  0  0  0  0  0  0  0  0  0  0
    5.4655    5.1787   -0.1310 C   0  0  0  0  0  0  0  0  0  0  0  0
    7.7826    4.8701   -0.7622 C   0  0  0  0  0  0  0  0  0  0  0  0
    7.4919    3.3814   -0.9629 C   0  0  0  0  0  0  0  0  0  0  0  0
    8.5961    2.7570   -1.8183 C   0  0  0  0  0  0  0  0  0  0  0  0
    8.9864    3.7274   -2.9349 C   0  0  0  0  0  0  0  0  0  0  0  0
    8.5320   10.4187    2.1574 N   0  0  0  0  0  0  0  0  0  0  0  0
    8.2977   15.7729    2.5960 H   0  0  0  0  0  0  0  0  0  0  0  0
    9.8254   16.5949    2.1315 H   0  0  0  0  0  0  0  0  0  0  0  0
    9.8644   15.1967    3.2576 H   0  0  0  0  0  0  0  0  0  0  0  0
    9.3513   15.2257    0.2519 H   0  0  0  0  0  0  0  0  0  0  0  0
   10.5301   14.2452    1.1876 H   0  0  0  0  0  0  0  0  0  0  0  0
    8.5349   13.1095    2.3125 H   0  0  0  0  0  0  0  0  0  0  0  0
    7.4803   13.9492    1.1252 H   0  0  0  0  0  0  0  0  0  0  0  0
    9.7203   11.9390    0.5468 H   0  0  0  0  0  0  0  0  0  0  0  0
    8.9268   12.9330   -0.7217 H   0  0  0  0  0  0  0  0  0  0  0  0
    5.0542   10.8382   -1.6075 H   0  0  0  0  0  0  0  0  0  0  0  0
    7.2481    8.5299    3.9912 H   0  0  0  0  0  0  0  0  0  0  0  0
    6.3404   10.0316    3.6069 H   0  0  0  0  0  0  0  0  0  0  0  0
    4.2246    8.5990    3.4937 H   0  0  0  0  0  0  0  0  0  0  0  0
    4.9646    8.7300    5.1248 H   0  0  0  0  0  0  0  0  0  0  0  0
    5.1980    7.2403    4.1499 H   0  0  0  0  0  0  0  0  0  0  0  0
    8.1897    7.0085    0.6392 H   0  0  0  0  0  0  0  0  0  0  0  0
    6.7979    7.4147   -0.4213 H   0  0  0  0  0  0  0  0  0  0  0  0
    7.0414    4.9245    1.1342 H   0  0  0  0  0  0  0  0  0  0  0  0
    5.2229    4.1214    0.0511 H   0  0  0  0  0  0  0  0  0  0  0  0
    5.3444    5.3964   -1.2024 H   0  0  0  0  0  0  0  0  0  0  0  0
    4.7980    5.8231    0.4599 H   0  0  0  0  0  0  0  0  0  0  0  0
    7.6402    5.4025   -1.7142 H   0  0  0  0  0  0  0  0  0  0  0  0
    8.8210    4.9976   -0.4225 H   0  0  0  0  0  0  0  0  0  0  0  0
    7.4584    2.8791    0.0152 H   0  0  0  0  0  0  0  0  0  0  0  0
    6.5235    3.2608   -1.4705 H   0  0  0  0  0  0  0  0  0  0  0  0
    8.2321    1.8177   -2.2604 H   0  0  0  0  0  0  0  0  0  0  0  0
    9.4746    2.5500   -1.1894 H   0  0  0  0  0  0  0  0  0  0  0  0
    8.1153    4.3396   -3.2113 H   0  0  0  0  0  0  0  0  0  0  0  0
    9.3280    3.1595   -3.8129 H   0  0  0  0  0  0  0  0  0  0  0  0
    9.7977    4.3828   -2.5852 H   0  0  0  0  0  0  0  0  0  0  0  0
    9.0911    9.5584    2.2480 H   0  0  0  0  0  0  0  0  0  0  0  0
    8.6771   11.2002    2.8125 H   0  0  0  0  0  0  0  0  0  0  0  0
  1  2  1  0  0  0  0
  1 26  1  0  0  0  0
  1 27  1  0  0  0  0
  1 28  1  0  0  0  0
  2  3  1  0  0  0  0
  2 29  1  0  0  0  0
  2 30  1  0  0  0  0
  3  4  1  0  0  0  0
  3 31  1  0  0  0  0
  3 32  1  0  0  0  0
  4  5  1  0  0  0  0
  4 33  1  0  0  0  0
  4 34  1  0  0  0  0
  5 11  1  0  0  0  0
  5  6  1  0  0  0  0
  6  7  2  0  0  0  0
  6 25  1  0  0  0  0
  7  8  1  0  0  0  0
  7 13  1  0  0  0  0
  8  9  2  0  0  0  0
  8 10  1  0  0  0  0
 10 11  1  0  0  0  0
 10 35  1  0  0  0  0
 11 12  2  0  0  0  0
 13 14  1  0  0  0  0
 13 16  1  0  0  0  0
 14 15  1  0  0  0  0
 14 36  1  0  0  0  0
 14 37  1  0  0  0  0
 15 38  1  0  0  0  0
 15 39  1  0  0  0  0
 15 40  1  0  0  0  0
 16 17  2  0  0  0  0
 16 18  1  0  0  0  0
 18 19  1  0  0  0  0
 18 41  1  0  0  0  0
 18 42  1  0  0  0  0
 19 20  1  0  0  0  0
 19 21  1  0  0  0  0
 19 43  1  0  0  0  0
 20 44  1  0  0  0  0
 20 45  1  0  0  0  0
 20 46  1  0  0  0  0
 21 22  1  0  0  0  0
 21 47  1  0  0  0  0
 21 48  1  0  0  0  0
 22 23  1  0  0  0  0
 22 49  1  0  0  0  0
 22 50  1  0  0  0  0
 23 24  1  0  0  0  0
 23 51  1  0  0  0  0
 23 52  1  0  0  0  0
 24 53  1  0  0  0  0
 24 54  1  0  0  0  0
 24 55  1  0  0  0  0
 25 56  1  0  0  0  0
 25 57  1  0  0  0  0
M  END
> <Name>
ZINC23696717

> <reference>
BDB4997

> <quality>
0.670

> <status>
decoy

> <atoms in reference ligand area>
16

> <score>
-22.3921

$$$$
ZINC05677695
      BALL 1.4.0 (Jan  4 2012, 23:22:29)

 38 38  0999  0  0  0  0  0  0999 V2000
    5.8376    9.5082    3.1560 C   0  0  0  0  0  0  0  0  0  0  0  0
    6.9393    9.5886    2.0973 C   0  0  0  0  0  0  0  0  0  0  0  0
    6.7890    8.4158    1.1142 C   0  0  0  0  0  0  0  0  0  0  0  0
    5.5491    8.6921    0.2146 C   0  0  0  0  0  0  0  0  0  0  0  0
    5.7525   10.4975   -0.0921 S   0  0  0  0  0  0  0  0  0  0  0  0
    4.4932   11.1375    0.0631 O   0  0  0  0  0  0  0  0  0  0  0  0
    6.4873   10.6823   -1.2942 O   0  0  0  0  0  0  0  0  0  0  0  0
    6.8247   10.9322    1.3376 C   0  0  0  0  0  0  0  0  0  0  0  0
    8.5174   10.7491    3.5204 C   0  0  0  0  0  0  0  0  0  0  0  0
    9.6187   11.5521    2.8250 C   0  0  0  0  0  0  0  0  0  0  0  0
    9.7211   12.9379    3.4654 C   0  0  0  0  0  0  0  0  0  0  0  0
    9.9519   13.9872    2.3760 C   0  0  0  0  0  0  0  0  0  0  0  0
    9.8064   15.3867    2.9770 C   0  0  0  0  0  0  0  0  0  0  0  0
    9.5426   16.3813    1.8760 C   0  0  0  0  0  0  0  0  0  0  0  0
    9.4776   16.0090    0.7284 O   0  0  0  0  0  0  0  0  0  0  0  0
    8.2592    9.5168    2.7519 N   0  3  0  0  0  0  0  0  0  0  0  0
    9.3797   17.6807    2.1702 O   0  5  0  0  0  0  0  0  0  0  0  0
    6.2835    9.5879    4.1584 H   0  0  0  0  0  0  0  0  0  0  0  0
    5.3090    8.5478    3.0654 H   0  0  0  0  0  0  0  0  0  0  0  0
    5.1249   10.3326    3.0070 H   0  0  0  0  0  0  0  0  0  0  0  0
    6.6383    7.4804    1.6729 H   0  0  0  0  0  0  0  0  0  0  0  0
    7.6901    8.3403    0.4879 H   0  0  0  0  0  0  0  0  0  0  0  0
    5.6229    8.1397   -0.7337 H   0  0  0  0  0  0  0  0  0  0  0  0
    4.6155    8.5082    0.7664 H   0  0  0  0  0  0  0  0  0  0  0  0
    6.3261   11.6878    1.9624 H   0  0  0  0  0  0  0  0  0  0  0  0
    7.8117   11.2592    0.9783 H   0  0  0  0  0  0  0  0  0  0  0  0
    8.8413   10.4859    4.5382 H   0  0  0  0  0  0  0  0  0  0  0  0
    7.5976   11.3505    3.5692 H   0  0  0  0  0  0  0  0  0  0  0  0
   10.5793   11.0271    2.9328 H   0  0  0  0  0  0  0  0  0  0  0  0
    9.3772   11.6594    1.7572 H   0  0  0  0  0  0  0  0  0  0  0  0
    8.7871   13.1648    4.0003 H   0  0  0  0  0  0  0  0  0  0  0  0
   10.5627   12.9545    4.1735 H   0  0  0  0  0  0  0  0  0  0  0  0
   10.9643   13.8699    1.9623 H   0  0  0  0  0  0  0  0  0  0  0  0
    9.2104   13.8543    1.5744 H   0  0  0  0  0  0  0  0  0  0  0  0
   10.7335   15.6596    3.5023 H   0  0  0  0  0  0  0  0  0  0  0  0
    8.9664   15.3953    3.6873 H   0  0  0  0  0  0  0  0  0  0  0  0
    8.2810    8.7073    3.3885 H   0  0  0  0  0  0  0  0  0  0  0  0
    8.9907    9.4024    2.0359 H   0  0  0  0  0  0  0  0  0  0  0  0
  1  2  1  0  0  0  0
  1 18  1  0  0  0  0
  1 19  1  0  0  0  0
  1 20  1  0  0  0  0
  2  8  1  0  0  0  0
  2  3  1  0  0  0  0
  2 16  1  0  0  0  0
  3  4  1  0  0  0  0
  3 21  1  0  0  0  0
  3 22  1  0  0  0  0
  4  5  1  0  0  0  0
  4 23  1  0  0  0  0
  4 24  1  0  0  0  0
  5  6  2  0  0  0  0
  5  7  2  0  0  0  0
  5  8  1  0  0  0  0
  8 25  1  0  0  0  0
  8 26  1  0  0  0  0
  9 10  1  0  0  0  0
  9 16  1  0  0  0  0
  9 27  1  0  0  0  0
  9 28  1  0  0  0  0
 10 11  1  0  0  0  0
 10 29  1  0  0  0  0
 10 30  1  0  0  0  0
 11 12  1  0  0  0  0
 11 31  1  0  0  0  0
 11 32  1  0  0  0  0
 12 13  1  0  0  0  0
 12 33  1  0  0  0  0
 12 34  1  0  0  0  0
 13 14  1  0  0  0  0
 13 35  1  0  0  0  0
 13 36  1  0  0  0  0
 14 15  2  0  0  0  0
 14 17  1  0  0  0  0
 16 37  1  0  0  0  0
 16 38  1  0  0  0  0
M  END
> <Name>
ZINC05677695

> <reference>
BDB5195

> <quality>
0.816

> <status>
decoy

> <atoms in reference ligand area>
18

> <score>
-22.369

$$$$
ZINC19751955
      BALL 1.4.0 (Jan  4 2012, 23:22:29)

 34 35  0999  0  0  0  0  0  0999 V2000
    9.6274   15.4687    2.3583 C   0  0  0  0  0  0  0  0  0  0  0  0
    9.8742   14.3683    1.4805 O   0  0  0  0  0  0  0  0  0  0  0  0
   10.3215   13.2150    2.0466 C   0  0  0  0  0  0  0  0  0  0  0  0
    9.5530   12.5738    2.9954 C   0  0  0  0  0  0  0  0  0  0  0  0
   10.0129   11.3882    3.5766 C   0  0  0  0  0  0  0  0  0  0  0  0
   11.2554   10.8612    3.1875 C   0  0  0  0  0  0  0  0  0  0  0  0
   12.0199   11.5159    2.2314 C   0  0  0  0  0  0  0  0  0  0  0  0
   11.5534   12.6842    1.6595 C   0  0  0  0  0  0  0  0  0  0  0  0
   12.3001   13.3225    0.7187 O   0  0  0  0  0  0  0  0  0  0  0  0
   11.8759   14.6310    0.3318 C   0  0  0  0  0  0  0  0  0  0  0  0
   11.4272    9.7057    3.9264 N   0  0  0  0  0  0  0  0  0  0  0  0
   10.3279    9.5635    4.7161 C   0  0  0  0  0  0  0  0  0  0  0  0
    9.5009   10.5466    4.5121 N   0  0  0  0  0  0  0  0  0  0  0  0
   10.1018    8.4320    5.6855 C   0  0  0  0  0  0  0  0  0  0  0  0
   10.1956    8.9393    7.0609 N   0  3  0  0  0  0  0  0  0  0  0  0
   12.5788    8.8018    3.8699 C   0  0  0  0  0  0  0  0  0  0  0  0
   13.0254    8.6460    2.4391 C   0  0  0  0  0  0  0  0  0  0  0  0
   12.4416    9.2300    1.5570 O   0  0  0  0  0  0  0  0  0  0  0  0
   14.0718    7.8584    2.1446 O   0  5  0  0  0  0  0  0  0  0  0  0
   10.1548   15.2404    3.2962 H   0  0  0  0  0  0  0  0  0  0  0  0
    8.5475   15.4609    2.5679 H   0  0  0  0  0  0  0  0  0  0  0  0
    9.9511   16.4312    1.9354 H   0  0  0  0  0  0  0  0  0  0  0  0
    8.5812   12.9939    3.2940 H   0  0  0  0  0  0  0  0  0  0  0  0
   12.9948   11.1055    1.9297 H   0  0  0  0  0  0  0  0  0  0  0  0
   11.8912   14.6485   -0.7679 H   0  0  0  0  0  0  0  0  0  0  0  0
   12.6495   15.3256    0.6911 H   0  0  0  0  0  0  0  0  0  0  0  0
   10.8829   14.8907    0.7273 H   0  0  0  0  0  0  0  0  0  0  0  0
    9.1026    8.0023    5.5212 H   0  0  0  0  0  0  0  0  0  0  0  0
   10.8650    7.6556    5.5290 H   0  0  0  0  0  0  0  0  0  0  0  0
   10.2096    8.1477    7.7197 H   0  0  0  0  0  0  0  0  0  0  0  0
    9.3830    9.5390    7.2629 H   0  0  0  0  0  0  0  0  0  0  0  0
   11.0609    9.4881    7.1668 H   0  0  0  0  0  0  0  0  0  0  0  0
   12.2949    7.8188    4.2738 H   0  0  0  0  0  0  0  0  0  0  0  0
   13.4027    9.2197    4.4672 H   0  0  0  0  0  0  0  0  0  0  0  0
  1  2  1  0  0  0  0
  1 20  1  0  0  0  0
  1 21  1  0  0  0  0
  1 22  1  0  0  0  0
  2  3  1  0  0  0  0
  3  8  2  0  0  0  0
  3  4  1  0  0  0  0
  4  5  2  0  0  0  0
  4 23  1  0  0  0  0
  5 13  1  0  0  0  0
  5  6  1  0  0  0  0
  6  7  2  0  0  0  0
  6 11  1  0  0  0  0
  7  8  1  0  0  0  0
  7 24  1  0  0  0  0
  8  9  1  0  0  0  0
  9 10  1  0  0  0  0
 10 25  1  0  0  0  0
 10 26  1  0  0  0  0
 10 27  1  0  0  0  0
 11 12  1  0  0  0  0
 11 16  1  0  0  0  0
 12 13  2  0  0  0  0
 12 14  1  0  0  0  0
 14 15  1  0  0  0  0
 14 28  1  0  0  0  0
 14 29  1  0  0  0  0
 15 30  1  0  0  0  0
 15 31  1  0  0  0  0
 15 32  1  0  0  0  0
 16 17  1  0  0  0  0
 16 33  1  0  0  0  0
 16 34  1  0  0  0  0
 17 18  2  0  0  0  0
 17 19  1  0  0  0  0
M  END
> <Name>
ZINC19751955

> <reference>
BDB5242

> <quality>
0.756

> <status>
decoy

> <atoms in reference ligand area>
11

> <score>
-22.3468

$$$$
ZINC29372671
      BALL 1.4.0 (Jan  4 2012, 23:22:29)

 52 53  0999  0  0  0  0  0  0999 V2000
   11.7177   12.6550   -2.9043 C   0  0  0  0  0  0  0  0  0  0  0  0
   12.2229   12.8237   -1.4700 C   0  0  0  0  0  0  0  0  0  0  0  0
   11.6586   11.7804   -0.6323 O   0  0  0  0  0  0  0  0  0  0  0  0
   11.8345   11.9023    0.6990 C   0  0  0  0  0  0  0  0  0  0  0  0
   12.4431   12.8548    1.1472 O   0  0  0  0  0  0  0  0  0  0  0  0
   11.2916   10.8855    1.6068 C   0  0  0  0  0  0  0  0  0  0  0  0
    9.9711   10.4720    1.5130 C   0  0  0  0  0  0  0  0  0  0  0  0
    9.5393    9.5195    2.3952 C   0  0  0  0  0  0  0  0  0  0  0  0
   10.9973    9.1966    3.3690 S   0  0  0  0  0  0  0  0  0  0  0  0
   12.0898   10.2957    2.5928 C   0  0  0  0  0  0  0  0  0  0  0  0
   13.4202   10.5327    2.8788 N   0  0  0  0  0  0  0  0  0  0  0  0
   14.0249    9.8595    3.8776 C   0  0  0  0  0  0  0  0  0  0  0  0
   13.4010    9.0459    4.5252 O   0  0  0  0  0  0  0  0  0  0  0  0
   15.4764   10.1180    4.1897 C   0  0  0  0  0  0  0  0  0  0  0  0
   15.6625   11.5884    4.5692 C   0  0  0  0  0  0  0  0  0  0  0  0
   15.8944    9.2684    5.3076 N   0  3  0  0  0  0  0  0  0  0  0  0
   15.3110    8.0967    5.4752 C   0  0  0  0  0  0  0  0  0  0  0  0
   15.6735    7.2611    6.5160 C   0  0  0  0  0  0  0  0  0  0  0  0
   16.6644    7.6636    7.3943 C   0  0  0  0  0  0  0  0  0  0  0  0
   17.2645    8.9117    7.1906 C   0  0  0  0  0  0  0  0  0  0  0  0
   16.8451    9.6934    6.1132 C   0  0  0  0  0  0  0  0  0  0  0  0
   18.3282    9.3915    8.0984 C   0  0  0  0  0  0  0  0  0  0  0  0
   19.1739    8.6192    8.5055 O   0  0  0  0  0  0  0  0  0  0  0  0
   18.3601   10.6853    8.4746 N   0  0  0  0  0  0  0  0  0  0  0  0
    8.2103    8.9151    2.5103 C   0  0  0  0  0  0  0  0  0  0  0  0
    8.0745    7.7131    2.3738 O   0  0  0  0  0  0  0  0  0  0  0  0
    7.1378    9.6897    2.7674 N   0  0  0  0  0  0  0  0  0  0  0  0
    5.8084    9.0850    2.8826 C   0  0  0  0  0  0  0  0  0  0  0  0
    9.0441   11.0521    0.4761 C   0  0  0  0  0  0  0  0  0  0  0  0
   11.8645   11.6133   -3.2258 H   0  0  0  0  0  0  0  0  0  0  0  0
   12.2769   13.3265   -3.5724 H   0  0  0  0  0  0  0  0  0  0  0  0
   10.6471   12.9039   -2.9483 H   0  0  0  0  0  0  0  0  0  0  0  0
   13.3204   12.7503   -1.4566 H   0  0  0  0  0  0  0  0  0  0  0  0
   11.9164   13.8076   -1.0854 H   0  0  0  0  0  0  0  0  0  0  0  0
   13.9501   11.2238    2.3288 H   0  0  0  0  0  0  0  0  0  0  0  0
   16.0882    9.8873    3.3051 H   0  0  0  0  0  0  0  0  0  0  0  0
   14.9145   12.2011    4.0447 H   0  0  0  0  0  0  0  0  0  0  0  0
   16.6720   11.9174    4.2816 H   0  0  0  0  0  0  0  0  0  0  0  0
   15.5351   11.7064    5.6555 H   0  0  0  0  0  0  0  0  0  0  0  0
   14.5236    7.7795    4.7757 H   0  0  0  0  0  0  0  0  0  0  0  0
   15.1794    6.2867    6.6444 H   0  0  0  0  0  0  0  0  0  0  0  0
   16.9725    7.0193    8.2309 H   0  0  0  0  0  0  0  0  0  0  0  0
   17.3129   10.6730    5.9355 H   0  0  0  0  0  0  0  0  0  0  0  0
   17.9929   10.9629    9.3961 H   0  0  0  0  0  0  0  0  0  0  0  0
   18.7518   11.3965    7.8408 H   0  0  0  0  0  0  0  0  0  0  0  0
    7.2527   10.7067    2.8828 H   0  0  0  0  0  0  0  0  0  0  0  0
    5.1493    9.7242    2.2767 H   0  0  0  0  0  0  0  0  0  0  0  0
    5.5204    9.2243    3.9350 H   0  0  0  0  0  0  0  0  0  0  0  0
    5.7703    8.0302    2.5730 H   0  0  0  0  0  0  0  0  0  0  0  0
    8.8164   12.0635    0.8437 H   0  0  0  0  0  0  0  0  0  0  0  0
    8.1205   10.4620    0.5700 H   0  0  0  0  0  0  0  0  0  0  0  0
    9.4491   11.0508   -0.5466 H   0  0  0  0  0  0  0  0  0  0  0  0
  1  2  1  0  0  0  0
  1 30  1  0  0  0  0
  1 31  1  0  0  0  0
  1 32  1  0  0  0  0
  2  3  1  0  0  0  0
  2 33  1  0  0  0  0
  2 34  1  0  0  0  0
  3  4  1  0  0  0  0
  4  5  2  0  0  0  0
  4  6  1  0  0  0  0
  6 10  2  0  0  0  0
  6  7  1  0  0  0  0
  7  8  2  0  0  0  0
  7 29  1  0  0  0  0
  8  9  1  0  0  0  0
  8 25  1  0  0  0  0
  9 10  1  0  0  0  0
 10 11  1  0  0  0  0
 11 12  1  0  0  0  0
 11 35  1  0  0  0  0
 12 13  2  0  0  0  0
 12 14  1  0  0  0  0
 14 15  1  0  0  0  0
 14 16  1  0  0  0  0
 14 36  1  0  0  0  0
 15 37  1  0  0  0  0
 15 38  1  0  0  0  0
 15 39  1  0  0  0  0
 16 21  2  0  0  0  0
 16 17  1  0  0  0  0
 17 18  2  0  0  0  0
 17 40  1  0  0  0  0
 18 19  1  0  0  0  0
 18 41  1  0  0  0  0
 19 20  2  0  0  0  0
 19 42  1  0  0  0  0
 20 21  1  0  0  0  0
 20 22  1  0  0  0  0
 21 43  1  0  0  0  0
 22 23  2  0  0  0  0
 22 24  1  0  0  0  0
 24 44  1  0  0  0  0
 24 45  1  0  0  0  0
 25 26  2  0  0  0  0
 25 27  1  0  0  0  0
 27 28  1  0  0  0  0
 27 46  1  0  0  0  0
 28 47  1  0  0  0  0
 28 48  1  0  0  0  0
 28 49  1  0  0  0  0
 29 50  1  0  0  0  0
 29 51  1  0  0  0  0
 29 52  1  0  0  0  0
M  END
> <Name>
ZINC29372671

> <reference>
BDB4965

> <quality>
0.697

> <status>
decoy

> <atoms in reference ligand area>
14

> <score>
-22.0447

$$$$
ZINC18663576
      BALL 1.4.0 (Jan  4 2012, 23:22:29)

 48 49  0999  0  0  0  0  0  0999 V2000
   -1.6512    4.8778    2.8269 C   0  0  0  0  0  0  0  0  0  0  0  0
   -1.5978    3.3554    2.6840 C   0  0  0  0  0  0  0  0  0  0  0  0
   -0.2061    2.9291    2.5177 N   0  0  0  0  0  0  0  0  0  0  0  0
    0.7109    3.7739    1.9034 C   0  0  0  0  0  0  0  0  0  0  0  0
    0.5132    4.6856    0.9716 N   0  0  0  0  0  0  0  0  0  0  0  0
    1.5747    5.4208    0.4966 N   0  0  0  0  0  0  0  0  0  0  0  0
    2.7856    5.2100    0.9757 C   0  0  0  0  0  0  0  0  0  0  0  0
    2.4735    3.9094    2.1600 S   0  0  0  0  0  0  0  0  0  0  0  0
    4.3055    5.9955    0.5547 S   0  0  0  0  0  0  0  0  0  0  0  0
    5.0117    6.4718    2.1563 C   0  0  0  0  0  0  0  0  0  0  0  0
    6.1994    7.3723    1.9337 C   0  0  0  0  0  0  0  0  0  0  0  0
    6.3290    7.9553    0.8780 O   0  0  0  0  0  0  0  0  0  0  0  0
    7.1175    7.5297    2.9077 N   0  0  0  0  0  0  0  0  0  0  0  0
    8.1612    8.4501    2.7444 C   0  0  0  0  0  0  0  0  0  0  0  0
    9.4567    8.1024    3.1043 C   0  0  0  0  0  0  0  0  0  0  0  0
   10.4837    9.0120    2.9488 C   0  0  0  0  0  0  0  0  0  0  0  0
   10.2237   10.2691    2.4225 C   0  0  0  0  0  0  0  0  0  0  0  0
    8.9310   10.6150    2.0575 C   0  0  0  0  0  0  0  0  0  0  0  0
    7.9018    9.7081    2.2178 C   0  0  0  0  0  0  0  0  0  0  0  0
    8.6017   12.2119    1.3898 S   0  0  0  0  0  0  0  0  0  0  0  0
    9.5637   12.4308    0.3670 O   0  0  0  0  0  0  0  0  0  0  0  0
    7.2032   12.2694    1.1450 O   0  0  0  0  0  0  0  0  0  0  0  0
    8.9192   13.3163    2.5822 N   0  0  0  0  0  0  0  0  0  0  0  0
    7.8573   13.7226    3.5060 C   0  0  0  0  0  0  0  0  0  0  0  0
   10.2622   13.8869    2.7134 C   0  0  0  0  0  0  0  0  0  0  0  0
   11.2365   11.1622    2.2640 O   0  0  0  0  0  0  0  0  0  0  0  0
   11.8029   11.7185    3.4521 C   0  0  0  0  0  0  0  0  0  0  0  0
   -2.0980    5.1405    3.7971 H   0  0  0  0  0  0  0  0  0  0  0  0
   -2.2614    5.3021    2.0160 H   0  0  0  0  0  0  0  0  0  0  0  0
   -0.6321    5.2879    2.7707 H   0  0  0  0  0  0  0  0  0  0  0  0
   -2.0188    2.8874    3.5860 H   0  0  0  0  0  0  0  0  0  0  0  0
   -2.1823    3.0479    1.8044 H   0  0  0  0  0  0  0  0  0  0  0  0
    0.0928    2.0033    2.8561 H   0  0  0  0  0  0  0  0  0  0  0  0
    5.3324    5.5706    2.6993 H   0  0  0  0  0  0  0  0  0  0  0  0
    4.2530    7.0057    2.7474 H   0  0  0  0  0  0  0  0  0  0  0  0
    7.0519    6.9735    3.7720 H   0  0  0  0  0  0  0  0  0  0  0  0
    9.6646    7.1026    3.5131 H   0  0  0  0  0  0  0  0  0  0  0  0
   11.5083    8.7400    3.2423 H   0  0  0  0  0  0  0  0  0  0  0  0
    6.8767    9.9825    1.9282 H   0  0  0  0  0  0  0  0  0  0  0  0
    7.0388   14.0596    2.8529 H   0  0  0  0  0  0  0  0  0  0  0  0
    8.2523   14.6222    4.0007 H   0  0  0  0  0  0  0  0  0  0  0  0
    7.5410   12.9481    4.2202 H   0  0  0  0  0  0  0  0  0  0  0  0
   10.3375   14.1721    3.7731 H   0  0  0  0  0  0  0  0  0  0  0  0
   10.2197   14.8248    2.1402 H   0  0  0  0  0  0  0  0  0  0  0  0
   11.0810   13.2271    2.3906 H   0  0  0  0  0  0  0  0  0  0  0  0
   11.3878   12.7327    3.5471 H   0  0  0  0  0  0  0  0  0  0  0  0
   12.8829   11.8121    3.2654 H   0  0  0  0  0  0  0  0  0  0  0  0
   11.5975   11.1113    4.3461 H   0  0  0  0  0  0  0  0  0  0  0  0
  1  2  1  0  0  0  0
  1 28  1  0  0  0  0
  1 29  1  0  0  0  0
  1 30  1  0  0  0  0
  2  3  1  0  0  0  0
  2 31  1  0  0  0  0
  2 32  1  0  0  0  0
  3  4  1  0  0  0  0
  3 33  1  0  0  0  0
  4  8  1  0  0  0  0
  4  5  2  0  0  0  0
  5  6  1  0  0  0  0
  6  7  2  0  0  0  0
  7  8  1  0  0  0  0
  7  9  1  0  0  0  0
  9 10  1  0  0  0  0
 10 11  1  0  0  0  0
 10 34  1  0  0  0  0
 10 35  1  0  0  0  0
 11 12  2  0  0  0  0
 11 13  1  0  0  0  0
 13 14  1  0  0  0  0
 13 36  1  0  0  0  0
 14 19  2  0  0  0  0
 14 15  1  0  0  0  0
 15 16  2  0  0  0  0
 15 37  1  0  0  0  0
 16 17  1  0  0  0  0
 16 38  1  0  0  0  0
 17 18  2  0  0  0  0
 17 26  1  0  0  0  0
 18 19  1  0  0  0  0
 18 20  1  0  0  0  0
 19 39  1  0  0  0  0
 20 21  2  0  0  0  0
 20 22  2  0  0  0  0
 20 23  1  0  0  0  0
 23 24  1  0  0  0  0
 23 25  1  0  0  0  0
 24 40  1  0  0  0  0
 24 41  1  0  0  0  0
 24 42  1  0  0  0  0
 25 43  1  0  0  0  0
 25 44  1  0  0  0  0
 25 45  1  0  0  0  0
 26 27  1  0  0  0  0
 27 46  1  0  0  0  0
 27 47  1  0  0  0  0
 27 48  1  0  0  0  0
M  END
> <Name>
ZINC18663576

> <reference>
BDB4946

> <quality>
0.739

> <status>
decoy

> <atoms in reference ligand area>
17

> <score>
-22.0294

$$$$
ZINC05116227
      BALL 1.4.0 (Jan  4 2012, 23:22:29)

 44 44  0999  0  0  0  0  0  0999 V2000
    9.7297   12.9952    4.4975 C   0  0  0  0  0  0  0  0  0  0  0  0
   10.2773   12.1290    3.3925 C   0  0  0  0  0  0  0  0  0  0  0  0
   11.3551   11.2999    3.6346 C   0  0  0  0  0  0  0  0  0  0  0  0
   11.8592   10.5016    2.6167 C   0  0  0  0  0  0  0  0  0  0  0  0
   11.2832   10.5407    1.3536 C   0  0  0  0  0  0  0  0  0  0  0  0
   10.2028   11.3659    1.1128 C   0  0  0  0  0  0  0  0  0  0  0  0
    9.6981   12.1642    2.1312 C   0  0  0  0  0  0  0  0  0  0  0  0
    8.6058   13.0046    1.8857 N   0  0  0  0  0  0  0  0  0  0  0  0
   12.9521    9.6615    2.8620 N   0  3  0  0  0  0  0  0  0  0  0  0
   13.7007    9.0874    1.7412 C   0  0  0  0  0  0  0  0  0  0  0  0
   12.7628    8.2335    0.8855 C   0  0  0  0  0  0  0  0  0  0  0  0
   13.5832    7.4382   -0.1320 C   0  0  0  0  0  0  0  0  0  0  0  0
   13.1445    7.8162   -1.5481 C   0  0  0  0  0  0  0  0  0  0  0  0
   13.8964    6.6734   -2.7394 S   0  0  0  0  0  0  0  0  0  0  0  0
   14.1537    7.3440   -3.9655 O   0  0  0  0  0  0  0  0  0  0  0  0
   14.9107    5.9049   -2.1072 O   0  0  0  0  0  0  0  0  0  0  0  0
   13.3469    9.3566    4.2395 C   0  0  0  0  0  0  0  0  0  0  0  0
   14.4475   10.3235    4.6804 C   0  0  0  0  0  0  0  0  0  0  0  0
   13.8696    7.9206    4.3141 C   0  0  0  0  0  0  0  0  0  0  0  0
   12.7982    5.6720   -3.0675 O   0  5  0  0  0  0  0  0  0  0  0  0
    9.7012   12.3438    5.3834 H   0  0  0  0  0  0  0  0  0  0  0  0
    8.6875   13.1992    4.2106 H   0  0  0  0  0  0  0  0  0  0  0  0
   10.3071   13.9155    4.6697 H   0  0  0  0  0  0  0  0  0  0  0  0
   11.8141   11.2721    4.6339 H   0  0  0  0  0  0  0  0  0  0  0  0
   11.6878    9.9142    0.5450 H   0  0  0  0  0  0  0  0  0  0  0  0
    9.7418   11.3912    0.1144 H   0  0  0  0  0  0  0  0  0  0  0  0
    7.8244   12.6760    1.3004 H   0  0  0  0  0  0  0  0  0  0  0  0
    8.5834   13.9516    2.2903 H   0  0  0  0  0  0  0  0  0  0  0  0
   13.6230    8.8897    2.9853 H   0  0  0  0  0  0  0  0  0  0  0  0
   14.1205    9.8977    1.1271 H   0  0  0  0  0  0  0  0  0  0  0  0
   14.5169    8.4593    2.1274 H   0  0  0  0  0  0  0  0  0  0  0  0
   12.2076    7.5380    1.5321 H   0  0  0  0  0  0  0  0  0  0  0  0
   12.0538    8.8856    0.3544 H   0  0  0  0  0  0  0  0  0  0  0  0
   14.6507    7.6712   -0.0049 H   0  0  0  0  0  0  0  0  0  0  0  0
   13.4215    6.3616    0.0261 H   0  0  0  0  0  0  0  0  0  0  0  0
   12.0487    7.7532   -1.6218 H   0  0  0  0  0  0  0  0  0  0  0  0
   13.4687    8.8433   -1.7718 H   0  0  0  0  0  0  0  0  0  0  0  0
   12.4762    9.4650    4.9030 H   0  0  0  0  0  0  0  0  0  0  0  0
   15.1996    9.7799    5.2711 H   0  0  0  0  0  0  0  0  0  0  0  0
   14.0093   11.1245    5.2939 H   0  0  0  0  0  0  0  0  0  0  0  0
   14.9273   10.7632    3.7934 H   0  0  0  0  0  0  0  0  0  0  0  0
   14.3301    7.7476    5.2980 H   0  0  0  0  0  0  0  0  0  0  0  0
   14.6198    7.7610    3.5257 H   0  0  0  0  0  0  0  0  0  0  0  0
   13.0351    7.2181    4.1724 H   0  0  0  0  0  0  0  0  0  0  0  0
  1  2  1  0  0  0  0
  1 21  1  0  0  0  0
  1 22  1  0  0  0  0
  1 23  1  0  0  0  0
  2  7  2  0  0  0  0
  2  3  1  0  0  0  0
  3  4  2  0  0  0  0
  3 24  1  0  0  0  0
  4  5  1  0  0  0  0
  4  9  1  0  0  0  0
  5  6  2  0  0  0  0
  5 25  1  0  0  0  0
  6  7  1  0  0  0  0
  6 26  1  0  0  0  0
  7  8  1  0  0  0  0
  8 27  1  0  0  0  0
  8 28  1  0  0  0  0
  9 10  1  0  0  0  0
  9 17  1  0  0  0  0
  9 29  1  0  0  0  0
 10 11  1  0  0  0  0
 10 30  1  0  0  0  0
 10 31  1  0  0  0  0
 11 12  1  0  0  0  0
 11 32  1  0  0  0  0
 11 33  1  0  0  0  0
 12 13  1  0  0  0  0
 12 34  1  0  0  0  0
 12 35  1  0  0  0  0
 13 14  1  0  0  0  0
 13 36  1  0  0  0  0
 13 37  1  0  0  0  0
 14 15  2  0  0  0  0
 14 16  2  0  0  0  0
 14 20  1  0  0  0  0
 17 18  1  0  0  0  0
 17 19  1  0  0  0  0
 17 38  1  0  0  0  0
 18 39  1  0  0  0  0
 18 40  1  0  0  0  0
 18 41  1  0  0  0  0
 19 42  1  0  0  0  0
 19 43  1  0  0  0  0
 19 44  1  0  0  0  0
M  END
> <Name>
ZINC05116227

> <reference>
BDB4995

> <quality>
0.772

> <status>
decoy

> <atoms in reference ligand area>
12

> <score>
-21.8542

$$$$
ZINC06996143
      BALL 1.4.0 (Jan  4 2012, 23:22:29)

 29 30  0999  0  0  0  0  0  0999 V2000
    9.0895   14.5092   -4.5602 C   0  0  0  0  0  0  0  0  0  0  0  0
    9.1080   13.6724   -3.3070 C   0  0  0  0  0  0  0  0  0  0  0  0
    7.9389   13.2500   -2.7872 N   0  5  0  0  0  0  0  0  0  0  0  0
    7.9165   12.4858   -1.6580 C   0  0  0  0  0  0  0  0  0  0  0  0
    9.1239   12.1610   -1.0471 C   0  0  0  0  0  0  0  0  0  0  0  0
   10.3255   12.6356   -1.6419 C   0  0  0  0  0  0  0  0  0  0  0  0
   11.4083   12.3712   -1.1430 O   0  0  0  0  0  0  0  0  0  0  0  0
   10.2551   13.3795   -2.7601 N   0  0  0  0  0  0  0  0  0  0  0  0
    9.1569   11.3440    0.1767 C   0  0  0  0  0  0  0  0  0  0  0  0
   10.2876   10.8841    0.6201 N   0  0  0  0  0  0  0  0  0  0  0  0
   10.3190   10.1065    1.7850 N   0  0  0  0  0  0  0  0  0  0  0  0
   11.4731    9.4501    2.1426 C   0  0  0  0  0  0  0  0  0  0  0  0
   12.9206    8.1533    3.3171 C   0  0  0  0  0  0  0  0  0  0  0  0
   13.6514    8.7004    2.0748 C   0  0  0  0  0  0  0  0  0  0  0  0
   12.6243    9.5152    1.4047 N   0  0  0  0  0  0  0  0  0  0  0  0
    6.7459   12.0574   -1.1397 O   0  0  0  0  0  0  0  0  0  0  0  0
   11.5612    8.7177    3.2084 N   0  3  0  0  0  0  0  0  0  0  0  0
    9.8206   15.3135   -4.3912 H   0  0  0  0  0  0  0  0  0  0  0  0
    8.0908   14.9690   -4.5955 H   0  0  0  0  0  0  0  0  0  0  0  0
    9.3120   13.9315   -5.4695 H   0  0  0  0  0  0  0  0  0  0  0  0
    8.2238   11.1231    0.7159 H   0  0  0  0  0  0  0  0  0  0  0  0
    9.4776   10.0265    2.3736 H   0  0  0  0  0  0  0  0  0  0  0  0
   12.8801    7.0547    3.2787 H   0  0  0  0  0  0  0  0  0  0  0  0
   13.4094    8.5143    4.2341 H   0  0  0  0  0  0  0  0  0  0  0  0
   14.4988    9.3315    2.3809 H   0  0  0  0  0  0  0  0  0  0  0  0
   13.9654    7.8718    1.4230 H   0  0  0  0  0  0  0  0  0  0  0  0
   12.7504   10.0440    0.5299 H   0  0  0  0  0  0  0  0  0  0  0  0
    6.3453   12.8625   -0.7255 H   0  0  0  0  0  0  0  0  0  0  0  0
   10.7968    8.5540    3.8791 H   0  0  0  0  0  0  0  0  0  0  0  0
  1  2  1  0  0  0  0
  1 18  1  0  0  0  0
  1 19  1  0  0  0  0
  1 20  1  0  0  0  0
  2  8  2  0  0  0  0
  2  3  1  0  0  0  0
  3  4  1  0  0  0  0
  4  5  2  0  0  0  0
  4 16  1  0  0  0  0
  5  6  1  0  0  0  0
  5  9  1  0  0  0  0
  6  7  2  0  0  0  0
  6  8  1  0  0  0  0
  9 10  2  0  0  0  0
  9 21  1  0  0  0  0
 10 11  1  0  0  0  0
 11 12  1  0  0  0  0
 11 22  1  0  0  0  0
 12 15  1  0  0  0  0
 12 17  2  0  0  0  0
 13 14  1  0  0  0  0
 13 17  1  0  0  0  0
 13 23  1  0  0  0  0
 13 24  1  0  0  0  0
 14 15  1  0  0  0  0
 14 25  1  0  0  0  0
 14 26  1  0  0  0  0
 15 27  1  0  0  0  0
 16 28  1  0  0  0  0
 17 29  1  0  0  0  0
M  END
> <Name>
ZINC06996143

> <reference>
BDB5008

> <quality>
0.725

> <status>
decoy

> <atoms in reference ligand area>
13

> <score>
-21.8064

$$$$
ZINC06535546
      BALL 1.4.0 (Jan  4 2012, 23:22:29)

 41 42  0999  0  0  0  0  0  0999 V2000
   13.5536    6.6592   -1.5599 C   0  0  0  0  0  0  0  0  0  0  0  0
   13.1952    6.0199   -2.7310 C   0  0  0  0  0  0  0  0  0  0  0  0
   12.8856    4.6676   -2.7150 C   0  0  0  0  0  0  0  0  0  0  0  0
   12.9428    3.9593   -1.5235 C   0  0  0  0  0  0  0  0  0  0  0  0
   13.3077    4.6018   -0.3562 C   0  0  0  0  0  0  0  0  0  0  0  0
   13.6153    5.9497   -0.3747 C   0  0  0  0  0  0  0  0  0  0  0  0
   14.0126    6.6481    0.9002 C   0  0  0  0  0  0  0  0  0  0  0  0
   13.1847    7.9246    1.0618 C   0  0  0  0  0  0  0  0  0  0  0  0
   11.0548    8.6153    2.0700 C   0  0  0  0  0  0  0  0  0  0  0  0
    9.8025    8.5056    1.5719 C   0  0  0  0  0  0  0  0  0  0  0  0
    8.8674    9.5373    1.7838 C   0  0  0  0  0  0  0  0  0  0  0  0
    7.6052    9.4351    1.2862 C   0  0  0  0  0  0  0  0  0  0  0  0
    6.6679   10.4651    1.5355 C   0  0  0  0  0  0  0  0  0  0  0  0
    6.8707   11.3453    2.4760 N   0  0  0  0  0  0  0  0  0  0  0  0
    8.0423   11.2745    3.3480 C   0  0  0  0  0  0  0  0  0  0  0  0
    9.2525   10.7705    2.5615 C   0  0  0  0  0  0  0  0  0  0  0  0
    8.3397   12.6460    3.8972 C   0  0  0  0  0  0  0  0  0  0  0  0
    9.0086   12.7646    4.8965 O   0  0  0  0  0  0  0  0  0  0  0  0
    5.4326   10.5454    0.7120 C   0  0  0  0  0  0  0  0  0  0  0  0
    5.3163    9.8515   -0.2768 O   0  0  0  0  0  0  0  0  0  0  0  0
   12.5265    4.0380   -3.8646 O   0  0  0  0  0  0  0  0  0  0  0  0
   11.9441    7.5528    1.8260 N   0  3  0  0  0  0  0  0  0  0  0  0
    7.8568   13.7355    3.2797 O   0  5  0  0  0  0  0  0  0  0  0  0
    4.4432   11.3877    1.0632 O   0  5  0  0  0  0  0  0  0  0  0  0
   13.7900    7.7334   -1.5703 H   0  0  0  0  0  0  0  0  0  0  0  0
   13.1553    6.5826   -3.6754 H   0  0  0  0  0  0  0  0  0  0  0  0
   12.6978    2.8870   -1.5083 H   0  0  0  0  0  0  0  0  0  0  0  0
   13.3535    4.0405    0.5888 H   0  0  0  0  0  0  0  0  0  0  0  0
   13.8290    5.9819    1.7560 H   0  0  0  0  0  0  0  0  0  0  0  0
   15.0808    6.9075    0.8600 H   0  0  0  0  0  0  0  0  0  0  0  0
   13.7600    8.6724    1.6272 H   0  0  0  0  0  0  0  0  0  0  0  0
   12.9081    8.3178    0.0724 H   0  0  0  0  0  0  0  0  0  0  0  0
   11.3662    9.5008    2.6436 H   0  0  0  0  0  0  0  0  0  0  0  0
    9.5140    7.6105    1.0012 H   0  0  0  0  0  0  0  0  0  0  0  0
    7.3149    8.5556    0.6927 H   0  0  0  0  0  0  0  0  0  0  0  0
    7.8347   10.5785    4.1742 H   0  0  0  0  0  0  0  0  0  0  0  0
   10.0664   10.5247    3.2595 H   0  0  0  0  0  0  0  0  0  0  0  0
    9.5892   11.5536    1.8663 H   0  0  0  0  0  0  0  0  0  0  0  0
   11.7796    4.5770   -4.2274 H   0  0  0  0  0  0  0  0  0  0  0  0
   11.4421    6.8198    1.3049 H   0  0  0  0  0  0  0  0  0  0  0  0
   12.2215    7.1452    2.7303 H   0  0  0  0  0  0  0  0  0  0  0  0
  1  6  2  0  0  0  0
  1  2  1  0  0  0  0
  1 25  1  0  0  0  0
  2  3  2  0  0  0  0
  2 26  1  0  0  0  0
  3  4  1  0  0  0  0
  3 21  1  0  0  0  0
  4  5  2  0  0  0  0
  4 27  1  0  0  0  0
  5  6  1  0  0  0  0
  5 28  1  0  0  0  0
  6  7  1  0  0  0  0
  7  8  1  0  0  0  0
  7 29  1  0  0  0  0
  7 30  1  0  0  0  0
  8 22  1  0  0  0  0
  8 31  1  0  0  0  0
  8 32  1  0  0  0  0
  9 10  2  0  0  0  0
  9 22  1  0  0  0  0
  9 33  1  0  0  0  0
 10 11  1  0  0  0  0
 10 34  1  0  0  0  0
 11 16  1  0  0  0  0
 11 12  2  0  0  0  0
 12 13  1  0  0  0  0
 12 35  1  0  0  0  0
 13 14  2  0  0  0  0
 13 19  1  0  0  0  0
 14 15  1  0  0  0  0
 15 16  1  0  0  0  0
 15 17  1  0  0  0  0
 15 36  1  0  0  0  0
 16 37  1  0  0  0  0
 16 38  1  0  0  0  0
 17 18  2  0  0  0  0
 17 23  1  0  0  0  0
 19 20  2  0  0  0  0
 19 24  1  0  0  0  0
 21 39  1  0  0  0  0
 22 40  1  0  0  0  0
 22 41  1  0  0  0  0
M  END
> <Name>
ZINC06535546

> <reference>
BDB4934

> <quality>
0.675

> <status>
decoy

> <atoms in reference ligand area>
10

> <score>
-21.7499

$$$$
ZINC16298324
      BALL 1.4.0 (Jan  4 2012, 23:22:29)

 53 55  0999  0  0  0  0  0  0999 V2000
    9.6506   12.8557    5.0543 C   0  0  0  0  0  0  0  0  0  0  0  0
   10.5222   11.8521    4.3443 C   0  0  0  0  0  0  0  0  0  0  0  0
   10.7637   10.6179    4.9184 C   0  0  0  0  0  0  0  0  0  0  0  0
   11.5632    9.6973    4.2671 C   0  0  0  0  0  0  0  0  0  0  0  0
   12.1205   10.0104    3.0414 C   0  0  0  0  0  0  0  0  0  0  0  0
   11.8828   11.2464    2.4696 C   0  0  0  0  0  0  0  0  0  0  0  0
   11.0798   12.1654    3.1188 C   0  0  0  0  0  0  0  0  0  0  0  0
   13.1394    8.8369    2.2112 S   0  0  0  0  0  0  0  0  0  0  0  0
   14.4803    9.1322    2.5776 O   0  0  0  0  0  0  0  0  0  0  0  0
   12.7079    8.8102    0.8576 O   0  0  0  0  0  0  0  0  0  0  0  0
   12.7914    7.3487    2.8485 N   0  0  0  0  0  0  0  0  0  0  0  0
   13.0961    7.0637    4.2528 C   0  0  0  0  0  0  0  0  0  0  0  0
   11.8131    6.8290    5.0077 C   0  0  0  0  0  0  0  0  0  0  0  0
   11.8315    6.2347    6.0647 O   0  0  0  0  0  0  0  0  0  0  0  0
   10.6453    7.2796    4.5082 N   0  0  0  0  0  0  0  0  0  0  0  0
    9.3980    7.0516    5.2421 C   0  0  0  0  0  0  0  0  0  0  0  0
    8.2472    7.6497    4.4747 C   0  0  0  0  0  0  0  0  0  0  0  0
    7.1137    7.2780    4.6939 O   0  0  0  0  0  0  0  0  0  0  0  0
    8.4775    8.5978    3.5448 N   0  0  0  0  0  0  0  0  0  0  0  0
    7.3588    9.1793    2.7988 C   0  0  0  0  0  0  0  0  0  0  0  0
    7.8443   10.3694    2.0120 C   0  0  0  0  0  0  0  0  0  0  0  0
    8.1444   10.3732    0.6993 C   0  0  0  0  0  0  0  0  0  0  0  0
    8.5555   11.6824    0.3735 C   0  0  0  0  0  0  0  0  0  0  0  0
    8.4824   12.4120    1.5181 C   0  0  0  0  0  0  0  0  0  0  0  0
    8.0441   11.6046    2.5028 O   0  0  0  0  0  0  0  0  0  0  0  0
    8.8194   13.8447    1.6565 C   0  0  0  0  0  0  0  0  0  0  0  0
    8.3413   14.5864    2.7061 C   0  0  0  0  0  0  0  0  0  0  0  0
    9.0657   16.1784    2.3408 S   0  0  0  0  0  0  0  0  0  0  0  0
    9.8925   15.7253    0.8831 C   0  0  0  0  0  0  0  0  0  0  0  0
    9.5890   14.4556    0.7676 N   0  0  0  0  0  0  0  0  0  0  0  0
   10.7442   16.5775   -0.0219 C   0  0  0  0  0  0  0  0  0  0  0  0
   10.2564   13.7723    5.1089 H   0  0  0  0  0  0  0  0  0  0  0  0
    9.5494   12.4714    6.0800 H   0  0  0  0  0  0  0  0  0  0  0  0
    8.6776   13.0223    4.5691 H   0  0  0  0  0  0  0  0  0  0  0  0
   10.3198   10.3684    5.8934 H   0  0  0  0  0  0  0  0  0  0  0  0
   11.7559    8.7155    4.7241 H   0  0  0  0  0  0  0  0  0  0  0  0
   12.3326   11.4986    1.4980 H   0  0  0  0  0  0  0  0  0  0  0  0
   10.8846   13.1460    2.6603 H   0  0  0  0  0  0  0  0  0  0  0  0
   12.3605    6.6233    2.2575 H   0  0  0  0  0  0  0  0  0  0  0  0
   13.6293    7.9186    4.6943 H   0  0  0  0  0  0  0  0  0  0  0  0
   13.7278    6.1653    4.3160 H   0  0  0  0  0  0  0  0  0  0  0  0
   10.6296    7.7843    3.6104 H   0  0  0  0  0  0  0  0  0  0  0  0
    9.4625    7.5249    6.2329 H   0  0  0  0  0  0  0  0  0  0  0  0
    9.2355    5.9703    5.3621 H   0  0  0  0  0  0  0  0  0  0  0  0
    9.4401    8.9135    3.3587 H   0  0  0  0  0  0  0  0  0  0  0  0
    6.9476    8.4274    2.1092 H   0  0  0  0  0  0  0  0  0  0  0  0
    6.5754    9.4999    3.5013 H   0  0  0  0  0  0  0  0  0  0  0  0
    8.0810    9.5172    0.0113 H   0  0  0  0  0  0  0  0  0  0  0  0
    8.8737   12.0433   -0.6157 H   0  0  0  0  0  0  0  0  0  0  0  0
    7.6919   14.2849    3.5412 H   0  0  0  0  0  0  0  0  0  0  0  0
   10.7274   17.5259    0.5352 H   0  0  0  0  0  0  0  0  0  0  0  0
   10.0359   16.7508   -0.8455 H   0  0  0  0  0  0  0  0  0  0  0  0
   11.7422   16.2287   -0.3259 H   0  0  0  0  0  0  0  0  0  0  0  0
  1  2  1  0  0  0  0
  1 32  1  0  0  0  0
  1 33  1  0  0  0  0
  1 34  1  0  0  0  0
  2  7  2  0  0  0  0
  2  3  1  0  0  0  0
  3  4  2  0  0  0  0
  3 35  1  0  0  0  0
  4  5  1  0  0  0  0
  4 36  1  0  0  0  0
  5  6  2  0  0  0  0
  5  8  1  0  0  0  0
  6  7  1  0  0  0  0
  6 37  1  0  0  0  0
  7 38  1  0  0  0  0
  8  9  2  0  0  0  0
  8 10  2  0  0  0  0
  8 11  1  0  0  0  0
 11 12  1  0  0  0  0
 11 39  1  0  0  0  0
 12 13  1  0  0  0  0
 12 40  1  0  0  0  0
 12 41  1  0  0  0  0
 13 14  2  0  0  0  0
 13 15  1  0  0  0  0
 15 16  1  0  0  0  0
 15 42  1  0  0  0  0
 16 17  1  0  0  0  0
 16 43  1  0  0  0  0
 16 44  1  0  0  0  0
 17 18  2  0  0  0  0
 17 19  1  0  0  0  0
 19 20  1  0  0  0  0
 19 45  1  0  0  0  0
 20 21  1  0  0  0  0
 20 46  1  0  0  0  0
 20 47  1  0  0  0  0
 21 25  1  0  0  0  0
 21 22  2  0  0  0  0
 22 23  1  0  0  0  0
 22 48  1  0  0  0  0
 23 24  2  0  0  0  0
 23 49  1  0  0  0  0
 24 25  1  0  0  0  0
 24 26  1  0  0  0  0
 26 30  1  0  0  0  0
 26 27  2  0  0  0  0
 27 28  1  0  0  0  0
 27 50  1  0  0  0  0
 28 29  1  0  0  0  0
 29 30  2  0  0  0  0
 29 31  1  0  0  0  0
 31 51  1  0  0  0  0
 31 52  1  0  0  0  0
 31 53  1  0  0  0  0
M  END
> <Name>
ZINC16298324

> <reference>
BDB4972

> <quality>
0.665

> <status>
decoy

> <atoms in reference ligand area>
15

> <score>
-21.6754

$$$$
ZINC29647851
      BALL 1.4.0 (Jan  4 2012, 23:22:29)

 62 63  0999  0  0  0  0  0  0999 V2000
   14.3988    7.7533   -3.1146 C   0  0  0  0  0  0  0  0  0  0  0  0
   14.7829    6.9430   -1.8750 C   0  0  0  0  0  0  0  0  0  0  0  0
   13.6443    6.1220   -1.4560 N   0  0  0  0  0  0  0  0  0  0  0  0
   13.1142    6.2443   -0.0957 C   0  0  0  0  0  0  0  0  0  0  0  0
   13.9164    5.3732    0.8364 C   0  0  0  0  0  0  0  0  0  0  0  0
   13.8890    3.9996    0.6941 C   0  0  0  0  0  0  0  0  0  0  0  0
   14.6254    3.1998    1.5483 C   0  0  0  0  0  0  0  0  0  0  0  0
   15.3916    3.7716    2.5478 C   0  0  0  0  0  0  0  0  0  0  0  0
   15.4273    5.1444    2.6925 C   0  0  0  0  0  0  0  0  0  0  0  0
   14.6847    5.9508    1.8390 C   0  0  0  0  0  0  0  0  0  0  0  0
   14.7151    7.3396    1.9853 N   0  0  0  0  0  0  0  0  0  0  0  0
   13.8957    7.9859    3.0134 C   0  0  0  0  0  0  0  0  0  0  0  0
   13.9161    9.4786    2.8071 C   0  0  0  0  0  0  0  0  0  0  0  0
   14.8039    9.9893    2.1540 O   0  0  0  0  0  0  0  0  0  0  0  0
   12.9039   10.2831    3.3726 C   0  0  0  0  0  0  0  0  0  0  0  0
   12.7008   11.6048    2.9393 C   0  0  0  0  0  0  0  0  0  0  0  0
   11.7081   12.3440    3.5166 N   0  0  0  0  0  0  0  0  0  0  0  0
   10.9331   11.8346    4.4867 C   0  0  0  0  0  0  0  0  0  0  0  0
   10.0664   12.5350    4.9721 O   0  0  0  0  0  0  0  0  0  0  0  0
   11.0768   10.5777    4.9376 N   0  0  0  0  0  0  0  0  0  0  0  0
   12.0285    9.7660    4.4324 C   0  0  0  0  0  0  0  0  0  0  0  0
   12.1593    8.6290    4.8466 O   0  0  0  0  0  0  0  0  0  0  0  0
   10.1923   10.0836    5.9957 C   0  0  0  0  0  0  0  0  0  0  0  0
   11.4888   13.7227    3.0724 C   0  0  0  0  0  0  0  0  0  0  0  0
   10.0109   14.0827    3.2376 C   0  0  0  0  0  0  0  0  0  0  0  0
    9.1448   12.9351    2.7144 C   0  0  0  0  0  0  0  0  0  0  0  0
    9.7043   15.3552    2.4454 C   0  0  0  0  0  0  0  0  0  0  0  0
   13.4802   12.1387    1.9602 N   0  0  0  0  0  0  0  0  0  0  0  0
   13.0843    5.2541   -2.3218 C   0  0  0  0  0  0  0  0  0  0  0  0
   12.6060    5.6573   -3.3607 O   0  0  0  0  0  0  0  0  0  0  0  0
   13.0525    3.7824   -1.9986 C   0  0  0  0  0  0  0  0  0  0  0  0
   14.9428    7.3673   -3.9893 H   0  0  0  0  0  0  0  0  0  0  0  0
   14.6600    8.8103   -2.9584 H   0  0  0  0  0  0  0  0  0  0  0  0
   13.3163    7.6662   -3.2895 H   0  0  0  0  0  0  0  0  0  0  0  0
   15.0603    7.6273   -1.0597 H   0  0  0  0  0  0  0  0  0  0  0  0
   15.6364    6.2911   -2.1129 H   0  0  0  0  0  0  0  0  0  0  0  0
   12.0620    5.9242   -0.0808 H   0  0  0  0  0  0  0  0  0  0  0  0
   13.1833    7.2920    0.2321 H   0  0  0  0  0  0  0  0  0  0  0  0
   13.2805    3.5415   -0.0996 H   0  0  0  0  0  0  0  0  0  0  0  0
   14.6019    2.1061    1.4327 H   0  0  0  0  0  0  0  0  0  0  0  0
   15.9731    3.1322    3.2282 H   0  0  0  0  0  0  0  0  0  0  0  0
   16.0430    5.5990    3.4826 H   0  0  0  0  0  0  0  0  0  0  0  0
   15.3137    7.9092    1.3704 H   0  0  0  0  0  0  0  0  0  0  0  0
   14.2996    7.7486    4.0087 H   0  0  0  0  0  0  0  0  0  0  0  0
   12.8607    7.6204    2.9410 H   0  0  0  0  0  0  0  0  0  0  0  0
    9.3028    9.6998    5.4747 H   0  0  0  0  0  0  0  0  0  0  0  0
    9.8834   10.9780    6.5568 H   0  0  0  0  0  0  0  0  0  0  0  0
   10.6573    9.3250    6.6423 H   0  0  0  0  0  0  0  0  0  0  0  0
   12.1020   14.4054    3.6789 H   0  0  0  0  0  0  0  0  0  0  0  0
   11.7724   13.8175    2.0139 H   0  0  0  0  0  0  0  0  0  0  0  0
    9.7914   14.2518    4.3022 H   0  0  0  0  0  0  0  0  0  0  0  0
    9.7396   12.3049    2.0370 H   0  0  0  0  0  0  0  0  0  0  0  0
    8.2814   13.3448    2.1697 H   0  0  0  0  0  0  0  0  0  0  0  0
    8.7890   12.3283    3.5602 H   0  0  0  0  0  0  0  0  0  0  0  0
   10.3703   15.4139    1.5719 H   0  0  0  0  0  0  0  0  0  0  0  0
    9.8631   16.2348    3.0865 H   0  0  0  0  0  0  0  0  0  0  0  0
    8.6580   15.3339    2.1066 H   0  0  0  0  0  0  0  0  0  0  0  0
   13.9232   13.0571    2.1066 H   0  0  0  0  0  0  0  0  0  0  0  0
   13.6273   11.6288    1.0775 H   0  0  0  0  0  0  0  0  0  0  0  0
   14.0960    3.5145   -1.7761 H   0  0  0  0  0  0  0  0  0  0  0  0
   12.7820    3.2867   -2.9427 H   0  0  0  0  0  0  0  0  0  0  0  0
   12.3680    3.5241   -1.1772 H   0  0  0  0  0  0  0  0  0  0  0  0
  1  2  1  0  0  0  0
  1 32  1  0  0  0  0
  1 33  1  0  0  0  0
  1 34  1  0  0  0  0
  2  3  1  0  0  0  0
  2 35  1  0  0  0  0
  2 36  1  0  0  0  0
  3  4  1  0  0  0  0
  3 29  1  0  0  0  0
  4  5  1  0  0  0  0
  4 37  1  0  0  0  0
  4 38  1  0  0  0  0
  5 10  2  0  0  0  0
  5  6  1  0  0  0  0
  6  7  2  0  0  0  0
  6 39  1  0  0  0  0
  7  8  1  0  0  0  0
  7 40  1  0  0  0  0
  8  9  2  0  0  0  0
  8 41  1  0  0  0  0
  9 10  1  0  0  0  0
  9 42  1  0  0  0  0
 10 11  1  0  0  0  0
 11 12  1  0  0  0  0
 11 43  1  0  0  0  0
 12 13  1  0  0  0  0
 12 44  1  0  0  0  0
 12 45  1  0  0  0  0
 13 14  2  0  0  0  0
 13 15  1  0  0  0  0
 15 21  1  0  0  0  0
 15 16  2  0  0  0  0
 16 17  1  0  0  0  0
 16 28  1  0  0  0  0
 17 18  1  0  0  0  0
 17 24  1  0  0  0  0
 18 19  2  0  0  0  0
 18 20  1  0  0  0  0
 20 21  1  0  0  0  0
 20 23  1  0  0  0  0
 21 22  2  0  0  0  0
 23 46  1  0  0  0  0
 23 47  1  0  0  0  0
 23 48  1  0  0  0  0
 24 25  1  0  0  0  0
 24 49  1  0  0  0  0
 24 50  1  0  0  0  0
 25 26  1  0  0  0  0
 25 27  1  0  0  0  0
 25 51  1  0  0  0  0
 26 52  1  0  0  0  0
 26 53  1  0  0  0  0
 26 54  1  0  0  0  0
 27 55  1  0  0  0  0
 27 56  1  0  0  0  0
 27 57  1  0  0  0  0
 28 58  1  0  0  0  0
 28 59  1  0  0  0  0
 29 30  2  0  0  0  0
 29 31  1  0  0  0  0
 31 60  1  0  0  0  0
 31 61  1  0  0  0  0
 31 62  1  0  0  0  0
M  END
> <Name>
ZINC29647851

> <reference>
BDB4946

> <quality>
0.749

> <status>
decoy

> <atoms in reference ligand area>
11

> <score>
-21.5418

$$$$
ZINC27249941
      BALL 1.4.0 (Jan  4 2012, 23:22:29)

 59 61  0999  0  0  0  0  0  0999 V2000
   13.0894    9.3827    4.4315 C   0  0  0  0  0  0  0  0  0  0  0  0
   12.8975    7.8701    4.5581 C   0  0  0  0  0  0  0  0  0  0  0  0
   11.6546    7.5946    5.2831 N   0  0  0  0  0  0  0  0  0  0  0  0
   11.5183    7.4539    6.6497 C   0  0  0  0  0  0  0  0  0  0  0  0
   12.4002    7.5123    7.7203 C   0  0  0  0  0  0  0  0  0  0  0  0
   11.9324    7.3151    9.0019 C   0  0  0  0  0  0  0  0  0  0  0  0
   10.5874    7.0587    9.2279 C   0  0  0  0  0  0  0  0  0  0  0  0
    9.7051    6.9980    8.1868 C   0  0  0  0  0  0  0  0  0  0  0  0
   10.1566    7.1946    6.8790 C   0  0  0  0  0  0  0  0  0  0  0  0
    9.5442    7.1962    5.6672 N   0  0  0  0  0  0  0  0  0  0  0  0
   10.4200    7.4334    4.7347 C   0  0  0  0  0  0  0  0  0  0  0  0
   10.1129    7.5119    3.2615 C   0  0  0  0  0  0  0  0  0  0  0  0
    8.5967    7.5206    3.0564 C   0  0  0  0  0  0  0  0  0  0  0  0
    8.1621    8.8825    2.5796 C   0  0  0  0  0  0  0  0  0  0  0  0
    7.0286    9.0532    2.1834 O   0  0  0  0  0  0  0  0  0  0  0  0
    9.0331    9.9109    2.5934 N   0  0  0  0  0  0  0  0  0  0  0  0
    8.6647   11.1474    2.0511 C   0  0  0  0  0  0  0  0  0  0  0  0
    7.7632   11.2019    0.9946 C   0  0  0  0  0  0  0  0  0  0  0  0
    7.3960   12.4204    0.4554 C   0  0  0  0  0  0  0  0  0  0  0  0
    7.9219   13.5913    0.9628 C   0  0  0  0  0  0  0  0  0  0  0  0
    8.8275   13.5473    2.0239 C   0  0  0  0  0  0  0  0  0  0  0  0
    9.1943   12.3178    2.5712 C   0  0  0  0  0  0  0  0  0  0  0  0
   10.1675   12.2618    3.7205 C   0  0  0  0  0  0  0  0  0  0  0  0
    9.3920   14.8002    2.5698 C   0  0  0  0  0  0  0  0  0  0  0  0
   10.2728   14.7562    3.4063 O   0  0  0  0  0  0  0  0  0  0  0  0
    8.9299   15.9911    2.1399 N   0  0  0  0  0  0  0  0  0  0  0  0
   10.0118    6.8092   10.8744 S   0  0  0  0  0  0  0  0  0  0  0  0
    8.8167    6.0468   10.7758 O   0  0  0  0  0  0  0  0  0  0  0  0
   11.1313    6.3758   11.6347 O   0  0  0  0  0  0  0  0  0  0  0  0
    9.5794    8.2920   11.4718 N   0  0  0  0  0  0  0  0  0  0  0  0
   10.2436    8.8232   12.6646 C   0  0  0  0  0  0  0  0  0  0  0  0
    8.5327    9.0725   10.8073 C   0  0  0  0  0  0  0  0  0  0  0  0
   13.4799    9.6213    3.4312 H   0  0  0  0  0  0  0  0  0  0  0  0
   13.8023    9.7280    5.1947 H   0  0  0  0  0  0  0  0  0  0  0  0
   12.1239    9.8890    4.5773 H   0  0  0  0  0  0  0  0  0  0  0  0
   13.7457    7.4364    5.1081 H   0  0  0  0  0  0  0  0  0  0  0  0
   12.8432    7.4219    3.5550 H   0  0  0  0  0  0  0  0  0  0  0  0
   13.4674    7.7150    7.5468 H   0  0  0  0  0  0  0  0  0  0  0  0
   12.6299    7.3614    9.8512 H   0  0  0  0  0  0  0  0  0  0  0  0
    8.6410    6.7947    8.3775 H   0  0  0  0  0  0  0  0  0  0  0  0
   10.5438    8.4346    2.8456 H   0  0  0  0  0  0  0  0  0  0  0  0
   10.5466    6.6409    2.7484 H   0  0  0  0  0  0  0  0  0  0  0  0
    8.0955    7.2888    4.0077 H   0  0  0  0  0  0  0  0  0  0  0  0
    8.3239    6.7653    2.3047 H   0  0  0  0  0  0  0  0  0  0  0  0
    9.9699    9.7869    3.0031 H   0  0  0  0  0  0  0  0  0  0  0  0
    7.3406   10.2720    0.5861 H   0  0  0  0  0  0  0  0  0  0  0  0
    6.6824   12.4572   -0.3810 H   0  0  0  0  0  0  0  0  0  0  0  0
    7.6272   14.5591    0.5309 H   0  0  0  0  0  0  0  0  0  0  0  0
    9.5494   12.3777    4.6230 H   0  0  0  0  0  0  0  0  0  0  0  0
   10.7750   13.1738    3.6240 H   0  0  0  0  0  0  0  0  0  0  0  0
   10.7794   11.3480    3.7430 H   0  0  0  0  0  0  0  0  0  0  0  0
    9.4988   16.8403    2.2661 H   0  0  0  0  0  0  0  0  0  0  0  0
    8.0077   16.0519    1.6852 H   0  0  0  0  0  0  0  0  0  0  0  0
    9.4226    9.2030   13.2904 H   0  0  0  0  0  0  0  0  0  0  0  0
   10.7940    9.7045   12.3034 H   0  0  0  0  0  0  0  0  0  0  0  0
   10.8878    8.1069   13.1957 H   0  0  0  0  0  0  0  0  0  0  0  0
    9.0787    9.7366   10.1211 H   0  0  0  0  0  0  0  0  0  0  0  0
    8.1220    9.7137   11.6011 H   0  0  0  0  0  0  0  0  0  0  0  0
    7.7605    8.4765   10.2989 H   0  0  0  0  0  0  0  0  0  0  0  0
  1  2  1  0  0  0  0
  1 33  1  0  0  0  0
  1 34  1  0  0  0  0
  1 35  1  0  0  0  0
  2  3  1  0  0  0  0
  2 36  1  0  0  0  0
  2 37  1  0  0  0  0
  3 11  1  0  0  0  0
  3  4  1  0  0  0  0
  4  9  1  0  0  0  0
  4  5  2  0  0  0  0
  5  6  1  0  0  0  0
  5 38  1  0  0  0  0
  6  7  2  0  0  0  0
  6 39  1  0  0  0  0
  7  8  1  0  0  0  0
  7 27  1  0  0  0  0
  8  9  2  0  0  0  0
  8 40  1  0  0  0  0
  9 10  1  0  0  0  0
 10 11  2  0  0  0  0
 11 12  1  0  0  0  0
 12 13  1  0  0  0  0
 12 41  1  0  0  0  0
 12 42  1  0  0  0  0
 13 14  1  0  0  0  0
 13 43  1  0  0  0  0
 13 44  1  0  0  0  0
 14 15  2  0  0  0  0
 14 16  1  0  0  0  0
 16 17  1  0  0  0  0
 16 45  1  0  0  0  0
 17 22  2  0  0  0  0
 17 18  1  0  0  0  0
 18 19  2  0  0  0  0
 18 46  1  0  0  0  0
 19 20  1  0  0  0  0
 19 47  1  0  0  0  0
 20 21  2  0  0  0  0
 20 48  1  0  0  0  0
 21 22  1  0  0  0  0
 21 24  1  0  0  0  0
 22 23  1  0  0  0  0
 23 49  1  0  0  0  0
 23 50  1  0  0  0  0
 23 51  1  0  0  0  0
 24 25  2  0  0  0  0
 24 26  1  0  0  0  0
 26 52  1  0  0  0  0
 26 53  1  0  0  0  0
 27 28  2  0  0  0  0
 27 29  2  0  0  0  0
 27 30  1  0  0  0  0
 30 31  1  0  0  0  0
 30 32  1  0  0  0  0
 31 54  1  0  0  0  0
 31 55  1  0  0  0  0
 31 56  1  0  0  0  0
 32 57  1  0  0  0  0
 32 58  1  0  0  0  0
 32 59  1  0  0  0  0
M  END
> <Name>
ZINC27249941

> <reference>
BDB4968

> <quality>
0.739

> <status>
decoy

> <atoms in reference ligand area>
13

> <score>
-21.4858

$$$$
ZINC21981399
      BALL 1.4.0 (Jan  4 2012, 23:22:29)

 46 47  0999  0  0  0  0  0  0999 V2000
   14.9884   11.6718    4.8999 C   0  0  0  0  0  0  0  0  0  0  0  0
   14.0910   11.4802    3.6757 C   0  0  0  0  0  0  0  0  0  0  0  0
   13.1667   10.2824    3.9034 C   0  0  0  0  0  0  0  0  0  0  0  0
   13.2498   12.7394    3.4578 C   0  0  0  0  0  0  0  0  0  0  0  0
   12.5521   12.6531    2.1248 C   0  0  0  0  0  0  0  0  0  0  0  0
   13.0009   13.2404    1.1690 O   0  0  0  0  0  0  0  0  0  0  0  0
   11.4322   11.9239    1.9994 O   0  0  0  0  0  0  0  0  0  0  0  0
   11.0609   11.5117    0.6576 C   0  0  0  0  0  0  0  0  0  0  0  0
    9.6516   10.9162    0.6788 C   0  0  0  0  0  0  0  0  0  0  0  0
    8.7453   11.8577    1.2571 O   0  0  0  0  0  0  0  0  0  0  0  0
    7.3941   11.3976    1.3246 C   0  0  0  0  0  0  0  0  0  0  0  0
    7.2382   10.5079    2.4780 N   0  0  0  0  0  0  0  0  0  0  0  0
    8.0934   10.3339    3.5632 C   0  0  0  0  0  0  0  0  0  0  0  0
    7.9962    9.1371    4.0884 N   0  0  0  0  0  0  0  0  0  0  0  0
    7.0267    8.4008    3.3025 C   0  0  0  0  0  0  0  0  0  0  0  0
    6.1484    9.5843    2.7748 C   0  0  0  0  0  0  0  0  0  0  0  0
    5.3415    9.0230    1.7161 N   0  0  0  0  0  0  0  0  0  0  0  0
    4.7546    7.8752    2.0003 C   0  0  0  0  0  0  0  0  0  0  0  0
    4.9052    7.2827    3.2450 N   0  0  0  0  0  0  0  0  0  0  0  0
    6.0662    7.4628    3.9497 C   0  0  0  0  0  0  0  0  0  0  0  0
    6.2922    6.9086    5.0042 O   0  0  0  0  0  0  0  0  0  0  0  0
    3.9811    7.2573    1.0469 N   0  0  0  0  0  0  0  0  0  0  0  0
   14.1225   13.9209    3.4782 N   0  3  0  0  0  0  0  0  0  0  0  0
   14.4274   12.1942    5.6889 H   0  0  0  0  0  0  0  0  0  0  0  0
   15.8691   12.2688    4.6205 H   0  0  0  0  0  0  0  0  0  0  0  0
   15.3156   10.6900    5.2729 H   0  0  0  0  0  0  0  0  0  0  0  0
   14.7153   11.2982    2.7885 H   0  0  0  0  0  0  0  0  0  0  0  0
   13.7706    9.3765    4.0603 H   0  0  0  0  0  0  0  0  0  0  0  0
   12.5208   10.1440    3.0237 H   0  0  0  0  0  0  0  0  0  0  0  0
   12.5421   10.4637    4.7905 H   0  0  0  0  0  0  0  0  0  0  0  0
   12.5006   12.8232    4.2589 H   0  0  0  0  0  0  0  0  0  0  0  0
   11.7723   10.7551    0.2951 H   0  0  0  0  0  0  0  0  0  0  0  0
   11.0798   12.3838   -0.0125 H   0  0  0  0  0  0  0  0  0  0  0  0
    9.3348   10.6870   -0.3494 H   0  0  0  0  0  0  0  0  0  0  0  0
    9.6514    9.9931    1.2770 H   0  0  0  0  0  0  0  0  0  0  0  0
    6.7183   12.2588    1.4326 H   0  0  0  0  0  0  0  0  0  0  0  0
    7.1456   10.8497    0.4037 H   0  0  0  0  0  0  0  0  0  0  0  0
    8.7738   11.1130    3.9373 H   0  0  0  0  0  0  0  0  0  0  0  0
    7.5895    7.7350    2.6317 H   0  0  0  0  0  0  0  0  0  0  0  0
    5.3903   10.1018    3.3810 H   0  0  0  0  0  0  0  0  0  0  0  0
    4.1461    6.7086    3.6387 H   0  0  0  0  0  0  0  0  0  0  0  0
    4.0157    6.2345    0.9305 H   0  0  0  0  0  0  0  0  0  0  0  0
    3.3635    7.8214    0.4458 H   0  0  0  0  0  0  0  0  0  0  0  0
   13.5463   14.7744    3.5006 H   0  0  0  0  0  0  0  0  0  0  0  0
   14.7125   13.9277    2.6339 H   0  0  0  0  0  0  0  0  0  0  0  0
   14.7225   13.8909    4.3149 H   0  0  0  0  0  0  0  0  0  0  0  0
  1  2  1  0  0  0  0
  1 24  1  0  0  0  0
  1 25  1  0  0  0  0
  1 26  1  0  0  0  0
  2  3  1  0  0  0  0
  2  4  1  0  0  0  0
  2 27  1  0  0  0  0
  3 28  1  0  0  0  0
  3 29  1  0  0  0  0
  3 30  1  0  0  0  0
  4  5  1  0  0  0  0
  4 23  1  0  0  0  0
  4 31  1  0  0  0  0
  5  6  2  0  0  0  0
  5  7  1  0  0  0  0
  7  8  1  0  0  0  0
  8  9  1  0  0  0  0
  8 32  1  0  0  0  0
  8 33  1  0  0  0  0
  9 10  1  0  0  0  0
  9 34  1  0  0  0  0
  9 35  1  0  0  0  0
 10 11  1  0  0  0  0
 11 12  1  0  0  0  0
 11 36  1  0  0  0  0
 11 37  1  0  0  0  0
 12 16  1  0  0  0  0
 12 13  1  0  0  0  0
 13 14  2  0  0  0  0
 13 38  1  0  0  0  0
 14 15  1  0  0  0  0
 15 20  1  0  0  0  0
 15 16  1  0  0  0  0
 15 39  1  0  0  0  0
 16 17  1  0  0  0  0
 16 40  1  0  0  0  0
 17 18  2  0  0  0  0
 18 19  1  0  0  0  0
 18 22  1  0  0  0  0
 19 20  1  0  0  0  0
 19 41  1  0  0  0  0
 20 21  2  0  0  0  0
 22 42  1  0  0  0  0
 22 43  1  0  0  0  0
 23 44  1  0  0  0  0
 23 45  1  0  0  0  0
 23 46  1  0  0  0  0
M  END
> <Name>
ZINC21981399

> <reference>
BDB5024

> <quality>
0.762

> <status>
decoy

> <atoms in reference ligand area>
13

> <score>
-21.4678

$$$$
ZINC04661650
      BALL 1.4.0 (Jan  4 2012, 23:22:29)

 54 56  0999  0  0  0  0  0  0999 V2000
   13.0975   11.0085    2.6076 C   0  0  0  0  0  0  0  0  0  0  0  0
   14.2622   11.0619    3.3470 C   0  0  0  0  0  0  0  0  0  0  0  0
   14.4333   10.2160    4.4351 C   0  0  0  0  0  0  0  0  0  0  0  0
   13.4322    9.3169    4.7798 C   0  0  0  0  0  0  0  0  0  0  0  0
   12.2679    9.2634    4.0397 C   0  0  0  0  0  0  0  0  0  0  0  0
   12.0973   10.1090    2.9517 C   0  0  0  0  0  0  0  0  0  0  0  0
   10.9150   10.0548    2.2009 N   0  0  0  0  0  0  0  0  0  0  0  0
   10.5148   11.1312    1.4955 C   0  0  0  0  0  0  0  0  0  0  0  0
   11.1314   12.1727    1.5760 O   0  0  0  0  0  0  0  0  0  0  0  0
    9.3012   11.0410    0.6067 C   0  0  0  0  0  0  0  0  0  0  0  0
    8.0411   10.9237    1.4669 C   0  0  0  0  0  0  0  0  0  0  0  0
    6.8168   11.0989    0.6169 C   0  0  0  0  0  0  0  0  0  0  0  0
    6.8247   11.6222   -0.5669 C   0  0  0  0  0  0  0  0  0  0  0  0
    8.0606   12.1173   -1.2592 C   0  0  0  0  0  0  0  0  0  0  0  0
    9.1904   12.3117   -0.2453 C   0  0  0  0  0  0  0  0  0  0  0  0
   10.4887   12.5484   -0.9731 C   0  0  0  0  0  0  0  0  0  0  0  0
   11.5310   12.1823   -0.4838 O   0  0  0  0  0  0  0  0  0  0  0  0
   15.6135   10.2697    5.1843 N   0  0  0  0  0  0  0  0  0  0  0  0
   15.9785    8.9383    5.6881 C   0  0  0  0  0  0  0  0  0  0  0  0
   17.3127    9.0257    6.4327 C   0  0  0  0  0  0  0  0  0  0  0  0
   16.8278   11.3199    7.0326 C   0  0  0  0  0  0  0  0  0  0  0  0
   15.4934   11.2325    6.2880 C   0  0  0  0  0  0  0  0  0  0  0  0
   18.4320   10.0448    8.3230 C   0  0  0  0  0  0  0  0  0  0  0  0
   18.2673   11.0681    9.4485 C   0  0  0  0  0  0  0  0  0  0  0  0
   17.8396   10.4025   10.6386 O   0  0  0  0  0  0  0  0  0  0  0  0
   10.4871   13.1660   -2.1648 O   0  5  0  0  0  0  0  0  0  0  0  0
   17.1717    9.9799    7.5527 N   0  3  0  0  0  0  0  0  0  0  0  0
   12.9620   11.6785    1.7458 H   0  0  0  0  0  0  0  0  0  0  0  0
   15.0546   11.7745    3.0744 H   0  0  0  0  0  0  0  0  0  0  0  0
   13.5671    8.6476    5.6423 H   0  0  0  0  0  0  0  0  0  0  0  0
   11.4754    8.5509    4.3121 H   0  0  0  0  0  0  0  0  0  0  0  0
   10.3521    9.1924    2.1882 H   0  0  0  0  0  0  0  0  0  0  0  0
    9.3996   10.1582   -0.0422 H   0  0  0  0  0  0  0  0  0  0  0  0
    8.0151    9.9325    1.9432 H   0  0  0  0  0  0  0  0  0  0  0  0
    8.0569   11.6990    2.2471 H   0  0  0  0  0  0  0  0  0  0  0  0
    5.8528   10.7618    1.0254 H   0  0  0  0  0  0  0  0  0  0  0  0
    5.8656   11.7095   -1.0986 H   0  0  0  0  0  0  0  0  0  0  0  0
    7.8446   13.0766   -1.7523 H   0  0  0  0  0  0  0  0  0  0  0  0
    8.3732   11.3838   -2.0171 H   0  0  0  0  0  0  0  0  0  0  0  0
    8.9778   13.1797    0.3960 H   0  0  0  0  0  0  0  0  0  0  0  0
   16.0752    8.2393    4.8444 H   0  0  0  0  0  0  0  0  0  0  0  0
   15.1982    8.5793    6.3754 H   0  0  0  0  0  0  0  0  0  0  0  0
   17.5807    8.0339    6.8259 H   0  0  0  0  0  0  0  0  0  0  0  0
   18.0965    9.3779    5.7460 H   0  0  0  0  0  0  0  0  0  0  0  0
   16.7378   12.0274    7.8700 H   0  0  0  0  0  0  0  0  0  0  0  0
   17.6136   11.6592    6.3417 H   0  0  0  0  0  0  0  0  0  0  0  0
   15.2332   12.2224    5.8850 H   0  0  0  0  0  0  0  0  0  0  0  0
   14.7077   10.9002    6.9825 H   0  0  0  0  0  0  0  0  0  0  0  0
   19.2532   10.3551    7.6601 H   0  0  0  0  0  0  0  0  0  0  0  0
   18.6525    9.0561    8.7519 H   0  0  0  0  0  0  0  0  0  0  0  0
   19.2297   11.5675    9.6340 H   0  0  0  0  0  0  0  0  0  0  0  0
   17.5157   11.8168    9.1578 H   0  0  0  0  0  0  0  0  0  0  0  0
   16.9013   10.6484   10.8363 H   0  0  0  0  0  0  0  0  0  0  0  0
   16.4163    9.6578    8.1744 H   0  0  0  0  0  0  0  0  0  0  0  0
  1  6  2  0  0  0  0
  1  2  1  0  0  0  0
  1 28  1  0  0  0  0
  2  3  2  0  0  0  0
  2 29  1  0  0  0  0
  3  4  1  0  0  0  0
  3 18  1  0  0  0  0
  4  5  2  0  0  0  0
  4 30  1  0  0  0  0
  5  6  1  0  0  0  0
  5 31  1  0  0  0  0
  6  7  1  0  0  0  0
  7  8  1  0  0  0  0
  7 32  1  0  0  0  0
  8  9  2  0  0  0  0
  8 10  1  0  0  0  0
 10 15  1  0  0  0  0
 10 11  1  0  0  0  0
 10 33  1  0  0  0  0
 11 12  1  0  0  0  0
 11 34  1  0  0  0  0
 11 35  1  0  0  0  0
 12 13  2  0  0  0  0
 12 36  1  0  0  0  0
 13 14  1  0  0  0  0
 13 37  1  0  0  0  0
 14 15  1  0  0  0  0
 14 38  1  0  0  0  0
 14 39  1  0  0  0  0
 15 16  1  0  0  0  0
 15 40  1  0  0  0  0
 16 17  2  0  0  0  0
 16 26  1  0  0  0  0
 18 22  1  0  0  0  0
 18 19  1  0  0  0  0
 19 20  1  0  0  0  0
 19 41  1  0  0  0  0
 19 42  1  0  0  0  0
 20 27  1  0  0  0  0
 20 43  1  0  0  0  0
 20 44  1  0  0  0  0
 21 22  1  0  0  0  0
 21 27  1  0  0  0  0
 21 45  1  0  0  0  0
 21 46  1  0  0  0  0
 22 47  1  0  0  0  0
 22 48  1  0  0  0  0
 23 24  1  0  0  0  0
 23 27  1  0  0  0  0
 23 49  1  0  0  0  0
 23 50  1  0  0  0  0
 24 25  1  0  0  0  0
 24 51  1  0  0  0  0
 24 52  1  0  0  0  0
 25 53  1  0  0  0  0
 27 54  1  0  0  0  0
M  END
> <Name>
ZINC04661650

> <reference>
BDB4952

> <quality>
0.697

> <status>
decoy

> <atoms in reference ligand area>
17

> <score>
-21.4556

$$$$
ZINC05887406
      BALL 1.4.0 (Jan  4 2012, 23:22:29)

 64 64  0999  0  0  0  0  0  0999 V2000
   12.0159    7.8638    6.7835 C   0  0  0  0  0  0  0  0  0  0  0  0
   10.7438    8.1581    5.9859 C   0  0  0  0  0  0  0  0  0  0  0  0
    9.8607    9.1278    6.7738 C   0  0  0  0  0  0  0  0  0  0  0  0
   11.1184    8.7865    4.6422 C   0  0  0  0  0  0  0  0  0  0  0  0
   10.4635    7.9945    3.5086 C   0  0  0  0  0  0  0  0  0  0  0  0
   10.7310    8.6960    2.1755 C   0  0  0  0  0  0  0  0  0  0  0  0
   10.6128   10.2098    2.3631 C   0  0  0  0  0  0  0  0  0  0  0  0
   10.2654   10.8640    1.0243 C   0  0  0  0  0  0  0  0  0  0  0  0
    8.7546   10.7861    0.7955 C   0  0  0  0  0  0  0  0  0  0  0  0
    8.4548   11.1815   -0.5445 O   0  0  0  0  0  0  0  0  0  0  0  0
   12.1196    8.3559    1.6987 C   0  0  0  0  0  0  0  0  0  0  0  0
   12.9992    8.1324    2.5032 O   0  0  0  0  0  0  0  0  0  0  0  0
   12.3839    8.3000    0.3784 N   0  0  0  0  0  0  0  0  0  0  0  0
   13.6586    7.8782   -0.0713 O   0  0  0  0  0  0  0  0  0  0  0  0
    8.9772    7.9150    3.7450 C   0  0  0  0  0  0  0  0  0  0  0  0
    8.2752    8.8787    3.5218 O   0  0  0  0  0  0  0  0  0  0  0  0
    8.4279    6.7731    4.2042 N   0  0  0  0  0  0  0  0  0  0  0  0
    7.0364    6.6644    4.3254 C   0  0  0  0  0  0  0  0  0  0  0  0
    6.5937    6.5878    5.5520 C   0  0  0  0  0  0  0  0  0  0  0  0
    5.1763    6.4958    5.9810 C   0  0  0  0  0  0  0  0  0  0  0  0
    4.3097    5.6849    5.0536 C   0  0  0  0  0  0  0  0  0  0  0  0
    3.9511    6.4097    3.7825 C   0  0  0  0  0  0  0  0  0  0  0  0
    5.0324    6.4906    2.8325 N   0  0  0  0  0  0  0  0  0  0  0  0
    6.3144    6.6552    3.0757 C   0  0  0  0  0  0  0  0  0  0  0  0
    7.0025    6.8271    2.0882 O   0  0  0  0  0  0  0  0  0  0  0  0
    4.6567    6.3748    1.4212 C   0  0  0  0  0  0  0  0  0  0  0  0
    4.3555    7.7651    0.8578 C   0  0  0  0  0  0  0  0  0  0  0  0
    5.2264    8.7231    1.4626 O   0  0  0  0  0  0  0  0  0  0  0  0
    5.3592    9.9375    0.7213 C   0  0  0  0  0  0  0  0  0  0  0  0
   11.9146    8.2706    7.8005 H   0  0  0  0  0  0  0  0  0  0  0  0
   12.8784    8.3319    6.2863 H   0  0  0  0  0  0  0  0  0  0  0  0
   12.1717    6.7762    6.8385 H   0  0  0  0  0  0  0  0  0  0  0  0
   10.1949    7.2208    5.8121 H   0  0  0  0  0  0  0  0  0  0  0  0
    9.7386    8.7603    7.8034 H   0  0  0  0  0  0  0  0  0  0  0  0
    8.8747    9.2014    6.2920 H   0  0  0  0  0  0  0  0  0  0  0  0
   10.3328   10.1211    6.7938 H   0  0  0  0  0  0  0  0  0  0  0  0
   10.7651    9.8278    4.6129 H   0  0  0  0  0  0  0  0  0  0  0  0
   12.2112    8.7664    4.5186 H   0  0  0  0  0  0  0  0  0  0  0  0
   10.8850    6.9789    3.4797 H   0  0  0  0  0  0  0  0  0  0  0  0
    9.9949    8.3602    1.4302 H   0  0  0  0  0  0  0  0  0  0  0  0
    9.8201   10.4281    3.0939 H   0  0  0  0  0  0  0  0  0  0  0  0
   11.5695   10.6109    2.7291 H   0  0  0  0  0  0  0  0  0  0  0  0
   10.5797   11.9181    1.0386 H   0  0  0  0  0  0  0  0  0  0  0  0
   10.7862   10.3370    0.2113 H   0  0  0  0  0  0  0  0  0  0  0  0
    8.2410   11.4579    1.4989 H   0  0  0  0  0  0  0  0  0  0  0  0
    8.4118    9.7535    0.9580 H   0  0  0  0  0  0  0  0  0  0  0  0
    8.7785   10.4894   -1.1741 H   0  0  0  0  0  0  0  0  0  0  0  0
   11.6586    8.5642   -0.3036 H   0  0  0  0  0  0  0  0  0  0  0  0
   14.1238    8.7091   -0.3425 H   0  0  0  0  0  0  0  0  0  0  0  0
    9.0312    5.9804    4.4661 H   0  0  0  0  0  0  0  0  0  0  0  0
    7.3506    6.5919    6.3501 H   0  0  0  0  0  0  0  0  0  0  0  0
    5.1379    6.0472    6.9847 H   0  0  0  0  0  0  0  0  0  0  0  0
    4.7609    7.5116    6.0563 H   0  0  0  0  0  0  0  0  0  0  0  0
    3.3834    5.4100    5.5793 H   0  0  0  0  0  0  0  0  0  0  0  0
    4.8369    4.7545    4.7958 H   0  0  0  0  0  0  0  0  0  0  0  0
    3.1017    5.8967    3.3079 H   0  0  0  0  0  0  0  0  0  0  0  0
    3.6247    7.4298    4.0334 H   0  0  0  0  0  0  0  0  0  0  0  0
    3.7623    5.7412    1.3295 H   0  0  0  0  0  0  0  0  0  0  0  0
    5.4858    5.9228    0.8568 H   0  0  0  0  0  0  0  0  0  0  0  0
    4.5141    7.7620   -0.2306 H   0  0  0  0  0  0  0  0  0  0  0  0
    3.3107    8.0316    1.0754 H   0  0  0  0  0  0  0  0  0  0  0  0
    6.3874    9.9778    0.3325 H   0  0  0  0  0  0  0  0  0  0  0  0
    5.2200   10.7720    1.4243 H   0  0  0  0  0  0  0  0  0  0  0  0
    4.6287    9.9920   -0.0994 H   0  0  0  0  0  0  0  0  0  0  0  0
  1  2  1  0  0  0  0
  1 30  1  0  0  0  0
  1 31  1  0  0  0  0
  1 32  1  0  0  0  0
  2  3  1  0  0  0  0
  2  4  1  0  0  0  0
  2 33  1  0  0  0  0
  3 34  1  0  0  0  0
  3 35  1  0  0  0  0
  3 36  1  0  0  0  0
  4  5  1  0  0  0  0
  4 37  1  0  0  0  0
  4 38  1  0  0  0  0
  5  6  1  0  0  0  0
  5 15  1  0  0  0  0
  5 39  1  0  0  0  0
  6  7  1  0  0  0  0
  6 11  1  0  0  0  0
  6 40  1  0  0  0  0
  7  8  1  0  0  0  0
  7 41  1  0  0  0  0
  7 42  1  0  0  0  0
  8  9  1  0  0  0  0
  8 43  1  0  0  0  0
  8 44  1  0  0  0  0
  9 10  1  0  0  0  0
  9 45  1  0  0  0  0
  9 46  1  0  0  0  0
 10 47  1  0  0  0  0
 11 12  2  0  0  0  0
 11 13  1  0  0  0  0
 13 14  1  0  0  0  0
 13 48  1  0  0  0  0
 14 49  1  0  0  0  0
 15 16  2  0  0  0  0
 15 17  1  0  0  0  0
 17 18  1  0  0  0  0
 17 50  1  0  0  0  0
 18 24  1  0  0  0  0
 18 19  2  0  0  0  0
 19 20  1  0  0  0  0
 19 51  1  0  0  0  0
 20 21  1  0  0  0  0
 20 52  1  0  0  0  0
 20 53  1  0  0  0  0
 21 22  1  0  0  0  0
 21 54  1  0  0  0  0
 21 55  1  0  0  0  0
 22 23  1  0  0  0  0
 22 56  1  0  0  0  0
 22 57  1  0  0  0  0
 23 24  1  0  0  0  0
 23 26  1  0  0  0  0
 24 25  2  0  0  0  0
 26 27  1  0  0  0  0
 26 58  1  0  0  0  0
 26 59  1  0  0  0  0
 27 28  1  0  0  0  0
 27 60  1  0  0  0  0
 27 61  1  0  0  0  0
 28 29  1  0  0  0  0
 29 62  1  0  0  0  0
 29 63  1  0  0  0  0
 29 64  1  0  0  0  0
M  END
> <Name>
ZINC05887406

> <reference>
BDB4948

> <quality>
0.748

> <status>
decoy

> <atoms in reference ligand area>
10

> <score>
-21.4444

$$$$
ZINC00016244
      BALL 1.4.0 (Jan  4 2012, 23:22:29)

 44 45  0999  0  0  0  0  0  0999 V2000
   15.2085    7.3183    5.7165 C   0  0  0  0  0  0  0  0  0  0  0  0
   14.8463    8.4505    4.8602 N   0  0  0  0  0  0  0  0  0  0  0  0
   14.0200    8.2339    3.6701 C   0  0  0  0  0  0  0  0  0  0  0  0
   12.5946    7.8776    4.0968 C   0  0  0  0  0  0  0  0  0  0  0  0
   11.6505    8.9645    3.6514 C   0  0  0  0  0  0  0  0  0  0  0  0
   11.5363    9.2714    2.3079 C   0  0  0  0  0  0  0  0  0  0  0  0
   10.6680   10.2631    1.8958 C   0  0  0  0  0  0  0  0  0  0  0  0
    9.9172   10.9604    2.8337 C   0  0  0  0  0  0  0  0  0  0  0  0
   10.0386   10.6535    4.1830 C   0  0  0  0  0  0  0  0  0  0  0  0
   10.9046    9.6568    4.5877 C   0  0  0  0  0  0  0  0  0  0  0  0
    9.0418   11.9676    2.4209 N   0  0  0  0  0  0  0  0  0  0  0  0
    8.8229   13.3118    3.3630 S   0  0  0  0  0  0  0  0  0  0  0  0
    7.8809   14.1032    2.6523 O   0  0  0  0  0  0  0  0  0  0  0  0
    8.5148   12.8035    4.6538 O   0  0  0  0  0  0  0  0  0  0  0  0
   10.4397   14.1340    3.3850 C   0  0  0  0  0  0  0  0  0  0  0  0
   12.5402    7.7529    5.5193 O   0  0  0  0  0  0  0  0  0  0  0  0
   15.2868    9.7305    5.1771 C   0  0  0  0  0  0  0  0  0  0  0  0
   15.9756    9.9463    6.3630 C   0  0  0  0  0  0  0  0  0  0  0  0
   16.4153   11.2315    6.6635 C   0  0  0  0  0  0  0  0  0  0  0  0
   16.1327   12.2578    5.7589 C   0  0  0  0  0  0  0  0  0  0  0  0
   15.4387   11.9658    4.6056 C   0  0  0  0  0  0  0  0  0  0  0  0
   17.1142   11.4897    7.8393 N   0  0  0  0  0  0  0  0  0  0  0  0
   14.9997   10.7189    4.2789 N   0  3  0  0  0  0  0  0  0  0  0  0
   14.3477    7.1864    6.3886 H   0  0  0  0  0  0  0  0  0  0  0  0
   16.0425    7.6862    6.3322 H   0  0  0  0  0  0  0  0  0  0  0  0
   15.4615    6.3985    5.1689 H   0  0  0  0  0  0  0  0  0  0  0  0
   14.0022    9.1516    3.0639 H   0  0  0  0  0  0  0  0  0  0  0  0
   14.4407    7.4096    3.0754 H   0  0  0  0  0  0  0  0  0  0  0  0
   12.3006    6.9242    3.6336 H   0  0  0  0  0  0  0  0  0  0  0  0
   12.1379    8.7250    1.5665 H   0  0  0  0  0  0  0  0  0  0  0  0
   10.5710   10.5005    0.8261 H   0  0  0  0  0  0  0  0  0  0  0  0
    9.4456   11.2038    4.9283 H   0  0  0  0  0  0  0  0  0  0  0  0
   11.0012    9.4134    5.6560 H   0  0  0  0  0  0  0  0  0  0  0  0
    8.5325   11.8741    1.5306 H   0  0  0  0  0  0  0  0  0  0  0  0
   11.1199   13.7106    2.6312 H   0  0  0  0  0  0  0  0  0  0  0  0
   10.9006   14.0950    4.3830 H   0  0  0  0  0  0  0  0  0  0  0  0
   10.2811   15.1928    3.1328 H   0  0  0  0  0  0  0  0  0  0  0  0
   12.6456    8.6456    5.9340 H   0  0  0  0  0  0  0  0  0  0  0  0
   16.1708    9.1135    7.0546 H   0  0  0  0  0  0  0  0  0  0  0  0
   16.4608   13.2873    5.9652 H   0  0  0  0  0  0  0  0  0  0  0  0
   15.2264   12.7886    3.9072 H   0  0  0  0  0  0  0  0  0  0  0  0
   17.8080   12.2507    7.8584 H   0  0  0  0  0  0  0  0  0  0  0  0
   16.9405   10.9260    8.6837 H   0  0  0  0  0  0  0  0  0  0  0  0
   14.4828   10.5325    3.4077 H   0  0  0  0  0  0  0  0  0  0  0  0
  1  2  1  0  0  0  0
  1 24  1  0  0  0  0
  1 25  1  0  0  0  0
  1 26  1  0  0  0  0
  2  3  1  0  0  0  0
  2 17  1  0  0  0  0
  3  4  1  0  0  0  0
  3 27  1  0  0  0  0
  3 28  1  0  0  0  0
  4  5  1  0  0  0  0
  4 16  1  0  0  0  0
  4 29  1  0  0  0  0
  5 10  2  0  0  0  0
  5  6  1  0  0  0  0
  6  7  2  0  0  0  0
  6 30  1  0  0  0  0
  7  8  1  0  0  0  0
  7 31  1  0  0  0  0
  8  9  2  0  0  0  0
  8 11  1  0  0  0  0
  9 10  1  0  0  0  0
  9 32  1  0  0  0  0
 10 33  1  0  0  0  0
 11 12  1  0  0  0  0
 11 34  1  0  0  0  0
 12 13  2  0  0  0  0
 12 14  2  0  0  0  0
 12 15  1  0  0  0  0
 15 35  1  0  0  0  0
 15 36  1  0  0  0  0
 15 37  1  0  0  0  0
 16 38  1  0  0  0  0
 17 18  2  0  0  0  0
 17 23  1  0  0  0  0
 18 19  1  0  0  0  0
 18 39  1  0  0  0  0
 19 20  2  0  0  0  0
 19 22  1  0  0  0  0
 20 21  1  0  0  0  0
 20 40  1  0  0  0  0
 21 23  2  0  0  0  0
 21 41  1  0  0  0  0
 22 42  1  0  0  0  0
 22 43  1  0  0  0  0
 23 44  1  0  0  0  0
M  END
> <Name>
ZINC00016244

> <reference>
BDB5200

> <quality>
0.766

> <status>
decoy

> <atoms in reference ligand area>
10

> <score>
-21.2877

$$$$
ZINC29829551
      BALL 1.4.0 (Jan  4 2012, 23:22:29)

 37 39  0999  0  0  0  0  0  0999 V2000
   11.2504   10.4267    4.3905 C   0  0  0  0  0  0  0  0  0  0  0  0
   10.8896   11.2275    3.1660 C   0  0  0  0  0  0  0  0  0  0  0  0
   11.3796   11.0114    1.9143 C   0  0  0  0  0  0  0  0  0  0  0  0
   10.7465   12.0301    1.0609 C   0  0  0  0  0  0  0  0  0  0  0  0
   10.8093   12.3643   -0.3089 C   0  0  0  0  0  0  0  0  0  0  0  0
   11.5197   11.7370   -1.0758 O   0  0  0  0  0  0  0  0  0  0  0  0
   10.0577   13.4010   -0.7459 N   0  0  0  0  0  0  0  0  0  0  0  0
    9.2737   14.0857    0.1233 C   0  0  0  0  0  0  0  0  0  0  0  0
    9.2081   13.7856    1.3900 N   0  0  0  0  0  0  0  0  0  0  0  0
    9.9208   12.7723    1.9059 C   0  0  0  0  0  0  0  0  0  0  0  0
   10.0378   12.2611    3.1426 O   0  0  0  0  0  0  0  0  0  0  0  0
   12.3409    9.9758    1.5009 C   0  0  0  0  0  0  0  0  0  0  0  0
   13.4511    9.9438    1.9969 O   0  0  0  0  0  0  0  0  0  0  0  0
   11.9909    9.0633    0.5729 N   0  0  0  0  0  0  0  0  0  0  0  0
   12.9476    8.0328    0.1615 C   0  0  0  0  0  0  0  0  0  0  0  0
   12.2338    6.9893   -0.7002 C   0  0  0  0  0  0  0  0  0  0  0  0
   13.2215    6.2507   -1.4908 N   0  0  0  0  0  0  0  0  0  0  0  0
   12.8076    5.2440   -2.3553 C   0  0  0  0  0  0  0  0  0  0  0  0
   13.7453    4.5402   -3.1082 C   0  0  0  0  0  0  0  0  0  0  0  0
   13.3480    3.5852   -3.9270 N   0  0  0  0  0  0  0  0  0  0  0  0
   12.0617    3.2957   -4.0335 C   0  0  0  0  0  0  0  0  0  0  0  0
   11.1290    3.9909   -3.2882 C   0  0  0  0  0  0  0  0  0  0  0  0
   11.5192    4.9466   -2.4617 N   0  0  0  0  0  0  0  0  0  0  0  0
   11.5966   11.1962    5.0962 H   0  0  0  0  0  0  0  0  0  0  0  0
   12.1488    9.8779    4.0715 H   0  0  0  0  0  0  0  0  0  0  0  0
   10.4562    9.7810    4.7933 H   0  0  0  0  0  0  0  0  0  0  0  0
   10.0810   13.6703   -1.7398 H   0  0  0  0  0  0  0  0  0  0  0  0
    8.6712   14.9250   -0.2545 H   0  0  0  0  0  0  0  0  0  0  0  0
   11.0508    9.0905    0.1528 H   0  0  0  0  0  0  0  0  0  0  0  0
   13.7579    8.4959   -0.4205 H   0  0  0  0  0  0  0  0  0  0  0  0
   13.3687    7.5450    1.0530 H   0  0  0  0  0  0  0  0  0  0  0  0
   11.6871    6.2895   -0.0511 H   0  0  0  0  0  0  0  0  0  0  0  0
   11.5261    7.4920   -1.3758 H   0  0  0  0  0  0  0  0  0  0  0  0
   14.2226    6.4774   -1.4061 H   0  0  0  0  0  0  0  0  0  0  0  0
   14.8152    4.7804   -3.0199 H   0  0  0  0  0  0  0  0  0  0  0  0
   11.7337    2.4991   -4.7175 H   0  0  0  0  0  0  0  0  0  0  0  0
   10.0601    3.7492   -3.3825 H   0  0  0  0  0  0  0  0  0  0  0  0
  1  2  1  0  0  0  0
  1 24  1  0  0  0  0
  1 25  1  0  0  0  0
  1 26  1  0  0  0  0
  2 11  1  0  0  0  0
  2  3  2  0  0  0  0
  3  4  1  0  0  0  0
  3 12  1  0  0  0  0
  4 10  2  0  0  0  0
  4  5  1  0  0  0  0
  5  6  2  0  0  0  0
  5  7  1  0  0  0  0
  7  8  1  0  0  0  0
  7 27  1  0  0  0  0
  8  9  2  0  0  0  0
  8 28  1  0  0  0  0
  9 10  1  0  0  0  0
 10 11  1  0  0  0  0
 12 13  2  0  0  0  0
 12 14  1  0  0  0  0
 14 15  1  0  0  0  0
 14 29  1  0  0  0  0
 15 16  1  0  0  0  0
 15 30  1  0  0  0  0
 15 31  1  0  0  0  0
 16 17  1  0  0  0  0
 16 32  1  0  0  0  0
 16 33  1  0  0  0  0
 17 18  1  0  0  0  0
 17 34  1  0  0  0  0
 18 23  2  0  0  0  0
 18 19  1  0  0  0  0
 19 20  2  0  0  0  0
 19 35  1  0  0  0  0
 20 21  1  0  0  0  0
 21 22  2  0  0  0  0
 21 36  1  0  0  0  0
 22 23  1  0  0  0  0
 22 37  1  0  0  0  0
M  END
> <Name>
ZINC29829551

> <reference>
BDB4932

> <quality>
0.694

> <status>
decoy

> <atoms in reference ligand area>
12

> <score>
-21.2555

$$$$
ZINC15418382
      BALL 1.4.0 (Jan  4 2012, 23:22:29)

 43 44  0999  0  0  0  0  0  0999 V2000
   13.0878   10.3719    3.9033 C   0  0  0  0  0  0  0  0  0  0  0  0
   12.0458    9.4871    4.3197 O   0  0  0  0  0  0  0  0  0  0  0  0
   10.7689    9.8616    4.0391 C   0  0  0  0  0  0  0  0  0  0  0  0
    9.7295    8.9670    4.2238 C   0  0  0  0  0  0  0  0  0  0  0  0
    8.4205    9.3513    3.9360 C   0  0  0  0  0  0  0  0  0  0  0  0
    8.1617   10.6351    3.4575 C   0  0  0  0  0  0  0  0  0  0  0  0
    9.2028   11.5287    3.2780 C   0  0  0  0  0  0  0  0  0  0  0  0
   10.5083   11.1438    3.5661 C   0  0  0  0  0  0  0  0  0  0  0  0
   11.5311   12.0217    3.3846 O   0  0  0  0  0  0  0  0  0  0  0  0
   11.4827   13.2380    4.1330 C   0  0  0  0  0  0  0  0  0  0  0  0
    8.9503   12.7824    2.8153 O   0  0  0  0  0  0  0  0  0  0  0  0
    7.9219   13.5227    3.4759 C   0  0  0  0  0  0  0  0  0  0  0  0
    7.3061    8.3943    4.1327 C   0  0  0  0  0  0  0  0  0  0  0  0
    7.5713    7.1752    4.5836 N   0  0  0  0  0  0  0  0  0  0  0  0
    6.6003    6.2979    4.7700 C   0  0  0  0  0  0  0  0  0  0  0  0
    5.2930    6.6653    4.4883 C   0  0  0  0  0  0  0  0  0  0  0  0
    5.0509    7.9474    4.0184 C   0  0  0  0  0  0  0  0  0  0  0  0
    6.0671    8.7768    3.8539 N   0  0  0  0  0  0  0  0  0  0  0  0
    4.1598    5.6923    4.6888 C   0  0  0  0  0  0  0  0  0  0  0  0
    3.3045    6.1429    5.8747 C   0  0  0  0  0  0  0  0  0  0  0  0
    2.4588    7.3211    5.4652 C   0  0  0  0  0  0  0  0  0  0  0  0
    1.6668    7.2104    4.5595 O   0  0  0  0  0  0  0  0  0  0  0  0
    2.5853    8.4934    6.1068 O   0  5  0  0  0  0  0  0  0  0  0  0
    3.3137    5.6323    3.4839 N   0  3  0  0  0  0  0  0  0  0  0  0
   14.0348    9.8449    4.0920 H   0  0  0  0  0  0  0  0  0  0  0  0
   13.0444   11.2398    4.5778 H   0  0  0  0  0  0  0  0  0  0  0  0
   12.9948   10.6728    2.8493 H   0  0  0  0  0  0  0  0  0  0  0  0
    9.9359    7.9533    4.5975 H   0  0  0  0  0  0  0  0  0  0  0  0
    7.1304   10.9374    3.2228 H   0  0  0  0  0  0  0  0  0  0  0  0
   12.5265   13.5109    4.3472 H   0  0  0  0  0  0  0  0  0  0  0  0
   10.9949   12.9940    5.0883 H   0  0  0  0  0  0  0  0  0  0  0  0
   10.9540   14.0434    3.6022 H   0  0  0  0  0  0  0  0  0  0  0  0
    7.4998   12.8523    4.2390 H   0  0  0  0  0  0  0  0  0  0  0  0
    7.1425   13.7093    2.7224 H   0  0  0  0  0  0  0  0  0  0  0  0
    8.2899   14.4600    3.9187 H   0  0  0  0  0  0  0  0  0  0  0  0
    6.8264    5.2884    5.1442 H   0  0  0  0  0  0  0  0  0  0  0  0
    4.0255    8.2705    3.7854 H   0  0  0  0  0  0  0  0  0  0  0  0
    4.5823    4.6955    4.8834 H   0  0  0  0  0  0  0  0  0  0  0  0
    3.9583    6.4344    6.7099 H   0  0  0  0  0  0  0  0  0  0  0  0
    2.6518    5.3161    6.1914 H   0  0  0  0  0  0  0  0  0  0  0  0
    3.5838    6.3931    2.8443 H   0  0  0  0  0  0  0  0  0  0  0  0
    2.3282    5.7535    3.7579 H   0  0  0  0  0  0  0  0  0  0  0  0
    3.4349    4.7236    3.0142 H   0  0  0  0  0  0  0  0  0  0  0  0
  1  2  1  0  0  0  0
  1 25  1  0  0  0  0
  1 26  1  0  0  0  0
  1 27  1  0  0  0  0
  2  3  1  0  0  0  0
  3  8  2  0  0  0  0
  3  4  1  0  0  0  0
  4  5  2  0  0  0  0
  4 28  1  0  0  0  0
  5  6  1  0  0  0  0
  5 13  1  0  0  0  0
  6  7  2  0  0  0  0
  6 29  1  0  0  0  0
  7  8  1  0  0  0  0
  7 11  1  0  0  0  0
  8  9  1  0  0  0  0
  9 10  1  0  0  0  0
 10 30  1  0  0  0  0
 10 31  1  0  0  0  0
 10 32  1  0  0  0  0
 11 12  1  0  0  0  0
 12 33  1  0  0  0  0
 12 34  1  0  0  0  0
 12 35  1  0  0  0  0
 13 18  2  0  0  0  0
 13 14  1  0  0  0  0
 14 15  2  0  0  0  0
 15 16  1  0  0  0  0
 15 36  1  0  0  0  0
 16 17  2  0  0  0  0
 16 19  1  0  0  0  0
 17 18  1  0  0  0  0
 17 37  1  0  0  0  0
 19 20  1  0  0  0  0
 19 24  1  0  0  0  0
 19 38  1  0  0  0  0
 20 21  1  0  0  0  0
 20 39  1  0  0  0  0
 20 40  1  0  0  0  0
 21 22  2  0  0  0  0
 21 23  1  0  0  0  0
 24 41  1  0  0  0  0
 24 42  1  0  0  0  0
 24 43  1  0  0  0  0
M  END
> <Name>
ZINC15418382

> <reference>
BDB4934

> <quality>
0.656

> <status>
decoy

> <atoms in reference ligand area>
12

> <score>
-21.0834

$$$$
ZINC14116594
      BALL 1.4.0 (Jan  4 2012, 23:22:29)

 42 43  0999  0  0  0  0  0  0999 V2000
   12.7214   15.5476   -1.9001 C   0  0  0  0  0  0  0  0  0  0  0  0
   11.3696   15.8409   -1.2464 C   0  0  0  0  0  0  0  0  0  0  0  0
   11.0292   14.7366   -0.2791 C   0  0  0  0  0  0  0  0  0  0  0  0
   10.2099   14.8382    0.8112 N   0  0  0  0  0  0  0  0  0  0  0  0
   10.1975   13.5976    1.3814 C   0  0  0  0  0  0  0  0  0  0  0  0
   10.9781   12.8324    0.6542 N   0  0  0  0  0  0  0  0  0  0  0  0
   11.4655   13.5097   -0.3234 N   0  0  0  0  0  0  0  0  0  0  0  0
    9.3075   13.1164    2.8239 S   0  0  0  0  0  0  0  0  0  0  0  0
   10.2377   11.6346    3.2874 C   0  0  0  0  0  0  0  0  0  0  0  0
   11.6030   12.0338    3.7850 C   0  0  0  0  0  0  0  0  0  0  0  0
   11.8545   13.2016    3.9947 O   0  0  0  0  0  0  0  0  0  0  0  0
   12.5447   11.0931    3.9968 N   0  0  0  0  0  0  0  0  0  0  0  0
   13.8683   11.4727    4.2551 N   0  0  0  0  0  0  0  0  0  0  0  0
   14.7127   10.6088    4.8529 C   0  0  0  0  0  0  0  0  0  0  0  0
   14.5738    9.4149    4.6910 O   0  0  0  0  0  0  0  0  0  0  0  0
   15.8294   11.1263    5.7225 C   0  0  0  0  0  0  0  0  0  0  0  0
   16.4760    9.9589    6.4707 C   0  0  0  0  0  0  0  0  0  0  0  0
   15.4076    9.2048    7.2796 C   0  0  0  0  0  0  0  0  0  0  0  0
   16.0871    8.2372    8.2783 C   0  0  0  0  0  0  0  0  0  0  0  0
   17.6975    9.0623    8.6077 S   0  0  0  0  0  0  0  0  0  0  0  0
   18.7492    8.2209    8.1547 O   0  0  0  0  0  0  0  0  0  0  0  0
   17.7094    9.5367    9.9472 O   0  0  0  0  0  0  0  0  0  0  0  0
   17.5440   10.4988    7.4642 C   0  0  0  0  0  0  0  0  0  0  0  0
   13.1217   14.6009   -1.5082 H   0  0  0  0  0  0  0  0  0  0  0  0
   13.4238   16.3634   -1.6743 H   0  0  0  0  0  0  0  0  0  0  0  0
   12.5928   15.4670   -2.9896 H   0  0  0  0  0  0  0  0  0  0  0  0
   11.4233   16.7975   -0.7060 H   0  0  0  0  0  0  0  0  0  0  0  0
   10.5915   15.9010   -2.0217 H   0  0  0  0  0  0  0  0  0  0  0  0
    9.7067   15.6765    1.1350 H   0  0  0  0  0  0  0  0  0  0  0  0
   10.3450   10.9786    2.4110 H   0  0  0  0  0  0  0  0  0  0  0  0
    9.7004   11.0982    4.0834 H   0  0  0  0  0  0  0  0  0  0  0  0
   12.2912   10.0951    3.9687 H   0  0  0  0  0  0  0  0  0  0  0  0
   14.1962   12.4119    3.9882 H   0  0  0  0  0  0  0  0  0  0  0  0
   15.4261   11.8478    6.4484 H   0  0  0  0  0  0  0  0  0  0  0  0
   16.5842   11.6215    5.0940 H   0  0  0  0  0  0  0  0  0  0  0  0
   16.9437    9.2861    5.7369 H   0  0  0  0  0  0  0  0  0  0  0  0
   14.7665    8.6307    6.5944 H   0  0  0  0  0  0  0  0  0  0  0  0
   14.7907    9.9275    7.8339 H   0  0  0  0  0  0  0  0  0  0  0  0
   15.5042    8.1706    9.2088 H   0  0  0  0  0  0  0  0  0  0  0  0
   16.2588    7.2563    7.8111 H   0  0  0  0  0  0  0  0  0  0  0  0
   18.5015   10.6746    6.9519 H   0  0  0  0  0  0  0  0  0  0  0  0
   17.1640   11.3744    8.0110 H   0  0  0  0  0  0  0  0  0  0  0  0
  1  2  1  0  0  0  0
  1 24  1  0  0  0  0
  1 25  1  0  0  0  0
  1 26  1  0  0  0  0
  2  3  1  0  0  0  0
  2 27  1  0  0  0  0
  2 28  1  0  0  0  0
  3  7  2  0  0  0  0
  3  4  1  0  0  0  0
  4  5  1  0  0  0  0
  4 29  1  0  0  0  0
  5  6  2  0  0  0  0
  5  8  1  0  0  0  0
  6  7  1  0  0  0  0
  8  9  1  0  0  0  0
  9 10  1  0  0  0  0
  9 30  1  0  0  0  0
  9 31  1  0  0  0  0
 10 11  2  0  0  0  0
 10 12  1  0  0  0  0
 12 13  1  0  0  0  0
 12 32  1  0  0  0  0
 13 14  1  0  0  0  0
 13 33  1  0  0  0  0
 14 15  2  0  0  0  0
 14 16  1  0  0  0  0
 16 17  1  0  0  0  0
 16 34  1  0  0  0  0
 16 35  1  0  0  0  0
 17 23  1  0  0  0  0
 17 18  1  0  0  0  0
 17 36  1  0  0  0  0
 18 19  1  0  0  0  0
 18 37  1  0  0  0  0
 18 38  1  0  0  0  0
 19 20  1  0  0  0  0
 19 39  1  0  0  0  0
 19 40  1  0  0  0  0
 20 21  2  0  0  0  0
 20 22  2  0  0  0  0
 20 23  1  0  0  0  0
 23 41  1  0  0  0  0
 23 42  1  0  0  0  0
M  END
> <Name>
ZINC14116594

> <reference>
BDB4942

> <quality>
0.630

> <status>
decoy

> <atoms in reference ligand area>
10

> <score>
-20.9891

$$$$
ZINC16562397
      BALL 1.4.0 (Jan  4 2012, 23:22:29)

 53 54  0999  0  0  0  0  0  0999 V2000
   12.8282    7.5105    8.5649 C   0  0  0  0  0  0  0  0  0  0  0  0
   14.1170    6.9634    7.9478 C   0  0  0  0  0  0  0  0  0  0  0  0
   13.8252    6.3765    6.6780 O   0  0  0  0  0  0  0  0  0  0  0  0
   13.6886    7.2231    5.6238 C   0  0  0  0  0  0  0  0  0  0  0  0
   13.2044    6.7517    4.4122 C   0  0  0  0  0  0  0  0  0  0  0  0
   13.0659    7.6145    3.3422 C   0  0  0  0  0  0  0  0  0  0  0  0
   13.4097    8.9468    3.4780 C   0  0  0  0  0  0  0  0  0  0  0  0
   13.8978    9.4180    4.6828 C   0  0  0  0  0  0  0  0  0  0  0  0
   14.0327    8.5604    5.7575 C   0  0  0  0  0  0  0  0  0  0  0  0
   13.2576    9.8858    2.3092 C   0  0  0  0  0  0  0  0  0  0  0  0
   11.4270    8.6229    1.3520 C   0  0  0  0  0  0  0  0  0  0  0  0
   11.6187   10.9968    0.9156 C   0  0  0  0  0  0  0  0  0  0  0  0
   12.2088   12.3025    1.4521 C   0  0  0  0  0  0  0  0  0  0  0  0
   10.1381   11.1686    0.6935 C   0  0  0  0  0  0  0  0  0  0  0  0
    9.3481   10.7489    1.5151 O   0  0  0  0  0  0  0  0  0  0  0  0
    9.6695   11.8170   -0.4691 C   0  0  0  0  0  0  0  0  0  0  0  0
    8.3046   12.1079   -0.6373 C   0  0  0  0  0  0  0  0  0  0  0  0
    7.8998   12.7414   -1.7775 N   0  0  0  0  0  0  0  0  0  0  0  0
    8.7759   13.0782   -2.7369 C   0  0  0  0  0  0  0  0  0  0  0  0
    8.3646   13.6364   -3.7353 O   0  0  0  0  0  0  0  0  0  0  0  0
   10.0900   12.8215   -2.6344 N   0  0  0  0  0  0  0  0  0  0  0  0
   10.5913   12.2040   -1.5448 C   0  0  0  0  0  0  0  0  0  0  0  0
   11.7829   11.9721   -1.4554 O   0  0  0  0  0  0  0  0  0  0  0  0
   10.9907   13.2168   -3.7200 C   0  0  0  0  0  0  0  0  0  0  0  0
    6.4801   13.0535   -1.9600 C   0  0  0  0  0  0  0  0  0  0  0  0
    7.4021   11.7685    0.3227 N   0  0  0  0  0  0  0  0  0  0  0  0
   11.8341    9.9281    1.9136 N   0  0  0  0  0  0  0  0  0  0  0  0
   12.8580    8.6102    8.5637 H   0  0  0  0  0  0  0  0  0  0  0  0
   12.7331    7.1480    9.5991 H   0  0  0  0  0  0  0  0  0  0  0  0
   11.9646    7.1675    7.9763 H   0  0  0  0  0  0  0  0  0  0  0  0
   14.8373    7.7841    7.8150 H   0  0  0  0  0  0  0  0  0  0  0  0
   14.5484    6.2009    8.6130 H   0  0  0  0  0  0  0  0  0  0  0  0
   12.9309    5.6918    4.3037 H   0  0  0  0  0  0  0  0  0  0  0  0
   12.6819    7.2412    2.3814 H   0  0  0  0  0  0  0  0  0  0  0  0
   14.1790   10.4765    4.7856 H   0  0  0  0  0  0  0  0  0  0  0  0
   14.4127    8.9377    6.7185 H   0  0  0  0  0  0  0  0  0  0  0  0
   13.5884   10.8936    2.6007 H   0  0  0  0  0  0  0  0  0  0  0  0
   13.8633    9.5254    1.4646 H   0  0  0  0  0  0  0  0  0  0  0  0
   12.0409    8.4006    0.4667 H   0  0  0  0  0  0  0  0  0  0  0  0
   10.3679    8.6678    1.0584 H   0  0  0  0  0  0  0  0  0  0  0  0
   11.5675    7.8341    2.1057 H   0  0  0  0  0  0  0  0  0  0  0  0
   12.1064   10.7326   -0.0343 H   0  0  0  0  0  0  0  0  0  0  0  0
   13.0937   12.5771    0.8591 H   0  0  0  0  0  0  0  0  0  0  0  0
   12.5002   12.1693    2.5044 H   0  0  0  0  0  0  0  0  0  0  0  0
   11.4572   13.1025    1.3793 H   0  0  0  0  0  0  0  0  0  0  0  0
   11.4111   14.1849   -3.4102 H   0  0  0  0  0  0  0  0  0  0  0  0
   10.3377   13.4043   -4.5850 H   0  0  0  0  0  0  0  0  0  0  0  0
   11.7714   12.4736   -3.9394 H   0  0  0  0  0  0  0  0  0  0  0  0
    5.9531   12.4732   -1.1884 H   0  0  0  0  0  0  0  0  0  0  0  0
    6.2105   12.6230   -2.9356 H   0  0  0  0  0  0  0  0  0  0  0  0
    6.2530   14.1282   -1.9013 H   0  0  0  0  0  0  0  0  0  0  0  0
    6.5540   12.3395    0.4485 H   0  0  0  0  0  0  0  0  0  0  0  0
    7.5647   10.9459    0.9207 H   0  0  0  0  0  0  0  0  0  0  0  0
  1  2  1  0  0  0  0
  1 28  1  0  0  0  0
  1 29  1  0  0  0  0
  1 30  1  0  0  0  0
  2  3  1  0  0  0  0
  2 31  1  0  0  0  0
  2 32  1  0  0  0  0
  3  4  1  0  0  0  0
  4  9  2  0  0  0  0
  4  5  1  0  0  0  0
  5  6  2  0  0  0  0
  5 33  1  0  0  0  0
  6  7  1  0  0  0  0
  6 34  1  0  0  0  0
  7  8  2  0  0  0  0
  7 10  1  0  0  0  0
  8  9  1  0  0  0  0
  8 35  1  0  0  0  0
  9 36  1  0  0  0  0
 10 27  1  0  0  0  0
 10 37  1  0  0  0  0
 10 38  1  0  0  0  0
 11 27  1  0  0  0  0
 11 39  1  0  0  0  0
 11 40  1  0  0  0  0
 11 41  1  0  0  0  0
 12 13  1  0  0  0  0
 12 14  1  0  0  0  0
 12 27  1  0  0  0  0
 12 42  1  0  0  0  0
 13 43  1  0  0  0  0
 13 44  1  0  0  0  0
 13 45  1  0  0  0  0
 14 15  2  0  0  0  0
 14 16  1  0  0  0  0
 16 22  1  0  0  0  0
 16 17  2  0  0  0  0
 17 18  1  0  0  0  0
 17 26  1  0  0  0  0
 18 19  1  0  0  0  0
 18 25  1  0  0  0  0
 19 20  2  0  0  0  0
 19 21  1  0  0  0  0
 21 22  1  0  0  0  0
 21 24  1  0  0  0  0
 22 23  2  0  0  0  0
 24 46  1  0  0  0  0
 24 47  1  0  0  0  0
 24 48  1  0  0  0  0
 25 49  1  0  0  0  0
 25 50  1  0  0  0  0
 25 51  1  0  0  0  0
 26 52  1  0  0  0  0
 26 53  1  0  0  0  0
M  END
> <Name>
ZINC16562397

> <reference>
BDB4952

> <quality>
0.727

> <status>
decoy

> <atoms in reference ligand area>
25

> <score>
-20.9469

$$$$
ZINC29839654
      BALL 1.4.0 (Jan  4 2012, 23:22:29)

 53 53  0999  0  0  0  0  0  0999 V2000
    8.0602   12.5782    0.6095 C   0  0  0  0  0  0  0  0  0  0  0  0
    7.8056   11.1780    1.1709 C   0  0  0  0  0  0  0  0  0  0  0  0
    7.6080   10.2344    0.0623 N   0  3  0  0  0  0  0  0  0  0  0  0
    6.4561   10.6244   -0.7619 C   0  0  0  0  0  0  0  0  0  0  0  0
    5.2922   11.0264    0.1461 C   0  0  0  0  0  0  0  0  0  0  0  0
    4.0585   10.8431   -0.5515 O   0  0  0  0  0  0  0  0  0  0  0  0
    7.4577    8.8607    0.5607 C   0  0  0  0  0  0  0  0  0  0  0  0
    8.6985    8.4625    1.3176 C   0  0  0  0  0  0  0  0  0  0  0  0
    9.2930    9.2840    1.9822 O   0  0  0  0  0  0  0  0  0  0  0  0
    9.1473    7.1932    1.2557 N   0  0  0  0  0  0  0  0  0  0  0  0
   10.2570    6.8370    1.9327 C   0  0  0  0  0  0  0  0  0  0  0  0
   10.8692    5.8369    1.6128 O   0  0  0  0  0  0  0  0  0  0  0  0
   10.6878    7.5898    2.9642 N   0  0  0  0  0  0  0  0  0  0  0  0
   12.0467    7.9128    3.0764 C   0  0  0  0  0  0  0  0  0  0  0  0
   13.0128    6.9923    2.6930 C   0  0  0  0  0  0  0  0  0  0  0  0
   14.3535    7.3093    2.8025 C   0  0  0  0  0  0  0  0  0  0  0  0
   14.7362    8.5486    3.2896 C   0  0  0  0  0  0  0  0  0  0  0  0
   13.7704    9.4711    3.6800 C   0  0  0  0  0  0  0  0  0  0  0  0
   12.4268    9.1531    3.5701 C   0  0  0  0  0  0  0  0  0  0  0  0
   14.1451   10.6857    4.1636 O   0  0  0  0  0  0  0  0  0  0  0  0
   13.5250   11.8346    3.5829 C   0  0  0  0  0  0  0  0  0  0  0  0
   13.8746   13.0747    4.4080 C   0  0  0  0  0  0  0  0  0  0  0  0
   16.0565    8.8614    3.3916 O   0  0  0  0  0  0  0  0  0  0  0  0
   16.9073    8.4409    2.3234 C   0  0  0  0  0  0  0  0  0  0  0  0
   18.2849    9.0868    2.4841 C   0  0  0  0  0  0  0  0  0  0  0  0
    8.7093   12.5070   -0.2756 H   0  0  0  0  0  0  0  0  0  0  0  0
    8.5512   13.1974    1.3746 H   0  0  0  0  0  0  0  0  0  0  0  0
    7.1030   13.0394    0.3248 H   0  0  0  0  0  0  0  0  0  0  0  0
    8.6706   10.8608    1.7718 H   0  0  0  0  0  0  0  0  0  0  0  0
    6.9056   11.1933    1.8032 H   0  0  0  0  0  0  0  0  0  0  0  0
    8.4480   10.2651   -0.5330 H   0  0  0  0  0  0  0  0  0  0  0  0
    6.1518    9.7765   -1.3932 H   0  0  0  0  0  0  0  0  0  0  0  0
    6.7335   11.4761   -1.4004 H   0  0  0  0  0  0  0  0  0  0  0  0
    5.3971   12.0833    0.4324 H   0  0  0  0  0  0  0  0  0  0  0  0
    5.2984   10.3992    1.0498 H   0  0  0  0  0  0  0  0  0  0  0  0
    4.2249   10.3509   -1.3942 H   0  0  0  0  0  0  0  0  0  0  0  0
    7.3109    8.1758   -0.2875 H   0  0  0  0  0  0  0  0  0  0  0  0
    6.5870    8.8068    1.2307 H   0  0  0  0  0  0  0  0  0  0  0  0
    8.6422    6.4953    0.6911 H   0  0  0  0  0  0  0  0  0  0  0  0
   10.0182    7.9277    3.6702 H   0  0  0  0  0  0  0  0  0  0  0  0
   12.7108    6.0097    2.3017 H   0  0  0  0  0  0  0  0  0  0  0  0
   15.1175    6.5769    2.5025 H   0  0  0  0  0  0  0  0  0  0  0  0
   11.6617    9.8827    3.8739 H   0  0  0  0  0  0  0  0  0  0  0  0
   13.8879   11.9660    2.5528 H   0  0  0  0  0  0  0  0  0  0  0  0
   12.4336   11.6979    3.5725 H   0  0  0  0  0  0  0  0  0  0  0  0
   14.5197   12.7857    5.2507 H   0  0  0  0  0  0  0  0  0  0  0  0
   12.9514   13.5319    4.7936 H   0  0  0  0  0  0  0  0  0  0  0  0
   14.4048   13.8004    3.7737 H   0  0  0  0  0  0  0  0  0  0  0  0
   16.4694    8.7473    1.3620 H   0  0  0  0  0  0  0  0  0  0  0  0
   17.0114    7.3460    2.3466 H   0  0  0  0  0  0  0  0  0  0  0  0
   18.1782   10.0607    2.9842 H   0  0  0  0  0  0  0  0  0  0  0  0
   18.7407    9.2320    1.4936 H   0  0  0  0  0  0  0  0  0  0  0  0
   18.9288    8.4329    3.0905 H   0  0  0  0  0  0  0  0  0  0  0  0
  1  2  1  0  0  0  0
  1 26  1  0  0  0  0
  1 27  1  0  0  0  0
  1 28  1  0  0  0  0
  2  3  1  0  0  0  0
  2 29  1  0  0  0  0
  2 30  1  0  0  0  0
  3  4  1  0  0  0  0
  3  7  1  0  0  0  0
  3 31  1  0  0  0  0
  4  5  1  0  0  0  0
  4 32  1  0  0  0  0
  4 33  1  0  0  0  0
  5  6  1  0  0  0  0
  5 34  1  0  0  0  0
  5 35  1  0  0  0  0
  6 36  1  0  0  0  0
  7  8  1  0  0  0  0
  7 37  1  0  0  0  0
  7 38  1  0  0  0  0
  8  9  2  0  0  0  0
  8 10  1  0  0  0  0
 10 11  1  0  0  0  0
 10 39  1  0  0  0  0
 11 12  2  0  0  0  0
 11 13  1  0  0  0  0
 13 14  1  0  0  0  0
 13 40  1  0  0  0  0
 14 19  2  0  0  0  0
 14 15  1  0  0  0  0
 15 16  2  0  0  0  0
 15 41  1  0  0  0  0
 16 17  1  0  0  0  0
 16 42  1  0  0  0  0
 17 18  2  0  0  0  0
 17 23  1  0  0  0  0
 18 19  1  0  0  0  0
 18 20  1  0  0  0  0
 19 43  1  0  0  0  0
 20 21  1  0  0  0  0
 21 22  1  0  0  0  0
 21 44  1  0  0  0  0
 21 45  1  0  0  0  0
 22 46  1  0  0  0  0
 22 47  1  0  0  0  0
 22 48  1  0  0  0  0
 23 24  1  0  0  0  0
 24 25  1  0  0  0  0
 24 49  1  0  0  0  0
 24 50  1  0  0  0  0
 25 51  1  0  0  0  0
 25 52  1  0  0  0  0
 25 53  1  0  0  0  0
M  END
> <Name>
ZINC29839654

> <reference>
BDB4997

> <quality>
0.682

> <status>
decoy

> <atoms in reference ligand area>
12

> <score>
-20.9432

$$$$
ZINC29574719
      BALL 1.4.0 (Jan  4 2012, 23:22:29)

 45 45  0999  0  0  0  0  0  0999 V2000
   10.3417   13.2082    3.5469 C   0  0  0  0  0  0  0  0  0  0  0  0
    9.0474   12.5015    3.9546 C   0  0  0  0  0  0  0  0  0  0  0  0
    7.8491   13.2633    3.3849 C   0  0  0  0  0  0  0  0  0  0  0  0
    8.9473   12.4611    5.4808 C   0  0  0  0  0  0  0  0  0  0  0  0
    9.0515   11.0948    3.4142 C   0  0  0  0  0  0  0  0  0  0  0  0
   10.0976   10.5712    3.0939 O   0  0  0  0  0  0  0  0  0  0  0  0
    7.8927   10.4184    3.2866 N   0  0  0  0  0  0  0  0  0  0  0  0
    7.8966    9.0509    2.7611 C   0  0  0  0  0  0  0  0  0  0  0  0
    6.4805    8.6133    2.4889 C   0  0  0  0  0  0  0  0  0  0  0  0
    5.5516    9.2898    2.8766 O   0  0  0  0  0  0  0  0  0  0  0  0
    6.2464    7.4701    1.8145 N   0  0  0  0  0  0  0  0  0  0  0  0
    4.9980    6.8418    1.9132 N   0  0  0  0  0  0  0  0  0  0  0  0
    4.7639    5.6986    1.2389 C   0  0  0  0  0  0  0  0  0  0  0  0
    3.1551    5.2013    0.9295 S   0  0  0  0  0  0  0  0  0  0  0  0
    5.7962    4.9467    0.8081 N   0  0  0  0  0  0  0  0  0  0  0  0
    5.5416    3.7041    0.0752 C   0  0  0  0  0  0  0  0  0  0  0  0
    6.8735    3.0488   -0.2957 C   0  0  0  0  0  0  0  0  0  0  0  0
    7.7690    4.0396   -1.0823 C   0  0  0  0  0  0  0  0  0  0  0  0
    8.6889    3.0831   -1.8794 C   0  0  0  0  0  0  0  0  0  0  0  0
    7.9162    1.7500   -1.9048 C   0  0  0  0  0  0  0  0  0  0  0  0
    6.6656    1.9645   -1.2293 O   0  0  0  0  0  0  0  0  0  0  0  0
   11.2030   12.5720    3.7986 H   0  0  0  0  0  0  0  0  0  0  0  0
   10.4235   14.1645    4.0843 H   0  0  0  0  0  0  0  0  0  0  0  0
   10.3313   13.3975    2.4634 H   0  0  0  0  0  0  0  0  0  0  0  0
    7.4070   13.8939    4.1703 H   0  0  0  0  0  0  0  0  0  0  0  0
    7.0963   12.5473    3.0232 H   0  0  0  0  0  0  0  0  0  0  0  0
    8.1806   13.8981    2.5499 H   0  0  0  0  0  0  0  0  0  0  0  0
    8.1443   13.1348    5.8146 H   0  0  0  0  0  0  0  0  0  0  0  0
    9.9024   12.7840    5.9206 H   0  0  0  0  0  0  0  0  0  0  0  0
    8.7229   11.4349    5.8072 H   0  0  0  0  0  0  0  0  0  0  0  0
    7.0044   10.8631    3.5586 H   0  0  0  0  0  0  0  0  0  0  0  0
    8.3531    8.3747    3.4989 H   0  0  0  0  0  0  0  0  0  0  0  0
    8.4758    9.0188    1.8265 H   0  0  0  0  0  0  0  0  0  0  0  0
    6.9851    7.0585    1.2266 H   0  0  0  0  0  0  0  0  0  0  0  0
    4.2593    7.2535    2.5011 H   0  0  0  0  0  0  0  0  0  0  0  0
    6.7641    5.2458    0.9943 H   0  0  0  0  0  0  0  0  0  0  0  0
    4.9757    3.9271   -0.8414 H   0  0  0  0  0  0  0  0  0  0  0  0
    4.9595    3.0178    0.7077 H   0  0  0  0  0  0  0  0  0  0  0  0
    7.3271    2.7188    0.6505 H   0  0  0  0  0  0  0  0  0  0  0  0
    8.3642    4.6520   -0.3889 H   0  0  0  0  0  0  0  0  0  0  0  0
    7.1588    4.6439   -1.7696 H   0  0  0  0  0  0  0  0  0  0  0  0
    9.6476    2.9542   -1.3554 H   0  0  0  0  0  0  0  0  0  0  0  0
    8.8287    3.4586   -2.9038 H   0  0  0  0  0  0  0  0  0  0  0  0
    7.7295    1.4490   -2.9461 H   0  0  0  0  0  0  0  0  0  0  0  0
    8.4939    0.9750   -1.3799 H   0  0  0  0  0  0  0  0  0  0  0  0
  1  2  1  0  0  0  0
  1 22  1  0  0  0  0
  1 23  1  0  0  0  0
  1 24  1  0  0  0  0
  2  3  1  0  0  0  0
  2  4  1  0  0  0  0
  2  5  1  0  0  0  0
  3 25  1  0  0  0  0
  3 26  1  0  0  0  0
  3 27  1  0  0  0  0
  4 28  1  0  0  0  0
  4 29  1  0  0  0  0
  4 30  1  0  0  0  0
  5  6  2  0  0  0  0
  5  7  1  0  0  0  0
  7  8  1  0  0  0  0
  7 31  1  0  0  0  0
  8  9  1  0  0  0  0
  8 32  1  0  0  0  0
  8 33  1  0  0  0  0
  9 10  2  0  0  0  0
  9 11  1  0  0  0  0
 11 12  1  0  0  0  0
 11 34  1  0  0  0  0
 12 13  1  0  0  0  0
 12 35  1  0  0  0  0
 13 14  2  0  0  0  0
 13 15  1  0  0  0  0
 15 16  1  0  0  0  0
 15 36  1  0  0  0  0
 16 17  1  0  0  0  0
 16 37  1  0  0  0  0
 16 38  1  0  0  0  0
 17 21  1  0  0  0  0
 17 18  1  0  0  0  0
 17 39  1  0  0  0  0
 18 19  1  0  0  0  0
 18 40  1  0  0  0  0
 18 41  1  0  0  0  0
 19 20  1  0  0  0  0
 19 42  1  0  0  0  0
 19 43  1  0  0  0  0
 20 21  1  0  0  0  0
 20 44  1  0  0  0  0
 20 45  1  0  0  0  0
M  END
> <Name>
ZINC29574719

> <reference>
BDB5025

> <quality>
0.725

> <status>
decoy

> <atoms in reference ligand area>
13

> <score>
-20.8529

$$$$
ZINC20236076
      BALL 1.4.0 (Jan  4 2012, 23:22:29)

 38 38  0999  0  0  0  0  0  0999 V2000
    5.6234   10.5950    1.8509 C   0  0  0  0  0  0  0  0  0  0  0  0
    6.7612    9.7936    2.3087 N   0  0  0  0  0  0  0  0  0  0  0  0
    6.7128    9.1320    3.6149 C   0  0  0  0  0  0  0  0  0  0  0  0
    8.1018    9.6357    1.3496 S   0  0  0  0  0  0  0  0  0  0  0  0
    8.4746    8.2651    1.3952 O   0  0  0  0  0  0  0  0  0  0  0  0
    7.8107   10.3058    0.1309 O   0  0  0  0  0  0  0  0  0  0  0  0
    9.3256   10.4832    2.0752 N   0  0  0  0  0  0  0  0  0  0  0  0
   10.3892    9.7699    2.7865 C   0  0  0  0  0  0  0  0  0  0  0  0
   10.4884   10.2987    4.2188 C   0  0  0  0  0  0  0  0  0  0  0  0
   11.8870   10.6288    4.5232 N   0  3  0  0  0  0  0  0  0  0  0  0
    9.3435   11.8809    2.0090 C   0  0  0  0  0  0  0  0  0  0  0  0
   10.3070   12.5280    1.2465 C   0  0  0  0  0  0  0  0  0  0  0  0
   10.3204   13.9073    1.1770 C   0  0  0  0  0  0  0  0  0  0  0  0
    9.3792   14.6465    1.8781 C   0  0  0  0  0  0  0  0  0  0  0  0
    8.4197   14.0012    2.6441 C   0  0  0  0  0  0  0  0  0  0  0  0
    8.4013   12.6218    2.7101 C   0  0  0  0  0  0  0  0  0  0  0  0
    9.3968   16.0049    1.8140 O   0  0  0  0  0  0  0  0  0  0  0  0
    9.3542   16.7135    3.0543 C   0  0  0  0  0  0  0  0  0  0  0  0
    4.8603   10.4744    2.6340 H   0  0  0  0  0  0  0  0  0  0  0  0
    5.2514   10.0719    0.9576 H   0  0  0  0  0  0  0  0  0  0  0  0
    5.8626   11.6504    1.6534 H   0  0  0  0  0  0  0  0  0  0  0  0
    5.7598    9.4549    4.0592 H   0  0  0  0  0  0  0  0  0  0  0  0
    7.5156    9.6044    4.2000 H   0  0  0  0  0  0  0  0  0  0  0  0
    6.8093    8.0371    3.5723 H   0  0  0  0  0  0  0  0  0  0  0  0
   10.1587    8.6945    2.8084 H   0  0  0  0  0  0  0  0  0  0  0  0
   11.3476    9.9290    2.2705 H   0  0  0  0  0  0  0  0  0  0  0  0
   10.1330    9.5295    4.9203 H   0  0  0  0  0  0  0  0  0  0  0  0
    9.8686   11.2018    4.3201 H   0  0  0  0  0  0  0  0  0  0  0  0
   12.5115   10.0130    3.9832 H   0  0  0  0  0  0  0  0  0  0  0  0
   12.0609   10.4959    5.5297 H   0  0  0  0  0  0  0  0  0  0  0  0
   12.0716   11.6102    4.2707 H   0  0  0  0  0  0  0  0  0  0  0  0
   11.0593   11.9422    0.6981 H   0  0  0  0  0  0  0  0  0  0  0  0
   11.0778   14.4197    0.5656 H   0  0  0  0  0  0  0  0  0  0  0  0
    7.6732   14.5883    3.1992 H   0  0  0  0  0  0  0  0  0  0  0  0
    7.6404   12.1102    3.3178 H   0  0  0  0  0  0  0  0  0  0  0  0
   10.3065   16.5036    3.5633 H   0  0  0  0  0  0  0  0  0  0  0  0
    8.5476   16.2548    3.6450 H   0  0  0  0  0  0  0  0  0  0  0  0
    9.1953   17.7939    2.9218 H   0  0  0  0  0  0  0  0  0  0  0  0
  1  2  1  0  0  0  0
  1 19  1  0  0  0  0
  1 20  1  0  0  0  0
  1 21  1  0  0  0  0
  2  3  1  0  0  0  0
  2  4  1  0  0  0  0
  3 22  1  0  0  0  0
  3 23  1  0  0  0  0
  3 24  1  0  0  0  0
  4  5  2  0  0  0  0
  4  6  2  0  0  0  0
  4  7  1  0  0  0  0
  7  8  1  0  0  0  0
  7 11  1  0  0  0  0
  8  9  1  0  0  0  0
  8 25  1  0  0  0  0
  8 26  1  0  0  0  0
  9 10  1  0  0  0  0
  9 27  1  0  0  0  0
  9 28  1  0  0  0  0
 10 29  1  0  0  0  0
 10 30  1  0  0  0  0
 10 31  1  0  0  0  0
 11 16  2  0  0  0  0
 11 12  1  0  0  0  0
 12 13  2  0  0  0  0
 12 32  1  0  0  0  0
 13 14  1  0  0  0  0
 13 33  1  0  0  0  0
 14 15  2  0  0  0  0
 14 17  1  0  0  0  0
 15 16  1  0  0  0  0
 15 34  1  0  0  0  0
 16 35  1  0  0  0  0
 17 18  1  0  0  0  0
 18 36  1  0  0  0  0
 18 37  1  0  0  0  0
 18 38  1  0  0  0  0
M  END
> <Name>
ZINC20236076

> <reference>
BDB5234

> <quality>
0.775

> <status>
decoy

> <atoms in reference ligand area>
19

> <score>
-20.8333

$$$$
ZINC04794950
      BALL 1.4.0 (Jan  4 2012, 23:22:29)

 54 54  0999  0  0  0  0  0  0999 V2000
   10.6290   12.7267   -2.1775 C   0  0  0  0  0  0  0  0  0  0  0  0
   11.7309   12.3979   -1.2633 N   0  0  0  0  0  0  0  0  0  0  0  0
   11.1441   11.8780    0.2260 P   0  0  0  0  0  0  0  0  0  0  0  0
    9.5542   11.6920    0.1446 N   0  0  0  0  0  0  0  0  0  0  0  0
    8.8068   10.9373    1.3442 P   0  0  0  0  0  0  0  0  0  0  0  0
    9.5959    9.5774    1.6554 N   0  0  0  0  0  0  0  0  0  0  0  0
   11.1878    9.6355    1.8282 P   0  0  0  0  0  0  0  0  0  0  0  0
   11.7996   10.4648    0.6007 N   0  0  0  0  0  0  0  0  0  0  0  0
   11.8155    8.0739    1.8262 N   0  0  0  0  0  0  0  0  0  0  0  0
   10.7685    7.0860    1.5330 C   0  0  0  0  0  0  0  0  0  0  0  0
   12.9310    7.9561    0.8775 C   0  0  0  0  0  0  0  0  0  0  0  0
   11.5731   10.4002    3.2771 N   0  0  0  0  0  0  0  0  0  0  0  0
   10.9461    9.7166    4.4162 C   0  0  0  0  0  0  0  0  0  0  0  0
   13.0287   10.4907    3.4538 C   0  0  0  0  0  0  0  0  0  0  0  0
    8.8015   11.9157    2.7136 N   0  0  0  0  0  0  0  0  0  0  0  0
    7.9144   13.0722    2.5307 C   0  0  0  0  0  0  0  0  0  0  0  0
    8.4257   11.1475    3.9080 C   0  0  0  0  0  0  0  0  0  0  0  0
    7.2244   10.5838    0.8930 N   0  0  0  0  0  0  0  0  0  0  0  0
    7.1963    9.6541   -0.2440 C   0  0  0  0  0  0  0  0  0  0  0  0
    6.4600   10.0502    2.0283 C   0  0  0  0  0  0  0  0  0  0  0  0
   11.5223   13.0106    1.4118 N   0  0  0  0  0  0  0  0  0  0  0  0
   12.9651   13.0216    1.6884 C   0  0  0  0  0  0  0  0  0  0  0  0
    9.8364   11.9725   -2.0632 H   0  0  0  0  0  0  0  0  0  0  0  0
   11.0051   12.6981   -3.2108 H   0  0  0  0  0  0  0  0  0  0  0  0
   10.2306   13.7267   -1.9508 H   0  0  0  0  0  0  0  0  0  0  0  0
   12.3069   11.6530   -1.6808 H   0  0  0  0  0  0  0  0  0  0  0  0
   10.3352    7.3106    0.5472 H   0  0  0  0  0  0  0  0  0  0  0  0
    9.9816    7.1661    2.2975 H   0  0  0  0  0  0  0  0  0  0  0  0
   11.1909    6.0704    1.5345 H   0  0  0  0  0  0  0  0  0  0  0  0
   13.7176    8.6694    1.1649 H   0  0  0  0  0  0  0  0  0  0  0  0
   12.5680    8.2091   -0.1296 H   0  0  0  0  0  0  0  0  0  0  0  0
   13.3323    6.9320    0.8855 H   0  0  0  0  0  0  0  0  0  0  0  0
   10.9187   10.4067    5.2724 H   0  0  0  0  0  0  0  0  0  0  0  0
   11.5544    8.8394    4.6818 H   0  0  0  0  0  0  0  0  0  0  0  0
    9.9250    9.4002    4.1565 H   0  0  0  0  0  0  0  0  0  0  0  0
   13.3286    9.8212    4.2734 H   0  0  0  0  0  0  0  0  0  0  0  0
   13.2895   11.5252    3.7218 H   0  0  0  0  0  0  0  0  0  0  0  0
   13.5444   10.2022    2.5260 H   0  0  0  0  0  0  0  0  0  0  0  0
    8.2769   13.6659    1.6786 H   0  0  0  0  0  0  0  0  0  0  0  0
    7.9474   13.6915    3.4392 H   0  0  0  0  0  0  0  0  0  0  0  0
    6.8838   12.7366    2.3426 H   0  0  0  0  0  0  0  0  0  0  0  0
    7.7391   10.3415    3.6096 H   0  0  0  0  0  0  0  0  0  0  0  0
    7.9090   11.8167    4.6118 H   0  0  0  0  0  0  0  0  0  0  0  0
    9.3206   10.7208    4.3844 H   0  0  0  0  0  0  0  0  0  0  0  0
    8.2307    9.4203   -0.5364 H   0  0  0  0  0  0  0  0  0  0  0  0
    6.6865   10.1416   -1.0881 H   0  0  0  0  0  0  0  0  0  0  0  0
    6.6665    8.7303    0.0313 H   0  0  0  0  0  0  0  0  0  0  0  0
    7.1645    9.6639    2.7796 H   0  0  0  0  0  0  0  0  0  0  0  0
    5.8266    9.2244    1.6723 H   0  0  0  0  0  0  0  0  0  0  0  0
    5.8342   10.8389    2.4714 H   0  0  0  0  0  0  0  0  0  0  0  0
   11.0138   12.7815    2.2778 H   0  0  0  0  0  0  0  0  0  0  0  0
   13.2026   12.1879    2.3654 H   0  0  0  0  0  0  0  0  0  0  0  0
   13.2241   13.9697    2.1823 H   0  0  0  0  0  0  0  0  0  0  0  0
   13.5338   12.9186    0.7524 H   0  0  0  0  0  0  0  0  0  0  0  0
  1  2  1  0  0  0  0
  1 23  1  0  0  0  0
  1 24  1  0  0  0  0
  1 25  1  0  0  0  0
  2  3  1  0  0  0  0
  2 26  1  0  0  0  0
  3  8  1  0  0  0  0
  3  4  2  0  0  0  0
  3 21  1  0  0  0  0
  4  5  1  0  0  0  0
  5  6  2  0  0  0  0
  5 15  1  0  0  0  0
  5 18  1  0  0  0  0
  6  7  1  0  0  0  0
  7  8  2  0  0  0  0
  7  9  1  0  0  0  0
  7 12  1  0  0  0  0
  9 10  1  0  0  0  0
  9 11  1  0  0  0  0
 10 27  1  0  0  0  0
 10 28  1  0  0  0  0
 10 29  1  0  0  0  0
 11 30  1  0  0  0  0
 11 31  1  0  0  0  0
 11 32  1  0  0  0  0
 12 13  1  0  0  0  0
 12 14  1  0  0  0  0
 13 33  1  0  0  0  0
 13 34  1  0  0  0  0
 13 35  1  0  0  0  0
 14 36  1  0  0  0  0
 14 37  1  0  0  0  0
 14 38  1  0  0  0  0
 15 16  1  0  0  0  0
 15 17  1  0  0  0  0
 16 39  1  0  0  0  0
 16 40  1  0  0  0  0
 16 41  1  0  0  0  0
 17 42  1  0  0  0  0
 17 43  1  0  0  0  0
 17 44  1  0  0  0  0
 18 19  1  0  0  0  0
 18 20  1  0  0  0  0
 19 45  1  0  0  0  0
 19 46  1  0  0  0  0
 19 47  1  0  0  0  0
 20 48  1  0  0  0  0
 20 49  1  0  0  0  0
 20 50  1  0  0  0  0
 21 22  1  0  0  0  0
 21 51  1  0  0  0  0
 22 52  1  0  0  0  0
 22 53  1  0  0  0  0
 22 54  1  0  0  0  0
M  END
> <Name>
ZINC04794950

> <reference>
BDB4952

> <quality>
0.725

> <status>
decoy

> <atoms in reference ligand area>
22

> <score>
-20.7961

$$$$
ZINC06493486
      BALL 1.4.0 (Jan  4 2012, 23:22:29)

 33 34  0999  0  0  0  0  0  0999 V2000
    4.6194    8.6016    5.5159 C   0  0  0  0  0  0  0  0  0  0  0  0
    5.3536    8.4832    4.1788 C   0  0  0  0  0  0  0  0  0  0  0  0
    6.7670    8.2555    4.4212 O   0  0  0  0  0  0  0  0  0  0  0  0
    7.6273    9.1706    3.9310 C   0  0  0  0  0  0  0  0  0  0  0  0
    7.2787    9.9131    3.0342 O   0  0  0  0  0  0  0  0  0  0  0  0
    8.9877    9.2702    4.4817 C   0  0  0  0  0  0  0  0  0  0  0  0
    9.9851   10.1536    4.0881 C   0  0  0  0  0  0  0  0  0  0  0  0
   11.0625    9.9013    4.8494 N   0  0  0  0  0  0  0  0  0  0  0  0
   10.7932    8.9289    5.6774 C   0  0  0  0  0  0  0  0  0  0  0  0
    9.5300    8.5054    5.4842 N   0  5  0  0  0  0  0  0  0  0  0  0
    9.8803   11.1798    3.0289 C   0  0  0  0  0  0  0  0  0  0  0  0
    8.8432   11.3084    2.4078 O   0  0  0  0  0  0  0  0  0  0  0  0
   10.9345   11.9726    2.7521 N   0  0  0  0  0  0  0  0  0  0  0  0
   10.8686   12.8780    1.6858 C   0  0  0  0  0  0  0  0  0  0  0  0
    9.6674   13.5048    1.3803 C   0  0  0  0  0  0  0  0  0  0  0  0
    9.6035   14.4010    0.3323 C   0  0  0  0  0  0  0  0  0  0  0  0
   10.7380   14.6683   -0.4231 C   0  0  0  0  0  0  0  0  0  0  0  0
   11.9380   14.0375   -0.1208 C   0  0  0  0  0  0  0  0  0  0  0  0
   12.0029   13.1449    0.9303 C   0  0  0  0  0  0  0  0  0  0  0  0
   10.6723   15.5731   -1.4879 N   0  0  0  0  0  0  0  0  0  0  0  0
    5.1353    7.9937    6.2737 H   0  0  0  0  0  0  0  0  0  0  0  0
    3.5858    8.2431    5.4008 H   0  0  0  0  0  0  0  0  0  0  0  0
    4.6080    9.6536    5.8368 H   0  0  0  0  0  0  0  0  0  0  0  0
    4.9397    7.6397    3.6066 H   0  0  0  0  0  0  0  0  0  0  0  0
    5.2257    9.4131    3.6055 H   0  0  0  0  0  0  0  0  0  0  0  0
   11.4924    8.5178    6.4204 H   0  0  0  0  0  0  0  0  0  0  0  0
   11.7885   11.9126    3.3247 H   0  0  0  0  0  0  0  0  0  0  0  0
    8.7670   13.2870    1.9735 H   0  0  0  0  0  0  0  0  0  0  0  0
    8.6540   14.9034    0.0953 H   0  0  0  0  0  0  0  0  0  0  0  0
   12.8366   14.2491   -0.7190 H   0  0  0  0  0  0  0  0  0  0  0  0
   12.9531   12.6450    1.1694 H   0  0  0  0  0  0  0  0  0  0  0  0
   11.5136   15.7712   -2.0480 H   0  0  0  0  0  0  0  0  0  0  0  0
    9.7825   16.0411   -1.7118 H   0  0  0  0  0  0  0  0  0  0  0  0
  1  2  1  0  0  0  0
  1 21  1  0  0  0  0
  1 22  1  0  0  0  0
  1 23  1  0  0  0  0
  2  3  1  0  0  0  0
  2 24  1  0  0  0  0
  2 25  1  0  0  0  0
  3  4  1  0  0  0  0
  4  5  2  0  0  0  0
  4  6  1  0  0  0  0
  6 10  1  0  0  0  0
  6  7  2  0  0  0  0
  7  8  1  0  0  0  0
  7 11  1  0  0  0  0
  8  9  2  0  0  0  0
  9 10  1  0  0  0  0
  9 26  1  0  0  0  0
 11 12  2  0  0  0  0
 11 13  1  0  0  0  0
 13 14  1  0  0  0  0
 13 27  1  0  0  0  0
 14 19  2  0  0  0  0
 14 15  1  0  0  0  0
 15 16  2  0  0  0  0
 15 28  1  0  0  0  0
 16 17  1  0  0  0  0
 16 29  1  0  0  0  0
 17 18  2  0  0  0  0
 17 20  1  0  0  0  0
 18 19  1  0  0  0  0
 18 30  1  0  0  0  0
 19 31  1  0  0  0  0
 20 32  1  0  0  0  0
 20 33  1  0  0  0  0
M  END
> <Name>
ZINC06493486

> <reference>
BDB5233

> <quality>
0.730

> <status>
decoy

> <atoms in reference ligand area>
11

> <score>
-20.7793

$$$$
ZINC24331310
      BALL 1.4.0 (Jan  4 2012, 23:22:29)

 36 36  0999  0  0  0  0  0  0999 V2000
    8.2118   14.4637    2.9501 C   0  0  0  0  0  0  0  0  0  0  0  0
    8.7115   13.2805    3.5164 C   0  0  0  0  0  0  0  0  0  0  0  0
    9.7046   12.8387    2.6899 C   0  0  0  0  0  0  0  0  0  0  0  0
    9.8152   13.7109    1.6667 O   0  0  0  0  0  0  0  0  0  0  0  0
    8.9130   14.6894    1.8172 C   0  0  0  0  0  0  0  0  0  0  0  0
   10.5136   11.6310    2.8840 C   0  0  0  0  0  0  0  0  0  0  0  0
   10.9001   11.3300    3.9980 O   0  0  0  0  0  0  0  0  0  0  0  0
   10.8290   10.8543    1.8286 N   0  0  0  0  0  0  0  0  0  0  0  0
   11.6372    9.6478    2.0225 C   0  0  0  0  0  0  0  0  0  0  0  0
   11.8489    8.9539    0.6755 C   0  0  0  0  0  0  0  0  0  0  0  0
   12.8897    7.8434    0.8318 C   0  0  0  0  0  0  0  0  0  0  0  0
   13.4595    7.4952   -0.5191 C   0  0  0  0  0  0  0  0  0  0  0  0
   12.9522    7.9397   -1.5216 O   0  0  0  0  0  0  0  0  0  0  0  0
   14.5307    6.6912   -0.6087 O   0  0  0  0  0  0  0  0  0  0  0  0
   15.0255    6.3985   -1.9421 C   0  0  0  0  0  0  0  0  0  0  0  0
   14.9686    4.9121   -2.1838 C   0  0  0  0  0  0  0  0  0  0  0  0
   14.5520    4.1726   -1.3181 O   0  0  0  0  0  0  0  0  0  0  0  0
   15.3806    4.4048   -3.3625 N   0  0  0  0  0  0  0  0  0  0  0  0
   15.3297    3.0755   -3.5788 C   0  0  0  0  0  0  0  0  0  0  0  0
   16.0880    2.3338   -2.9855 O   0  0  0  0  0  0  0  0  0  0  0  0
   14.4379    2.5687   -4.4531 N   0  0  0  0  0  0  0  0  0  0  0  0
    7.4018   15.0896    3.3529 H   0  0  0  0  0  0  0  0  0  0  0  0
    8.3694   12.8020    4.4459 H   0  0  0  0  0  0  0  0  0  0  0  0
    8.7670   15.5371    1.1316 H   0  0  0  0  0  0  0  0  0  0  0  0
   10.5018   11.1090    0.8857 H   0  0  0  0  0  0  0  0  0  0  0  0
   12.6127    9.9244    2.4492 H   0  0  0  0  0  0  0  0  0  0  0  0
   11.1175    8.9633    2.7090 H   0  0  0  0  0  0  0  0  0  0  0  0
   10.8981    8.5191    0.3335 H   0  0  0  0  0  0  0  0  0  0  0  0
   12.2040    9.6868   -0.0639 H   0  0  0  0  0  0  0  0  0  0  0  0
   12.4146    6.9530    1.2691 H   0  0  0  0  0  0  0  0  0  0  0  0
   13.6986    8.1892    1.4922 H   0  0  0  0  0  0  0  0  0  0  0  0
   16.0658    6.7443   -2.0325 H   0  0  0  0  0  0  0  0  0  0  0  0
   14.4014    6.9146   -2.6865 H   0  0  0  0  0  0  0  0  0  0  0  0
   15.7345    5.0331   -4.0980 H   0  0  0  0  0  0  0  0  0  0  0  0
   14.2907    1.5507   -4.5067 H   0  0  0  0  0  0  0  0  0  0  0  0
   13.9035    3.1993   -5.0676 H   0  0  0  0  0  0  0  0  0  0  0  0
  1  5  2  0  0  0  0
  1  2  1  0  0  0  0
  1 22  1  0  0  0  0
  2  3  2  0  0  0  0
  2 23  1  0  0  0  0
  3  4  1  0  0  0  0
  3  6  1  0  0  0  0
  4  5  1  0  0  0  0
  5 24  1  0  0  0  0
  6  7  2  0  0  0  0
  6  8  1  0  0  0  0
  8  9  1  0  0  0  0
  8 25  1  0  0  0  0
  9 10  1  0  0  0  0
  9 26  1  0  0  0  0
  9 27  1  0  0  0  0
 10 11  1  0  0  0  0
 10 28  1  0  0  0  0
 10 29  1  0  0  0  0
 11 12  1  0  0  0  0
 11 30  1  0  0  0  0
 11 31  1  0  0  0  0
 12 13  2  0  0  0  0
 12 14  1  0  0  0  0
 14 15  1  0  0  0  0
 15 16  1  0  0  0  0
 15 32  1  0  0  0  0
 15 33  1  0  0  0  0
 16 17  2  0  0  0  0
 16 18  1  0  0  0  0
 18 19  1  0  0  0  0
 18 34  1  0  0  0  0
 19 20  2  0  0  0  0
 19 21  1  0  0  0  0
 21 35  1  0  0  0  0
 21 36  1  0  0  0  0
M  END
> <Name>
ZINC24331310

> <reference>
BDB5021

> <quality>
0.648

> <status>
decoy

> <atoms in reference ligand area>
10

> <score>
-20.6979

$$$$
ZINC22150898
      BALL 1.4.0 (Jan  4 2012, 23:22:29)

 43 44  0999  0  0  0  0  0  0999 V2000
   17.1154    7.9040    2.2571 C   0  0  0  0  0  0  0  0  0  0  0  0
   16.1118    9.0588    2.2728 C   0  0  0  0  0  0  0  0  0  0  0  0
   14.8156    8.5878    1.7668 N   0  3  0  0  0  0  0  0  0  0  0  0
   14.4367    7.3145    2.3939 C   0  0  0  0  0  0  0  0  0  0  0  0
   13.0647    6.8791    1.8756 C   0  0  0  0  0  0  0  0  0  0  0  0
   13.7726    9.6031    1.9652 C   0  0  0  0  0  0  0  0  0  0  0  0
   13.9002   10.1977    3.3691 C   0  0  0  0  0  0  0  0  0  0  0  0
   12.6338   10.8285    3.7493 N   0  0  0  0  0  0  0  0  0  0  0  0
   12.1265   11.8619    2.9956 C   0  0  0  0  0  0  0  0  0  0  0  0
   11.5238   12.9743    3.4923 N   0  5  0  0  0  0  0  0  0  0  0  0
   11.1633   13.7546    2.4018 C   0  0  0  0  0  0  0  0  0  0  0  0
   11.5753   13.0596    1.2699 C   0  0  0  0  0  0  0  0  0  0  0  0
   12.1493   11.9272    1.6797 N   0  0  0  0  0  0  0  0  0  0  0  0
   11.3387   13.6149    0.0227 N   0  0  0  0  0  0  0  0  0  0  0  0
   10.7159   14.8043   -0.0787 C   0  0  0  0  0  0  0  0  0  0  0  0
   10.5118   15.2747   -1.1814 O   0  0  0  0  0  0  0  0  0  0  0  0
   10.3186   15.4866    1.0090 N   0  0  0  0  0  0  0  0  0  0  0  0
   10.5213   14.9962    2.2493 C   0  0  0  0  0  0  0  0  0  0  0  0
   10.1513   15.6224    3.2271 O   0  0  0  0  0  0  0  0  0  0  0  0
    9.6500   16.7799    0.8450 C   0  0  0  0  0  0  0  0  0  0  0  0
   11.7619   12.9048   -1.1869 C   0  0  0  0  0  0  0  0  0  0  0  0
   18.0262    8.2010    2.7975 H   0  0  0  0  0  0  0  0  0  0  0  0
   17.3719    7.6539    1.2171 H   0  0  0  0  0  0  0  0  0  0  0  0
   16.6709    7.0244    2.7456 H   0  0  0  0  0  0  0  0  0  0  0  0
   15.9913    9.4261    3.3026 H   0  0  0  0  0  0  0  0  0  0  0  0
   16.4799    9.8746    1.6331 H   0  0  0  0  0  0  0  0  0  0  0  0
   14.9111    8.4258    0.7541 H   0  0  0  0  0  0  0  0  0  0  0  0
   14.3921    7.4412    3.4857 H   0  0  0  0  0  0  0  0  0  0  0  0
   15.1832    6.5462    2.1441 H   0  0  0  0  0  0  0  0  0  0  0  0
   12.6999    6.0285    2.4701 H   0  0  0  0  0  0  0  0  0  0  0  0
   13.1483    6.5792    0.8205 H   0  0  0  0  0  0  0  0  0  0  0  0
   12.3566    7.7164    1.9625 H   0  0  0  0  0  0  0  0  0  0  0  0
   13.8907   10.4012    1.2175 H   0  0  0  0  0  0  0  0  0  0  0  0
   12.7816    9.1392    1.8530 H   0  0  0  0  0  0  0  0  0  0  0  0
   14.1406    9.3982    4.0855 H   0  0  0  0  0  0  0  0  0  0  0  0
   14.7016   10.9512    3.3780 H   0  0  0  0  0  0  0  0  0  0  0  0
   12.1233   10.4985    4.5807 H   0  0  0  0  0  0  0  0  0  0  0  0
   10.0094   17.4008    1.6789 H   0  0  0  0  0  0  0  0  0  0  0  0
    8.5828   16.5798    1.0209 H   0  0  0  0  0  0  0  0  0  0  0  0
    9.8308   17.2497   -0.1331 H   0  0  0  0  0  0  0  0  0  0  0  0
   12.8308   12.6942   -1.0347 H   0  0  0  0  0  0  0  0  0  0  0  0
   11.6895   13.6484   -1.9942 H   0  0  0  0  0  0  0  0  0  0  0  0
   11.1803   11.9957   -1.3993 H   0  0  0  0  0  0  0  0  0  0  0  0
  1  2  1  0  0  0  0
  1 22  1  0  0  0  0
  1 23  1  0  0  0  0
  1 24  1  0  0  0  0
  2  3  1  0  0  0  0
  2 25  1  0  0  0  0
  2 26  1  0  0  0  0
  3  4  1  0  0  0  0
  3  6  1  0  0  0  0
  3 27  1  0  0  0  0
  4  5  1  0  0  0  0
  4 28  1  0  0  0  0
  4 29  1  0  0  0  0
  5 30  1  0  0  0  0
  5 31  1  0  0  0  0
  5 32  1  0  0  0  0
  6  7  1  0  0  0  0
  6 33  1  0  0  0  0
  6 34  1  0  0  0  0
  7  8  1  0  0  0  0
  7 35  1  0  0  0  0
  7 36  1  0  0  0  0
  8  9  1  0  0  0  0
  8 37  1  0  0  0  0
  9 13  2  0  0  0  0
  9 10  1  0  0  0  0
 10 11  1  0  0  0  0
 11 18  1  0  0  0  0
 11 12  2  0  0  0  0
 12 13  1  0  0  0  0
 12 14  1  0  0  0  0
 14 15  1  0  0  0  0
 14 21  1  0  0  0  0
 15 16  2  0  0  0  0
 15 17  1  0  0  0  0
 17 18  1  0  0  0  0
 17 20  1  0  0  0  0
 18 19  2  0  0  0  0
 20 38  1  0  0  0  0
 20 39  1  0  0  0  0
 20 40  1  0  0  0  0
 21 41  1  0  0  0  0
 21 42  1  0  0  0  0
 21 43  1  0  0  0  0
M  END
> <Name>
ZINC22150898

> <reference>
BDB4995

> <quality>
0.793

> <status>
decoy

> <atoms in reference ligand area>
11

> <score>
-20.6829

$$$$
ZINC23581324
      BALL 1.4.0 (Jan  4 2012, 23:22:29)

 46 48  0999  0  0  0  0  0  0999 V2000
   17.3125   11.0828    8.3449 C   0  0  0  0  0  0  0  0  0  0  0  0
   15.9188   11.0215    8.2443 C   0  0  0  0  0  0  0  0  0  0  0  0
   15.6151   10.2105    7.2636 N   0  0  0  0  0  0  0  0  0  0  0  0
   16.8077    9.7221    6.7143 N   0  0  0  0  0  0  0  0  0  0  0  0
   17.8346   10.2750    7.3931 C   0  0  0  0  0  0  0  0  0  0  0  0
   16.9203    8.7821    5.5963 C   0  0  0  0  0  0  0  0  0  0  0  0
   16.8520    9.5506    4.2750 C   0  0  0  0  0  0  0  0  0  0  0  0
   15.4938   10.0631    4.0778 N   0  0  0  0  0  0  0  0  0  0  0  0
   15.0337   11.0561    4.8640 C   0  0  0  0  0  0  0  0  0  0  0  0
   15.7450   11.5274    5.7380 O   0  0  0  0  0  0  0  0  0  0  0  0
   13.7360   11.5485    4.6692 C   0  0  0  0  0  0  0  0  0  0  0  0
   12.9495   10.9931    3.6770 C   0  0  0  0  0  0  0  0  0  0  0  0
   13.4715    9.9501    2.8814 C   0  0  0  0  0  0  0  0  0  0  0  0
   14.6835    9.5135    3.0788 N   0  0  0  0  0  0  0  0  0  0  0  0
   11.6626   11.4552    3.4658 N   0  0  0  0  0  0  0  0  0  0  0  0
   10.7051   10.7676    4.3444 C   0  0  0  0  0  0  0  0  0  0  0  0
    9.3068   11.3496    4.1210 C   0  0  0  0  0  0  0  0  0  0  0  0
    8.9594   11.2253    2.7393 O   0  0  0  0  0  0  0  0  0  0  0  0
    9.8704   11.8840    1.8551 C   0  0  0  0  0  0  0  0  0  0  0  0
   11.2745   11.3074    2.0555 C   0  0  0  0  0  0  0  0  0  0  0  0
    9.4285   11.6611    0.4073 C   0  0  0  0  0  0  0  0  0  0  0  0
    7.9194   11.8867    0.2943 C   0  0  0  0  0  0  0  0  0  0  0  0
    7.6641   13.1198   -0.4621 N   0  3  0  0  0  0  0  0  0  0  0  0
   17.8833   11.6817    9.0697 H   0  0  0  0  0  0  0  0  0  0  0  0
   15.2019   11.5619    8.8800 H   0  0  0  0  0  0  0  0  0  0  0  0
   18.9045   10.1004    7.2062 H   0  0  0  0  0  0  0  0  0  0  0  0
   17.8803    8.2489    5.6605 H   0  0  0  0  0  0  0  0  0  0  0  0
   16.0944    8.0570    5.6409 H   0  0  0  0  0  0  0  0  0  0  0  0
   17.5603   10.3918    4.3029 H   0  0  0  0  0  0  0  0  0  0  0  0
   17.1136    8.8784    3.4446 H   0  0  0  0  0  0  0  0  0  0  0  0
   13.3490   12.3649    5.2966 H   0  0  0  0  0  0  0  0  0  0  0  0
   12.8515    9.5034    2.0902 H   0  0  0  0  0  0  0  0  0  0  0  0
   10.9989   10.9126    5.3945 H   0  0  0  0  0  0  0  0  0  0  0  0
   10.6968    9.6930    4.1092 H   0  0  0  0  0  0  0  0  0  0  0  0
    8.5777   10.7989    4.7335 H   0  0  0  0  0  0  0  0  0  0  0  0
    9.3002   12.4118    4.4065 H   0  0  0  0  0  0  0  0  0  0  0  0
    9.8800   12.9624    2.0715 H   0  0  0  0  0  0  0  0  0  0  0  0
   11.9883   11.8511    1.4191 H   0  0  0  0  0  0  0  0  0  0  0  0
   11.2753   10.2418    1.7829 H   0  0  0  0  0  0  0  0  0  0  0  0
    9.9547   12.3690   -0.2499 H   0  0  0  0  0  0  0  0  0  0  0  0
    9.6683   10.6313    0.1040 H   0  0  0  0  0  0  0  0  0  0  0  0
    7.4593   11.0349   -0.2279 H   0  0  0  0  0  0  0  0  0  0  0  0
    7.4848   11.9781    1.3007 H   0  0  0  0  0  0  0  0  0  0  0  0
    7.2635   12.8834   -1.3811 H   0  0  0  0  0  0  0  0  0  0  0  0
    8.5479   13.6317   -0.5948 H   0  0  0  0  0  0  0  0  0  0  0  0
    7.0007   13.7115    0.0584 H   0  0  0  0  0  0  0  0  0  0  0  0
  1  5  2  0  0  0  0
  1  2  1  0  0  0  0
  1 24  1  0  0  0  0
  2  3  2  0  0  0  0
  2 25  1  0  0  0  0
  3  4  1  0  0  0  0
  4  5  1  0  0  0  0
  4  6  1  0  0  0  0
  5 26  1  0  0  0  0
  6  7  1  0  0  0  0
  6 27  1  0  0  0  0
  6 28  1  0  0  0  0
  7  8  1  0  0  0  0
  7 29  1  0  0  0  0
  7 30  1  0  0  0  0
  8 14  1  0  0  0  0
  8  9  1  0  0  0  0
  9 10  2  0  0  0  0
  9 11  1  0  0  0  0
 11 12  2  0  0  0  0
 11 31  1  0  0  0  0
 12 13  1  0  0  0  0
 12 15  1  0  0  0  0
 13 14  2  0  0  0  0
 13 32  1  0  0  0  0
 15 20  1  0  0  0  0
 15 16  1  0  0  0  0
 16 17  1  0  0  0  0
 16 33  1  0  0  0  0
 16 34  1  0  0  0  0
 17 18  1  0  0  0  0
 17 35  1  0  0  0  0
 17 36  1  0  0  0  0
 18 19  1  0  0  0  0
 19 20  1  0  0  0  0
 19 21  1  0  0  0  0
 19 37  1  0  0  0  0
 20 38  1  0  0  0  0
 20 39  1  0  0  0  0
 21 22  1  0  0  0  0
 21 40  1  0  0  0  0
 21 41  1  0  0  0  0
 22 23  1  0  0  0  0
 22 42  1  0  0  0  0
 22 43  1  0  0  0  0
 23 44  1  0  0  0  0
 23 45  1  0  0  0  0
 23 46  1  0  0  0  0
M  END
> <Name>
ZINC23581324

> <reference>
BDB5198

> <quality>
0.750

> <status>
decoy

> <atoms in reference ligand area>
19

> <score>
-20.4804

$$$$
ZINC19786946
      BALL 1.4.0 (Jan  4 2012, 23:22:29)

 44 45  0999  0  0  0  0  0  0999 V2000
   16.6082   12.0724    7.0333 C   0  0  0  0  0  0  0  0  0  0  0  0
   15.5607   12.1361    5.9200 C   0  0  0  0  0  0  0  0  0  0  0  0
   15.8866   13.2977    4.9791 C   0  0  0  0  0  0  0  0  0  0  0  0
   15.5719   10.8240    5.1334 C   0  0  0  0  0  0  0  0  0  0  0  0
   14.2260   10.6129    4.4891 C   0  0  0  0  0  0  0  0  0  0  0  0
   13.6274    9.4697    4.3109 N   0  0  0  0  0  0  0  0  0  0  0  0
   12.4934    9.6666    3.7357 N   0  0  0  0  0  0  0  0  0  0  0  0
   12.3300   10.9421    3.5274 C   0  0  0  0  0  0  0  0  0  0  0  0
   13.4206   11.5699    3.9984 O   0  0  0  0  0  0  0  0  0  0  0  0
   11.1368   11.5939    2.8774 C   0  0  0  0  0  0  0  0  0  0  0  0
   10.9844   11.0910    1.5486 O   0  0  0  0  0  0  0  0  0  0  0  0
   10.2483   11.8417    0.6845 C   0  0  0  0  0  0  0  0  0  0  0  0
    8.8784   11.6346    0.5742 C   0  0  0  0  0  0  0  0  0  0  0  0
    8.1310   12.4057   -0.3032 C   0  0  0  0  0  0  0  0  0  0  0  0
    8.7485   13.3712   -1.0759 C   0  0  0  0  0  0  0  0  0  0  0  0
   10.1116   13.5765   -0.9734 C   0  0  0  0  0  0  0  0  0  0  0  0
   10.8652   12.8136   -0.0942 C   0  0  0  0  0  0  0  0  0  0  0  0
   12.2062   13.0165    0.0063 O   0  0  0  0  0  0  0  0  0  0  0  0
   12.7091   14.2710   -0.4578 C   0  0  0  0  0  0  0  0  0  0  0  0
    8.2709   10.6811    1.3300 O   0  0  0  0  0  0  0  0  0  0  0  0
    6.8582   10.7989    1.5104 C   0  0  0  0  0  0  0  0  0  0  0  0
   15.8585    9.7087    6.0455 N   0  3  0  0  0  0  0  0  0  0  0  0
   17.4393   11.4239    6.7195 H   0  0  0  0  0  0  0  0  0  0  0  0
   16.1500   11.6643    7.9463 H   0  0  0  0  0  0  0  0  0  0  0  0
   16.9901   13.0837    7.2366 H   0  0  0  0  0  0  0  0  0  0  0  0
   14.5651   12.2903    6.3617 H   0  0  0  0  0  0  0  0  0  0  0  0
   16.3908   12.9127    4.0805 H   0  0  0  0  0  0  0  0  0  0  0  0
   16.5473   14.0122    5.4919 H   0  0  0  0  0  0  0  0  0  0  0  0
   14.9558   13.8057    4.6865 H   0  0  0  0  0  0  0  0  0  0  0  0
   16.3479   10.8697    4.3550 H   0  0  0  0  0  0  0  0  0  0  0  0
   10.2320   11.3674    3.4607 H   0  0  0  0  0  0  0  0  0  0  0  0
   11.2867   12.6830    2.8415 H   0  0  0  0  0  0  0  0  0  0  0  0
    7.0453   12.2487   -0.3843 H   0  0  0  0  0  0  0  0  0  0  0  0
    8.1534   13.9779   -1.7744 H   0  0  0  0  0  0  0  0  0  0  0  0
   10.5992   14.3460   -1.5900 H   0  0  0  0  0  0  0  0  0  0  0  0
   12.3304   14.3959   -1.4829 H   0  0  0  0  0  0  0  0  0  0  0  0
   13.8025   14.1646   -0.5127 H   0  0  0  0  0  0  0  0  0  0  0  0
   12.4158   15.1121    0.1877 H   0  0  0  0  0  0  0  0  0  0  0  0
    6.5201    9.8429    1.9368 H   0  0  0  0  0  0  0  0  0  0  0  0
    6.4245   10.8916    0.5037 H   0  0  0  0  0  0  0  0  0  0  0  0
    6.5805   11.6489    2.1510 H   0  0  0  0  0  0  0  0  0  0  0  0
   15.1322    9.6648    6.7746 H   0  0  0  0  0  0  0  0  0  0  0  0
   16.7784    9.8519    6.4862 H   0  0  0  0  0  0  0  0  0  0  0  0
   15.8663    8.8249    5.5166 H   0  0  0  0  0  0  0  0  0  0  0  0
  1  2  1  0  0  0  0
  1 23  1  0  0  0  0
  1 24  1  0  0  0  0
  1 25  1  0  0  0  0
  2  3  1  0  0  0  0
  2  4  1  0  0  0  0
  2 26  1  0  0  0  0
  3 27  1  0  0  0  0
  3 28  1  0  0  0  0
  3 29  1  0  0  0  0
  4  5  1  0  0  0  0
  4 22  1  0  0  0  0
  4 30  1  0  0  0  0
  5  9  1  0  0  0  0
  5  6  2  0  0  0  0
  6  7  1  0  0  0  0
  7  8  2  0  0  0  0
  8  9  1  0  0  0  0
  8 10  1  0  0  0  0
 10 11  1  0  0  0  0
 10 31  1  0  0  0  0
 10 32  1  0  0  0  0
 11 12  1  0  0  0  0
 12 17  2  0  0  0  0
 12 13  1  0  0  0  0
 13 14  2  0  0  0  0
 13 20  1  0  0  0  0
 14 15  1  0  0  0  0
 14 33  1  0  0  0  0
 15 16  2  0  0  0  0
 15 34  1  0  0  0  0
 16 17  1  0  0  0  0
 16 35  1  0  0  0  0
 17 18  1  0  0  0  0
 18 19  1  0  0  0  0
 19 36  1  0  0  0  0
 19 37  1  0  0  0  0
 19 38  1  0  0  0  0
 20 21  1  0  0  0  0
 21 39  1  0  0  0  0
 21 40  1  0  0  0  0
 21 41  1  0  0  0  0
 22 42  1  0  0  0  0
 22 43  1  0  0  0  0
 22 44  1  0  0  0  0
M  END
> <Name>
ZINC19786946

> <reference>
BDB5025

> <quality>
0.745

> <status>
decoy

> <atoms in reference ligand area>
18

> <score>
-20.4592

$$$$
ZINC20920233
      BALL 1.4.0 (Jan  4 2012, 23:22:29)

 49 51  0999  0  0  0  0  0  0999 V2000
   22.1211   11.4829    2.9344 C   0  0  0  0  0  0  0  0  0  0  0  0
   21.9402   10.9346    4.3265 C   0  0  0  0  0  0  0  0  0  0  0  0
   22.3526    9.7768    4.7586 N   0  0  0  0  0  0  0  0  0  0  0  0
   22.0298    9.6437    5.9971 N   0  0  0  0  0  0  0  0  0  0  0  0
   21.4007   10.7120    6.3971 C   0  0  0  0  0  0  0  0  0  0  0  0
   21.3292   11.5525    5.3513 O   0  0  0  0  0  0  0  0  0  0  0  0
   20.8534   10.9596    7.7792 C   0  0  0  0  0  0  0  0  0  0  0  0
   19.8597    9.5343    8.3002 S   0  0  0  0  0  0  0  0  0  0  0  0
   18.3119    9.7760    7.4937 C   0  0  0  0  0  0  0  0  0  0  0  0
   17.1286    9.5499    8.0124 N   0  0  0  0  0  0  0  0  0  0  0  0
   16.1647    9.8682    7.0468 N   0  0  0  0  0  0  0  0  0  0  0  0
   16.7900   10.2783    5.9699 C   0  0  0  0  0  0  0  0  0  0  0  0
   18.1335   10.2376    6.2204 N   0  0  0  0  0  0  0  0  0  0  0  0
   19.1238   10.5927    5.3490 N   0  0  0  0  0  0  0  0  0  0  0  0
   16.1931   10.6876    4.7863 N   0  0  0  0  0  0  0  0  0  0  0  0
   14.7971   10.6845    4.6681 N   0  0  0  0  0  0  0  0  0  0  0  0
   14.2092   11.5444    3.8927 C   0  0  0  0  0  0  0  0  0  0  0  0
   12.7403   11.5412    3.7684 C   0  0  0  0  0  0  0  0  0  0  0  0
   11.9796   10.6098    4.4797 C   0  0  0  0  0  0  0  0  0  0  0  0
   10.6011   10.6122    4.3643 C   0  0  0  0  0  0  0  0  0  0  0  0
    9.9727   11.5344    3.5334 C   0  0  0  0  0  0  0  0  0  0  0  0
   10.7277   12.4597    2.8198 C   0  0  0  0  0  0  0  0  0  0  0  0
   12.1063   12.4657    2.9346 C   0  0  0  0  0  0  0  0  0  0  0  0
   10.1097   13.3591    2.0080 O   0  0  0  0  0  0  0  0  0  0  0  0
    9.9282   14.6799    2.5226 C   0  0  0  0  0  0  0  0  0  0  0  0
    8.6169   11.5311    3.4184 O   0  0  0  0  0  0  0  0  0  0  0  0
    7.9674   12.8027    3.3633 C   0  0  0  0  0  0  0  0  0  0  0  0
    9.8596    9.7086    5.0596 O   0  0  0  0  0  0  0  0  0  0  0  0
    8.4420    9.7642    4.8888 C   0  0  0  0  0  0  0  0  0  0  0  0
   22.0789   12.5698    3.0985 H   0  0  0  0  0  0  0  0  0  0  0  0
   21.1721   11.2149    2.4470 H   0  0  0  0  0  0  0  0  0  0  0  0
   23.0153   11.1466    2.3893 H   0  0  0  0  0  0  0  0  0  0  0  0
   21.6862   11.1023    8.4835 H   0  0  0  0  0  0  0  0  0  0  0  0
   20.2229   11.8610    7.7691 H   0  0  0  0  0  0  0  0  0  0  0  0
   19.5888    9.8147    4.8598 H   0  0  0  0  0  0  0  0  0  0  0  0
   19.3996   11.5707    5.1807 H   0  0  0  0  0  0  0  0  0  0  0  0
   16.7763   10.9937    3.9944 H   0  0  0  0  0  0  0  0  0  0  0  0
   14.8074   12.2752    3.3286 H   0  0  0  0  0  0  0  0  0  0  0  0
   12.4764    9.8754    5.1307 H   0  0  0  0  0  0  0  0  0  0  0  0
   12.7026   13.1976    2.3700 H   0  0  0  0  0  0  0  0  0  0  0  0
   10.7366   14.8419    3.2508 H   0  0  0  0  0  0  0  0  0  0  0  0
    8.9757   14.6692    3.0726 H   0  0  0  0  0  0  0  0  0  0  0  0
    9.9326   15.4477    1.7349 H   0  0  0  0  0  0  0  0  0  0  0  0
    8.7468   13.5375    3.1131 H   0  0  0  0  0  0  0  0  0  0  0  0
    7.6181   13.0159    4.3843 H   0  0  0  0  0  0  0  0  0  0  0  0
    7.1401   12.8269    2.6388 H   0  0  0  0  0  0  0  0  0  0  0  0
    8.1473   10.8055    5.0855 H   0  0  0  0  0  0  0  0  0  0  0  0
    8.0101    9.1358    5.6817 H   0  0  0  0  0  0  0  0  0  0  0  0
    8.1204    9.4340    3.8900 H   0  0  0  0  0  0  0  0  0  0  0  0
  1  2  1  0  0  0  0
  1 30  1  0  0  0  0
  1 31  1  0  0  0  0
  1 32  1  0  0  0  0
  2  6  1  0  0  0  0
  2  3  2  0  0  0  0
  3  4  1  0  0  0  0
  4  5  2  0  0  0  0
  5  6  1  0  0  0  0
  5  7  1  0  0  0  0
  7  8  1  0  0  0  0
  7 33  1  0  0  0  0
  7 34  1  0  0  0  0
  8  9  1  0  0  0  0
  9 13  1  0  0  0  0
  9 10  2  0  0  0  0
 10 11  1  0  0  0  0
 11 12  2  0  0  0  0
 12 13  1  0  0  0  0
 12 15  1  0  0  0  0
 13 14  1  0  0  0  0
 14 35  1  0  0  0  0
 14 36  1  0  0  0  0
 15 16  1  0  0  0  0
 15 37  1  0  0  0  0
 16 17  2  0  0  0  0
 17 18  1  0  0  0  0
 17 38  1  0  0  0  0
 18 23  2  0  0  0  0
 18 19  1  0  0  0  0
 19 20  2  0  0  0  0
 19 39  1  0  0  0  0
 20 21  1  0  0  0  0
 20 28  1  0  0  0  0
 21 22  2  0  0  0  0
 21 26  1  0  0  0  0
 22 23  1  0  0  0  0
 22 24  1  0  0  0  0
 23 40  1  0  0  0  0
 24 25  1  0  0  0  0
 25 41  1  0  0  0  0
 25 42  1  0  0  0  0
 25 43  1  0  0  0  0
 26 27  1  0  0  0  0
 27 44  1  0  0  0  0
 27 45  1  0  0  0  0
 27 46  1  0  0  0  0
 28 29  1  0  0  0  0
 29 47  1  0  0  0  0
 29 48  1  0  0  0  0
 29 49  1  0  0  0  0
M  END
> <Name>
ZINC20920233

> <reference>
BDB4965

> <quality>
0.809

> <status>
decoy

> <atoms in reference ligand area>
13

> <score>
-20.221

$$$$
ZINC06178420
      BALL 1.4.0 (Jan  4 2012, 23:22:29)

 41 41  0999  0  0  0  0  0  0999 V2000
    8.1206   10.7786    3.1575 C   0  0  0  0  0  0  0  0  0  0  0  0
    8.6003   10.3443    1.8432 N   0  0  0  0  0  0  0  0  0  0  0  0
    7.9756   10.8069    0.6851 C   0  0  0  0  0  0  0  0  0  0  0  0
    6.6944   10.3738    0.3640 C   0  0  0  0  0  0  0  0  0  0  0  0
    6.0770   10.8384   -0.7803 C   0  0  0  0  0  0  0  0  0  0  0  0
    6.7362   11.7246   -1.6127 C   0  0  0  0  0  0  0  0  0  0  0  0
    8.0133   12.1534   -1.2995 C   0  0  0  0  0  0  0  0  0  0  0  0
    8.6350   11.6977   -0.1540 C   0  0  0  0  0  0  0  0  0  0  0  0
    9.6865    9.4645    1.7495 N   0  0  0  0  0  0  0  0  0  0  0  0
   10.0229    8.7341    2.7734 C   0  0  0  0  0  0  0  0  0  0  0  0
   11.1567    7.8158    2.6757 C   0  0  0  0  0  0  0  0  0  0  0  0
   11.2666    6.8260    3.5135 N   0  0  0  0  0  0  0  0  0  0  0  0
   12.2796    5.8733    3.3433 N   0  0  0  0  0  0  0  0  0  0  0  0
   12.1981    8.0156    1.6047 C   0  0  0  0  0  0  0  0  0  0  0  0
   11.7265    7.3584    0.3059 C   0  0  0  0  0  0  0  0  0  0  0  0
   12.8408    7.4377   -0.7395 C   0  0  0  0  0  0  0  0  0  0  0  0
   13.8670    6.3340   -0.4757 C   0  0  0  0  0  0  0  0  0  0  0  0
   15.0412    6.9044    0.1056 O   0  0  0  0  0  0  0  0  0  0  0  0
   12.2830    7.2675   -2.0441 O   0  0  0  0  0  0  0  0  0  0  0  0
   11.4035    5.9889    0.5550 O   0  0  0  0  0  0  0  0  0  0  0  0
   12.3949    9.4140    1.3868 O   0  0  0  0  0  0  0  0  0  0  0  0
    7.2026   10.1980    3.3315 H   0  0  0  0  0  0  0  0  0  0  0  0
    7.8191   11.8273    3.0183 H   0  0  0  0  0  0  0  0  0  0  0  0
    8.8558   10.6559    3.9665 H   0  0  0  0  0  0  0  0  0  0  0  0
    6.1731    9.6618    1.0208 H   0  0  0  0  0  0  0  0  0  0  0  0
    5.0595   10.5034   -1.0302 H   0  0  0  0  0  0  0  0  0  0  0  0
    6.2437   12.0893   -2.5261 H   0  0  0  0  0  0  0  0  0  0  0  0
    8.5345   12.8583   -1.9639 H   0  0  0  0  0  0  0  0  0  0  0  0
    9.6507   12.0391    0.0943 H   0  0  0  0  0  0  0  0  0  0  0  0
    9.4542    8.8077    3.7121 H   0  0  0  0  0  0  0  0  0  0  0  0
   12.5198    5.5399    2.3988 H   0  0  0  0  0  0  0  0  0  0  0  0
   12.7843    5.5062    4.1627 H   0  0  0  0  0  0  0  0  0  0  0  0
   13.1456    7.5574    1.9245 H   0  0  0  0  0  0  0  0  0  0  0  0
   10.8350    7.8832   -0.0679 H   0  0  0  0  0  0  0  0  0  0  0  0
   13.3334    8.4191   -0.6765 H   0  0  0  0  0  0  0  0  0  0  0  0
   13.4392    5.5929    0.2155 H   0  0  0  0  0  0  0  0  0  0  0  0
   14.1300    5.8421   -1.4238 H   0  0  0  0  0  0  0  0  0  0  0  0
   15.1522    7.8338   -0.2169 H   0  0  0  0  0  0  0  0  0  0  0  0
   11.3545    7.6109   -2.0544 H   0  0  0  0  0  0  0  0  0  0  0  0
   10.5071    5.7878    0.1859 H   0  0  0  0  0  0  0  0  0  0  0  0
   12.9529    9.5479    0.5800 H   0  0  0  0  0  0  0  0  0  0  0  0
  1  2  1  0  0  0  0
  1 22  1  0  0  0  0
  1 23  1  0  0  0  0
  1 24  1  0  0  0  0
  2  3  1  0  0  0  0
  2  9  1  0  0  0  0
  3  8  2  0  0  0  0
  3  4  1  0  0  0  0
  4  5  2  0  0  0  0
  4 25  1  0  0  0  0
  5  6  1  0  0  0  0
  5 26  1  0  0  0  0
  6  7  2  0  0  0  0
  6 27  1  0  0  0  0
  7  8  1  0  0  0  0
  7 28  1  0  0  0  0
  8 29  1  0  0  0  0
  9 10  2  0  0  0  0
 10 11  1  0  0  0  0
 10 30  1  0  0  0  0
 11 12  2  0  0  0  0
 11 14  1  0  0  0  0
 12 13  1  0  0  0  0
 13 31  1  0  0  0  0
 13 32  1  0  0  0  0
 14 15  1  0  0  0  0
 14 21  1  0  0  0  0
 14 33  1  0  0  0  0
 15 16  1  0  0  0  0
 15 20  1  0  0  0  0
 15 34  1  0  0  0  0
 16 17  1  0  0  0  0
 16 19  1  0  0  0  0
 16 35  1  0  0  0  0
 17 18  1  0  0  0  0
 17 36  1  0  0  0  0
 17 37  1  0  0  0  0
 18 38  1  0  0  0  0
 19 39  1  0  0  0  0
 20 40  1  0  0  0  0
 21 41  1  0  0  0  0
M  END
> <Name>
ZINC06178420

> <reference>
BDB5009

> <quality>
0.754

> <status>
decoy

> <atoms in reference ligand area>
14

> <score>
-20.1474

$$$$
ZINC20395712
      BALL 1.4.0 (Jan  4 2012, 23:22:29)

 26 26  0999  0  0  0  0  0  0999 V2000
   14.9535   13.0771    5.2411 C   0  0  0  0  0  0  0  0  0  0  0  0
   14.2393   12.1419    4.2633 C   0  0  0  0  0  0  0  0  0  0  0  0
   14.4054   10.4283    4.8349 S   0  0  0  0  0  0  0  0  0  0  0  0
   12.7100    9.7847    4.7908 C   0  0  0  0  0  0  0  0  0  0  0  0
   11.9363   10.4815    3.7014 C   0  0  0  0  0  0  0  0  0  0  0  0
   10.8568   11.1946    3.8560 N   0  0  0  0  0  0  0  0  0  0  0  0
   10.4576   11.6431    2.7196 N   0  0  0  0  0  0  0  0  0  0  0  0
   11.2681   11.2366    1.7703 C   0  0  0  0  0  0  0  0  0  0  0  0
   12.2372   10.4825    2.3674 N   0  0  0  0  0  0  0  0  0  0  0  0
   13.2890    9.8586    1.7586 N   0  0  0  0  0  0  0  0  0  0  0  0
   11.1349   11.6014    0.0516 S   0  0  0  0  0  0  0  0  0  0  0  0
   11.2345   13.4079    0.1051 C   0  0  0  0  0  0  0  0  0  0  0  0
   11.8625   13.9143   -1.1677 C   0  0  0  0  0  0  0  0  0  0  0  0
   12.1871   15.0744   -1.2613 O   0  0  0  0  0  0  0  0  0  0  0  0
   12.0614   13.0766   -2.1975 O   0  5  0  0  0  0  0  0  0  0  0  0
   14.9231   12.6450    6.2522 H   0  0  0  0  0  0  0  0  0  0  0  0
   14.4523   14.0563    5.2461 H   0  0  0  0  0  0  0  0  0  0  0  0
   16.0008   13.2043    4.9294 H   0  0  0  0  0  0  0  0  0  0  0  0
   13.1735   12.4091    4.2121 H   0  0  0  0  0  0  0  0  0  0  0  0
   14.6902   12.2399    3.2647 H   0  0  0  0  0  0  0  0  0  0  0  0
   12.2222    9.9667    5.7599 H   0  0  0  0  0  0  0  0  0  0  0  0
   12.7332    8.7036    4.5894 H   0  0  0  0  0  0  0  0  0  0  0  0
   13.4311   10.1125    0.7705 H   0  0  0  0  0  0  0  0  0  0  0  0
   13.9044    9.1831    2.2337 H   0  0  0  0  0  0  0  0  0  0  0  0
   11.8482   13.7171    0.9641 H   0  0  0  0  0  0  0  0  0  0  0  0
   10.2231   13.8282    0.2067 H   0  0  0  0  0  0  0  0  0  0  0  0
  1  2  1  0  0  0  0
  1 16  1  0  0  0  0
  1 17  1  0  0  0  0
  1 18  1  0  0  0  0
  2  3  1  0  0  0  0
  2 19  1  0  0  0  0
  2 20  1  0  0  0  0
  3  4  1  0  0  0  0
  4  5  1  0  0  0  0
  4 21  1  0  0  0  0
  4 22  1  0  0  0  0
  5  9  1  0  0  0  0
  5  6  2  0  0  0  0
  6  7  1  0  0  0  0
  7  8  2  0  0  0  0
  8  9  1  0  0  0  0
  8 11  1  0  0  0  0
  9 10  1  0  0  0  0
 10 23  1  0  0  0  0
 10 24  1  0  0  0  0
 11 12  1  0  0  0  0
 12 13  1  0  0  0  0
 12 25  1  0  0  0  0
 12 26  1  0  0  0  0
 13 14  2  0  0  0  0
 13 15  1  0  0  0  0
M  END
> <Name>
ZINC20395712

> <reference>
BDB5015

> <quality>
0.712

> <status>
decoy

> <atoms in reference ligand area>
10

> <score>
-19.9315

$$$$
ZINC30516950
      BALL 1.4.0 (Jan  4 2012, 23:22:29)

 34 36  0999  0  0  0  0  0  0999 V2000
   20.6149   11.8048   10.3933 C   0  0  0  0  0  0  0  0  0  0  0  0
   19.2393   11.6013   10.1674 C   0  0  0  0  0  0  0  0  0  0  0  0
   19.1190   11.1012    8.9068 C   0  0  0  0  0  0  0  0  0  0  0  0
   20.3540   10.9945    8.3791 O   0  0  0  0  0  0  0  0  0  0  0  0
   21.2601   11.4237    9.2731 C   0  0  0  0  0  0  0  0  0  0  0  0
   17.8582   10.7346    8.2385 C   0  0  0  0  0  0  0  0  0  0  0  0
   17.6572   10.5982    6.8903 C   0  0  0  0  0  0  0  0  0  0  0  0
   16.3000   10.2393    6.7476 C   0  0  0  0  0  0  0  0  0  0  0  0
   15.7772   10.1858    7.9568 N   0  0  0  0  0  0  0  0  0  0  0  0
   16.6640   10.4645    8.8432 N   0  0  0  0  0  0  0  0  0  0  0  0
   15.5933    9.9778    5.4767 C   0  0  0  0  0  0  0  0  0  0  0  0
   15.9390   10.5482    4.4604 O   0  0  0  0  0  0  0  0  0  0  0  0
   14.5653    9.1067    5.4441 N   0  0  0  0  0  0  0  0  0  0  0  0
   13.3497    9.4794    4.8555 N   0  0  0  0  0  0  0  0  0  0  0  0
   13.3369   10.3621    3.8372 C   0  0  0  0  0  0  0  0  0  0  0  0
   14.2855   10.4290    3.0778 O   0  0  0  0  0  0  0  0  0  0  0  0
   12.1794   11.2423    3.6442 C   0  0  0  0  0  0  0  0  0  0  0  0
   11.2655   11.1727    2.6142 C   0  0  0  0  0  0  0  0  0  0  0  0
   10.3329   12.1935    2.8230 C   0  0  0  0  0  0  0  0  0  0  0  0
   10.6908   12.8600    3.9465 C   0  0  0  0  0  0  0  0  0  0  0  0
   11.8113   12.2919    4.4550 N   0  0  0  0  0  0  0  0  0  0  0  0
    9.1655   12.4962    1.9646 N   0  0  0  0  0  0  0  0  0  0  0  0
    9.0457   11.9474    0.8838 O   0  0  0  0  0  0  0  0  0  0  0  0
    8.3249   13.2940    2.3390 O   0  0  0  0  0  0  0  0  0  0  0  0
   21.0754   12.2001   11.3107 H   0  0  0  0  0  0  0  0  0  0  0  0
   18.4208   11.8068   10.8730 H   0  0  0  0  0  0  0  0  0  0  0  0
   22.3484   11.4583    9.1169 H   0  0  0  0  0  0  0  0  0  0  0  0
   18.3972   10.7388    6.0886 H   0  0  0  0  0  0  0  0  0  0  0  0
   16.4987   10.4819    9.8597 H   0  0  0  0  0  0  0  0  0  0  0  0
   14.6733    8.1671    5.8520 H   0  0  0  0  0  0  0  0  0  0  0  0
   12.4659    9.0788    5.2010 H   0  0  0  0  0  0  0  0  0  0  0  0
   11.2693   10.4503    1.7847 H   0  0  0  0  0  0  0  0  0  0  0  0
   10.1589   13.7217    4.3761 H   0  0  0  0  0  0  0  0  0  0  0  0
   12.3051   12.5951    5.3065 H   0  0  0  0  0  0  0  0  0  0  0  0
  1  5  2  0  0  0  0
  1  2  1  0  0  0  0
  1 25  1  0  0  0  0
  2  3  2  0  0  0  0
  2 26  1  0  0  0  0
  3  4  1  0  0  0  0
  3  6  1  0  0  0  0
  4  5  1  0  0  0  0
  5 27  1  0  0  0  0
  6 10  1  0  0  0  0
  6  7  2  0  0  0  0
  7  8  1  0  0  0  0
  7 28  1  0  0  0  0
  8  9  2  0  0  0  0
  8 11  1  0  0  0  0
  9 10  1  0  0  0  0
 10 29  1  0  0  0  0
 11 12  2  0  0  0  0
 11 13  1  0  0  0  0
 13 14  1  0  0  0  0
 13 30  1  0  0  0  0
 14 15  1  0  0  0  0
 14 31  1  0  0  0  0
 15 16  2  0  0  0  0
 15 17  1  0  0  0  0
 17 21  1  0  0  0  0
 17 18  2  0  0  0  0
 18 19  1  0  0  0  0
 18 32  1  0  0  0  0
 19 20  2  0  0  0  0
 19 22  1  0  0  0  0
 20 21  1  0  0  0  0
 20 33  1  0  0  0  0
 21 34  1  0  0  0  0
 22 23  2  0  0  0  0
 22 24  2  0  0  0  0
M  END
> <Name>
ZINC30516950

> <reference>
BDB4932

> <quality>
0.683

> <status>
decoy

> <atoms in reference ligand area>
10

> <score>
-19.8889

$$$$
ZINC31448830
      BALL 1.4.0 (Jan  4 2012, 23:22:29)

 36 37  0999  0  0  0  0  0  0999 V2000
    5.6669   10.3770    1.0557 C   0  0  0  0  0  0  0  0  0  0  0  0
    6.3985    9.3420    1.9127 C   0  0  0  0  0  0  0  0  0  0  0  0
    7.7317    9.8841    2.3886 C   0  0  0  0  0  0  0  0  0  0  0  0
    7.9188   10.8517    3.0947 O   0  0  0  0  0  0  0  0  0  0  0  0
    8.6658    9.0677    1.8621 N   0  0  0  0  0  0  0  0  0  0  0  0
    8.1135    8.0910    1.1335 C   0  0  0  0  0  0  0  0  0  0  0  0
    8.7533    7.2297    0.5625 O   0  0  0  0  0  0  0  0  0  0  0  0
    6.7708    8.1688    1.1033 N   0  5  0  0  0  0  0  0  0  0  0  0
   10.1076    9.2265    2.0676 C   0  0  0  0  0  0  0  0  0  0  0  0
   10.5528   10.5873    1.5284 C   0  0  0  0  0  0  0  0  0  0  0  0
    9.9021   11.8999    2.5914 S   0  0  0  0  0  0  0  0  0  0  0  0
   10.2881   13.3098    1.6078 C   0  0  0  0  0  0  0  0  0  0  0  0
    9.5078   14.3785    1.6775 N   0  3  0  0  0  0  0  0  0  0  0  0
    9.7719   15.4635    0.9532 C   0  0  0  0  0  0  0  0  0  0  0  0
   10.8770   15.4608    0.1071 C   0  0  0  0  0  0  0  0  0  0  0  0
   11.6700   14.3181    0.0563 C   0  0  0  0  0  0  0  0  0  0  0  0
   11.3481   13.2719    0.8135 N   0  0  0  0  0  0  0  0  0  0  0  0
   12.7809   14.2703   -0.7715 N   0  0  0  0  0  0  0  0  0  0  0  0
    8.9540   16.5796    1.0366 N   0  0  0  0  0  0  0  0  0  0  0  0
    5.5365    8.9218    3.1048 C   0  0  0  0  0  0  0  0  0  0  0  0
    6.0016   11.3839    1.3456 H   0  0  0  0  0  0  0  0  0  0  0  0
    4.5850   10.2902    1.2342 H   0  0  0  0  0  0  0  0  0  0  0  0
    5.8836   10.2046   -0.0089 H   0  0  0  0  0  0  0  0  0  0  0  0
   10.3337    9.1667    3.1424 H   0  0  0  0  0  0  0  0  0  0  0  0
   10.6452    8.4281    1.5348 H   0  0  0  0  0  0  0  0  0  0  0  0
   11.6517   10.6360    1.5177 H   0  0  0  0  0  0  0  0  0  0  0  0
   10.1698   10.7211    0.5060 H   0  0  0  0  0  0  0  0  0  0  0  0
    8.6871   14.3695    2.2997 H   0  0  0  0  0  0  0  0  0  0  0  0
   11.1180   16.3410   -0.5071 H   0  0  0  0  0  0  0  0  0  0  0  0
   12.8350   13.5562   -1.5117 H   0  0  0  0  0  0  0  0  0  0  0  0
   13.5490   14.9453   -0.6479 H   0  0  0  0  0  0  0  0  0  0  0  0
    7.9340   16.4729    0.9412 H   0  0  0  0  0  0  0  0  0  0  0  0
    9.3635   17.5116    1.1931 H   0  0  0  0  0  0  0  0  0  0  0  0
    4.4755    9.0070    2.8272 H   0  0  0  0  0  0  0  0  0  0  0  0
    5.7435    9.5937    3.9508 H   0  0  0  0  0  0  0  0  0  0  0  0
    5.7655    7.8840    3.3883 H   0  0  0  0  0  0  0  0  0  0  0  0
  1  2  1  0  0  0  0
  1 21  1  0  0  0  0
  1 22  1  0  0  0  0
  1 23  1  0  0  0  0
  2  8  1  0  0  0  0
  2  3  1  0  0  0  0
  2 20  1  0  0  0  0
  3  4  2  0  0  0  0
  3  5  1  0  0  0  0
  5  6  1  0  0  0  0
  5  9  1  0  0  0  0
  6  7  2  0  0  0  0
  6  8  1  0  0  0  0
  9 10  1  0  0  0  0
  9 24  1  0  0  0  0
  9 25  1  0  0  0  0
 10 11  1  0  0  0  0
 10 26  1  0  0  0  0
 10 27  1  0  0  0  0
 11 12  1  0  0  0  0
 12 17  2  0  0  0  0
 12 13  1  0  0  0  0
 13 14  2  0  0  0  0
 13 28  1  0  0  0  0
 14 15  1  0  0  0  0
 14 19  1  0  0  0  0
 15 16  2  0  0  0  0
 15 29  1  0  0  0  0
 16 17  1  0  0  0  0
 16 18  1  0  0  0  0
 18 30  1  0  0  0  0
 18 31  1  0  0  0  0
 19 32  1  0  0  0  0
 19 33  1  0  0  0  0
 20 34  1  0  0  0  0
 20 35  1  0  0  0  0
 20 36  1  0  0  0  0
M  END
> <Name>
ZINC31448830

> <reference>
BDB4937

> <quality>
0.735

> <status>
decoy

> <atoms in reference ligand area>
12

> <score>
-19.8703

$$$$
ZINC05258154
      BALL 1.4.0 (Jan  4 2012, 23:22:29)

 43 43  0999  0  0  0  0  0  0999 V2000
   11.6820   14.8109   -1.3783 C   0  0  0  0  0  0  0  0  0  0  0  0
   11.4728   13.9271   -0.1758 C   0  0  0  0  0  0  0  0  0  0  0  0
   11.0630   14.4789    1.0240 C   0  0  0  0  0  0  0  0  0  0  0  0
   10.8699   13.6713    2.1297 C   0  0  0  0  0  0  0  0  0  0  0  0
   11.0855   12.3102    2.0387 C   0  0  0  0  0  0  0  0  0  0  0  0
   11.4972   11.7528    0.8352 C   0  0  0  0  0  0  0  0  0  0  0  0
   11.6957   12.5674   -0.2718 C   0  0  0  0  0  0  0  0  0  0  0  0
   11.7170   10.3743    0.7398 N   0  0  0  0  0  0  0  0  0  0  0  0
   12.6865    9.7941    1.4745 C   0  0  0  0  0  0  0  0  0  0  0  0
   13.4306   10.4779    2.1452 O   0  0  0  0  0  0  0  0  0  0  0  0
   12.8461    8.2956    1.4627 C   0  0  0  0  0  0  0  0  0  0  0  0
   14.0101    7.8994    2.3732 C   0  0  0  0  0  0  0  0  0  0  0  0
   13.9457    6.4207    2.6564 C   0  0  0  0  0  0  0  0  0  0  0  0
   12.9117    5.9225    3.0341 O   0  0  0  0  0  0  0  0  0  0  0  0
   16.3529    8.4215    2.6922 C   0  0  0  0  0  0  0  0  0  0  0  0
   17.6996    8.4996    1.9703 C   0  0  0  0  0  0  0  0  0  0  0  0
   18.7578    7.7504    2.7825 C   0  0  0  0  0  0  0  0  0  0  0  0
   17.5819    7.9039    0.6767 O   0  0  0  0  0  0  0  0  0  0  0  0
   10.4231   14.2769    3.4354 C   0  0  0  0  0  0  0  0  0  0  0  0
   15.0368    5.6572    2.4890 O   0  5  0  0  0  0  0  0  0  0  0  0
   15.2827    8.2166    1.6979 N   0  3  0  0  0  0  0  0  0  0  0  0
   12.6246   14.4647   -1.8274 H   0  0  0  0  0  0  0  0  0  0  0  0
   11.8668   15.8143   -0.9673 H   0  0  0  0  0  0  0  0  0  0  0  0
   10.8453   14.7961   -2.0923 H   0  0  0  0  0  0  0  0  0  0  0  0
   10.8901   15.5627    1.0990 H   0  0  0  0  0  0  0  0  0  0  0  0
   10.9312   11.6683    2.9186 H   0  0  0  0  0  0  0  0  0  0  0  0
   12.0302   12.1303   -1.2241 H   0  0  0  0  0  0  0  0  0  0  0  0
   11.1378    9.8030    0.1081 H   0  0  0  0  0  0  0  0  0  0  0  0
   13.0517    7.9557    0.4370 H   0  0  0  0  0  0  0  0  0  0  0  0
   11.9205    7.8253    1.8262 H   0  0  0  0  0  0  0  0  0  0  0  0
   13.9453    8.4550    3.3204 H   0  0  0  0  0  0  0  0  0  0  0  0
   16.3632    7.5790    3.3993 H   0  0  0  0  0  0  0  0  0  0  0  0
   16.1721    9.3595    3.2377 H   0  0  0  0  0  0  0  0  0  0  0  0
   17.9976    9.5531    1.8630 H   0  0  0  0  0  0  0  0  0  0  0  0
   18.4175    7.6471    3.8234 H   0  0  0  0  0  0  0  0  0  0  0  0
   19.7037    8.3115    2.7606 H   0  0  0  0  0  0  0  0  0  0  0  0
   18.9151    6.7519    2.3486 H   0  0  0  0  0  0  0  0  0  0  0  0
   17.4741    8.6130   -0.0056 H   0  0  0  0  0  0  0  0  0  0  0  0
   10.7338   15.3309    3.3831 H   0  0  0  0  0  0  0  0  0  0  0  0
   11.0445   13.7924    4.2029 H   0  0  0  0  0  0  0  0  0  0  0  0
    9.3468   14.1648    3.6326 H   0  0  0  0  0  0  0  0  0  0  0  0
   15.5414    7.4387    1.0742 H   0  0  0  0  0  0  0  0  0  0  0  0
   15.1689    9.0738    1.1383 H   0  0  0  0  0  0  0  0  0  0  0  0
  1  2  1  0  0  0  0
  1 22  1  0  0  0  0
  1 23  1  0  0  0  0
  1 24  1  0  0  0  0
  2  7  2  0  0  0  0
  2  3  1  0  0  0  0
  3  4  2  0  0  0  0
  3 25  1  0  0  0  0
  4  5  1  0  0  0  0
  4 19  1  0  0  0  0
  5  6  2  0  0  0  0
  5 26  1  0  0  0  0
  6  7  1  0  0  0  0
  6  8  1  0  0  0  0
  7 27  1  0  0  0  0
  8  9  1  0  0  0  0
  8 28  1  0  0  0  0
  9 10  2  0  0  0  0
  9 11  1  0  0  0  0
 11 12  1  0  0  0  0
 11 29  1  0  0  0  0
 11 30  1  0  0  0  0
 12 13  1  0  0  0  0
 12 21  1  0  0  0  0
 12 31  1  0  0  0  0
 13 14  2  0  0  0  0
 13 20  1  0  0  0  0
 15 16  1  0  0  0  0
 15 21  1  0  0  0  0
 15 32  1  0  0  0  0
 15 33  1  0  0  0  0
 16 17  1  0  0  0  0
 16 18  1  0  0  0  0
 16 34  1  0  0  0  0
 17 35  1  0  0  0  0
 17 36  1  0  0  0  0
 17 37  1  0  0  0  0
 18 38  1  0  0  0  0
 19 39  1  0  0  0  0
 19 40  1  0  0  0  0
 19 41  1  0  0  0  0
 21 42  1  0  0  0  0
 21 43  1  0  0  0  0
M  END
> <Name>
ZINC05258154

> <reference>
BDB4995

> <quality>
0.787

> <status>
decoy

> <atoms in reference ligand area>
14

> <score>
-19.8608

$$$$
ZINC06078676
      BALL 1.4.0 (Jan  4 2012, 23:22:29)

 37 38  0999  0  0  0  0  0  0999 V2000
    6.4579   11.1973    0.1736 C   0  0  0  0  0  0  0  0  0  0  0  0
    6.8011   10.6321    1.5277 C   0  0  0  0  0  0  0  0  0  0  0  0
    8.0140   10.9829    2.1591 C   0  0  0  0  0  0  0  0  0  0  0  0
    8.8019   11.7443    1.6235 O   0  0  0  0  0  0  0  0  0  0  0  0
    8.2783   10.4506    3.3746 N   0  0  0  0  0  0  0  0  0  0  0  0
    7.3638    9.6048    3.9280 C   0  0  0  0  0  0  0  0  0  0  0  0
    6.2471    9.3109    3.2829 N   0  0  0  0  0  0  0  0  0  0  0  0
    5.9746    9.8098    2.1306 N   0  0  0  0  0  0  0  0  0  0  0  0
    7.6745    8.8929    5.5096 S   0  0  0  0  0  0  0  0  0  0  0  0
    9.2078    7.9985    5.1560 C   0  0  0  0  0  0  0  0  0  0  0  0
    9.6826    7.2803    6.4207 C   0  0  0  0  0  0  0  0  0  0  0  0
   10.1386    8.2436    7.3727 O   0  0  0  0  0  0  0  0  0  0  0  0
   10.5976    7.7679    8.5610 C   0  0  0  0  0  0  0  0  0  0  0  0
    9.7810    7.7971    9.6818 C   0  0  0  0  0  0  0  0  0  0  0  0
   10.2457    7.3099   10.8878 C   0  0  0  0  0  0  0  0  0  0  0  0
   11.5323    6.8002   10.9804 C   0  0  0  0  0  0  0  0  0  0  0  0
   12.3506    6.7753    9.8607 C   0  0  0  0  0  0  0  0  0  0  0  0
   11.8843    7.2586    8.6537 C   0  0  0  0  0  0  0  0  0  0  0  0
   11.9913    6.3243   12.1687 O   0  0  0  0  0  0  0  0  0  0  0  0
   11.6375    7.0593   13.3421 C   0  0  0  0  0  0  0  0  0  0  0  0
    9.4365   10.7539    4.0324 N   0  0  0  0  0  0  0  0  0  0  0  0
    5.8578   12.0955    0.3815 H   0  0  0  0  0  0  0  0  0  0  0  0
    5.7883   10.4551   -0.2855 H   0  0  0  0  0  0  0  0  0  0  0  0
    7.3370   11.4140   -0.4512 H   0  0  0  0  0  0  0  0  0  0  0  0
    9.0266    7.2595    4.3615 H   0  0  0  0  0  0  0  0  0  0  0  0
    9.9804    8.7089    4.8267 H   0  0  0  0  0  0  0  0  0  0  0  0
    8.8489    6.7062    6.8514 H   0  0  0  0  0  0  0  0  0  0  0  0
   10.5066    6.5969    6.1682 H   0  0  0  0  0  0  0  0  0  0  0  0
    8.7632    8.2084    9.6103 H   0  0  0  0  0  0  0  0  0  0  0  0
    9.5953    7.3260   11.7748 H   0  0  0  0  0  0  0  0  0  0  0  0
   13.3708    6.3706    9.9340 H   0  0  0  0  0  0  0  0  0  0  0  0
   12.5336    7.2396    7.7659 H   0  0  0  0  0  0  0  0  0  0  0  0
   12.5292    7.6379   13.6252 H   0  0  0  0  0  0  0  0  0  0  0  0
   11.4546    6.3141   14.1303 H   0  0  0  0  0  0  0  0  0  0  0  0
   10.7640    7.7102   13.1892 H   0  0  0  0  0  0  0  0  0  0  0  0
   10.2226   10.0889    4.0075 H   0  0  0  0  0  0  0  0  0  0  0  0
    9.5246   11.6402    4.5498 H   0  0  0  0  0  0  0  0  0  0  0  0
  1  2  1  0  0  0  0
  1 22  1  0  0  0  0
  1 23  1  0  0  0  0
  1 24  1  0  0  0  0
  2  8  2  0  0  0  0
  2  3  1  0  0  0  0
  3  4  2  0  0  0  0
  3  5  1  0  0  0  0
  5  6  1  0  0  0  0
  5 21  1  0  0  0  0
  6  7  2  0  0  0  0
  6  9  1  0  0  0  0
  7  8  1  0  0  0  0
  9 10  1  0  0  0  0
 10 11  1  0  0  0  0
 10 25  1  0  0  0  0
 10 26  1  0  0  0  0
 11 12  1  0  0  0  0
 11 27  1  0  0  0  0
 11 28  1  0  0  0  0
 12 13  1  0  0  0  0
 13 18  2  0  0  0  0
 13 14  1  0  0  0  0
 14 15  2  0  0  0  0
 14 29  1  0  0  0  0
 15 16  1  0  0  0  0
 15 30  1  0  0  0  0
 16 17  2  0  0  0  0
 16 19  1  0  0  0  0
 17 18  1  0  0  0  0
 17 31  1  0  0  0  0
 18 32  1  0  0  0  0
 19 20  1  0  0  0  0
 20 33  1  0  0  0  0
 20 34  1  0  0  0  0
 20 35  1  0  0  0  0
 21 36  1  0  0  0  0
 21 37  1  0  0  0  0
M  END
> <Name>
ZINC06078676

> <reference>
BDB5199

> <quality>
0.701

> <status>
decoy

> <atoms in reference ligand area>
10

> <score>
-19.3005

$$$$
ZINC05736586
      BALL 1.4.0 (Jan  4 2012, 23:22:29)

 51 52  0999  0  0  0  0  0  0999 V2000
   13.3485   12.7214    3.9898 C   0  0  0  0  0  0  0  0  0  0  0  0
   12.0315   11.9441    4.0381 C   0  0  0  0  0  0  0  0  0  0  0  0
   12.3018   10.5113    4.5014 C   0  0  0  0  0  0  0  0  0  0  0  0
   11.0046    9.8915    5.0249 C   0  0  0  0  0  0  0  0  0  0  0  0
   10.0883    9.6586    3.9057 N   0  0  0  0  0  0  0  0  0  0  0  0
    9.3693   10.6936    3.4220 C   0  0  0  0  0  0  0  0  0  0  0  0
    9.4697   11.8049    3.8959 O   0  0  0  0  0  0  0  0  0  0  0  0
    8.4310   10.4146    2.2629 C   0  5  0  0  0  0  0  0  0  0  0  0
    8.3953    8.9843    1.7586 C   0  0  0  0  0  0  0  0  0  0  0  0
    7.6776    8.6605    0.8368 O   0  0  0  0  0  0  0  0  0  0  0  0
    9.1919    8.0854    2.3748 N   0  0  0  0  0  0  0  0  0  0  0  0
    9.9889    8.4265    3.3939 C   0  0  0  0  0  0  0  0  0  0  0  0
   10.6727    7.5537    3.8905 O   0  0  0  0  0  0  0  0  0  0  0  0
    8.8263   11.3070    1.1146 C   0  0  0  0  0  0  0  0  0  0  0  0
    7.9138   11.7180    0.2540 C   0  0  0  0  0  0  0  0  0  0  0  0
    6.4600   11.3959    0.4859 C   0  0  0  0  0  0  0  0  0  0  0  0
   10.1508   11.6967    0.9617 N   0  0  0  0  0  0  0  0  0  0  0  0
   10.4505   12.8517    0.2968 N   0  0  0  0  0  0  0  0  0  0  0  0
   11.2665   13.7438    1.1323 C   0  0  0  0  0  0  0  0  0  0  0  0
   11.5130   15.0556    0.3835 C   0  0  0  0  0  0  0  0  0  0  0  0
   11.3707   13.8780   -1.7264 C   0  0  0  0  0  0  0  0  0  0  0  0
   11.1242   12.5661   -0.9776 C   0  0  0  0  0  0  0  0  0  0  0  0
   12.5090   16.0121   -1.6060 C   0  0  0  0  0  0  0  0  0  0  0  0
   12.2103   14.7563   -0.8851 N   0  3  0  0  0  0  0  0  0  0  0  0
   13.1554   13.7519    3.6570 H   0  0  0  0  0  0  0  0  0  0  0  0
   14.0383   12.2328    3.2859 H   0  0  0  0  0  0  0  0  0  0  0  0
   13.8012   12.7397    4.9921 H   0  0  0  0  0  0  0  0  0  0  0  0
   11.3427   12.4330    4.7428 H   0  0  0  0  0  0  0  0  0  0  0  0
   11.5785   11.9254    3.0359 H   0  0  0  0  0  0  0  0  0  0  0  0
   12.6762    9.9166    3.6551 H   0  0  0  0  0  0  0  0  0  0  0  0
   13.0534   10.5200    5.3046 H   0  0  0  0  0  0  0  0  0  0  0  0
   11.2287    8.9349    5.5197 H   0  0  0  0  0  0  0  0  0  0  0  0
   10.5347   10.5762    5.7462 H   0  0  0  0  0  0  0  0  0  0  0  0
    9.1859    7.1077    2.0509 H   0  0  0  0  0  0  0  0  0  0  0  0
    8.2145   12.2957   -0.6325 H   0  0  0  0  0  0  0  0  0  0  0  0
    5.9193   11.8994   -0.3291 H   0  0  0  0  0  0  0  0  0  0  0  0
    6.1962   11.9105    1.4217 H   0  0  0  0  0  0  0  0  0  0  0  0
    6.2484   10.3173    0.5263 H   0  0  0  0  0  0  0  0  0  0  0  0
   10.9070   11.1148    1.3496 H   0  0  0  0  0  0  0  0  0  0  0  0
   10.7360   13.9529    2.0729 H   0  0  0  0  0  0  0  0  0  0  0  0
   12.2303   13.2617    1.3532 H   0  0  0  0  0  0  0  0  0  0  0  0
   12.1376   15.7202    0.9984 H   0  0  0  0  0  0  0  0  0  0  0  0
   10.5508   15.5433    0.1682 H   0  0  0  0  0  0  0  0  0  0  0  0
   11.8901   13.6696   -2.6735 H   0  0  0  0  0  0  0  0  0  0  0  0
   10.4097   14.3731   -1.9302 H   0  0  0  0  0  0  0  0  0  0  0  0
   10.4898   11.9085   -1.5901 H   0  0  0  0  0  0  0  0  0  0  0  0
   12.0862   12.0700   -0.7812 H   0  0  0  0  0  0  0  0  0  0  0  0
   11.6526   16.6963   -1.5145 H   0  0  0  0  0  0  0  0  0  0  0  0
   12.6844   15.7884   -2.6686 H   0  0  0  0  0  0  0  0  0  0  0  0
   13.4051   16.4833   -1.1758 H   0  0  0  0  0  0  0  0  0  0  0  0
   13.0953   14.2730   -0.6752 H   0  0  0  0  0  0  0  0  0  0  0  0
  1  2  1  0  0  0  0
  1 25  1  0  0  0  0
  1 26  1  0  0  0  0
  1 27  1  0  0  0  0
  2  3  1  0  0  0  0
  2 28  1  0  0  0  0
  2 29  1  0  0  0  0
  3  4  1  0  0  0  0
  3 30  1  0  0  0  0
  3 31  1  0  0  0  0
  4  5  1  0  0  0  0
  4 32  1  0  0  0  0
  4 33  1  0  0  0  0
  5 12  1  0  0  0  0
  5  6  1  0  0  0  0
  6  7  2  0  0  0  0
  6  8  1  0  0  0  0
  8  9  1  0  0  0  0
  8 14  1  0  0  0  0
  9 10  2  0  0  0  0
  9 11  1  0  0  0  0
 11 12  1  0  0  0  0
 11 34  1  0  0  0  0
 12 13  2  0  0  0  0
 14 15  2  0  0  0  0
 14 17  1  0  0  0  0
 15 16  1  0  0  0  0
 15 35  1  0  0  0  0
 16 36  1  0  0  0  0
 16 37  1  0  0  0  0
 16 38  1  0  0  0  0
 17 18  1  0  0  0  0
 17 39  1  0  0  0  0
 18 22  1  0  0  0  0
 18 19  1  0  0  0  0
 19 20  1  0  0  0  0
 19 40  1  0  0  0  0
 19 41  1  0  0  0  0
 20 24  1  0  0  0  0
 20 42  1  0  0  0  0
 20 43  1  0  0  0  0
 21 22  1  0  0  0  0
 21 24  1  0  0  0  0
 21 44  1  0  0  0  0
 21 45  1  0  0  0  0
 22 46  1  0  0  0  0
 22 47  1  0  0  0  0
 23 24  1  0  0  0  0
 23 48  1  0  0  0  0
 23 49  1  0  0  0  0
 23 50  1  0  0  0  0
 24 51  1  0  0  0  0
M  END
> <Name>
ZINC05736586

> <reference>
BDB5195

> <quality>
0.766

> <status>
decoy

> <atoms in reference ligand area>
24

> <score>
-19.2244

$$$$
ZINC20236263
      BALL 1.4.0 (Jan  4 2012, 23:22:29)

 41 41  0999  0  0  0  0  0  0999 V2000
    6.3364   13.7327   -2.1007 C   0  0  0  0  0  0  0  0  0  0  0  0
    6.9806   12.5730   -1.3384 C   0  0  0  0  0  0  0  0  0  0  0  0
    8.3049   12.9386   -0.9452 O   0  0  0  0  0  0  0  0  0  0  0  0
    8.8649   12.2302    0.0717 C   0  0  0  0  0  0  0  0  0  0  0  0
    8.1634   12.0412    1.2533 C   0  0  0  0  0  0  0  0  0  0  0  0
    8.7313   11.3214    2.2863 C   0  0  0  0  0  0  0  0  0  0  0  0
   10.0046   10.7870    2.1417 C   0  0  0  0  0  0  0  0  0  0  0  0
   10.7061   10.9766    0.9584 C   0  0  0  0  0  0  0  0  0  0  0  0
   10.1369   11.6965   -0.0736 C   0  0  0  0  0  0  0  0  0  0  0  0
   10.5808   10.0579    3.1880 N   0  0  0  0  0  0  0  0  0  0  0  0
   10.0058   10.1286    4.5336 C   0  0  0  0  0  0  0  0  0  0  0  0
    9.0401    8.9596    4.7376 C   0  0  0  0  0  0  0  0  0  0  0  0
    8.6482    8.8892    6.1516 N   0  3  0  0  0  0  0  0  0  0  0  0
   11.9128    9.1154    2.9052 S   0  0  0  0  0  0  0  0  0  0  0  0
   11.8480    8.0343    3.8251 O   0  0  0  0  0  0  0  0  0  0  0  0
   11.9787    8.9167    1.4997 O   0  0  0  0  0  0  0  0  0  0  0  0
   13.2430   10.0104    3.3197 N   0  0  0  0  0  0  0  0  0  0  0  0
   13.6861   11.1072    2.4555 C   0  0  0  0  0  0  0  0  0  0  0  0
   13.9766    9.7053    4.5505 C   0  0  0  0  0  0  0  0  0  0  0  0
    6.2941   14.6204   -1.4524 H   0  0  0  0  0  0  0  0  0  0  0  0
    5.3169   13.4522   -2.4039 H   0  0  0  0  0  0  0  0  0  0  0  0
    6.9341   13.9614   -2.9954 H   0  0  0  0  0  0  0  0  0  0  0  0
    6.3828   12.3452   -0.4436 H   0  0  0  0  0  0  0  0  0  0  0  0
    7.0232   11.6854   -1.9866 H   0  0  0  0  0  0  0  0  0  0  0  0
    7.1546   12.4646    1.3676 H   0  0  0  0  0  0  0  0  0  0  0  0
    8.1749   11.1716    3.2233 H   0  0  0  0  0  0  0  0  0  0  0  0
   11.7149   10.5535    0.8429 H   0  0  0  0  0  0  0  0  0  0  0  0
   10.6924   11.8468   -1.0110 H   0  0  0  0  0  0  0  0  0  0  0  0
   10.8116   10.0724    5.2803 H   0  0  0  0  0  0  0  0  0  0  0  0
    9.4620   11.0774    4.6518 H   0  0  0  0  0  0  0  0  0  0  0  0
    9.5333    8.0202    4.4473 H   0  0  0  0  0  0  0  0  0  0  0  0
    8.1448    9.1107    4.1166 H   0  0  0  0  0  0  0  0  0  0  0  0
    7.7751    8.3501    6.2404 H   0  0  0  0  0  0  0  0  0  0  0  0
    8.5018    9.8413    6.5161 H   0  0  0  0  0  0  0  0  0  0  0  0
    9.3928    8.4263    6.6922 H   0  0  0  0  0  0  0  0  0  0  0  0
   14.3945   11.6766    3.0753 H   0  0  0  0  0  0  0  0  0  0  0  0
   12.7952   11.7414    2.3374 H   0  0  0  0  0  0  0  0  0  0  0  0
   14.1176   10.7952    1.4929 H   0  0  0  0  0  0  0  0  0  0  0  0
   13.3028    9.0447    5.1159 H   0  0  0  0  0  0  0  0  0  0  0  0
   14.0077   10.6600    5.0959 H   0  0  0  0  0  0  0  0  0  0  0  0
   14.9747    9.2678    4.4004 H   0  0  0  0  0  0  0  0  0  0  0  0
  1  2  1  0  0  0  0
  1 20  1  0  0  0  0
  1 21  1  0  0  0  0
  1 22  1  0  0  0  0
  2  3  1  0  0  0  0
  2 23  1  0  0  0  0
  2 24  1  0  0  0  0
  3  4  1  0  0  0  0
  4  9  2  0  0  0  0
  4  5  1  0  0  0  0
  5  6  2  0  0  0  0
  5 25  1  0  0  0  0
  6  7  1  0  0  0  0
  6 26  1  0  0  0  0
  7  8  2  0  0  0  0
  7 10  1  0  0  0  0
  8  9  1  0  0  0  0
  8 27  1  0  0  0  0
  9 28  1  0  0  0  0
 10 11  1  0  0  0  0
 10 14  1  0  0  0  0
 11 12  1  0  0  0  0
 11 29  1  0  0  0  0
 11 30  1  0  0  0  0
 12 13  1  0  0  0  0
 12 31  1  0  0  0  0
 12 32  1  0  0  0  0
 13 33  1  0  0  0  0
 13 34  1  0  0  0  0
 13 35  1  0  0  0  0
 14 15  2  0  0  0  0
 14 16  2  0  0  0  0
 14 17  1  0  0  0  0
 17 18  1  0  0  0  0
 17 19  1  0  0  0  0
 18 36  1  0  0  0  0
 18 37  1  0  0  0  0
 18 38  1  0  0  0  0
 19 39  1  0  0  0  0
 19 40  1  0  0  0  0
 19 41  1  0  0  0  0
M  END
> <Name>
ZINC20236263

> <reference>
BDB5195

> <quality>
0.791

> <status>
decoy

> <atoms in reference ligand area>
18

> <score>
-18.9136

$$$$
ZINC22754895
      BALL 1.4.0 (Jan  4 2012, 23:22:29)

 54 55  0999  0  0  0  0  0  0999 V2000
   11.6192    4.7411   -1.2099 C   0  0  0  0  0  0  0  0  0  0  0  0
   11.8171    3.7176   -2.3298 C   0  0  0  0  0  0  0  0  0  0  0  0
   10.5913    3.7197   -3.2453 C   0  0  0  0  0  0  0  0  0  0  0  0
   13.0609    4.0843   -3.1419 C   0  0  0  0  0  0  0  0  0  0  0  0
   14.1964    4.4672   -2.1908 C   0  0  0  0  0  0  0  0  0  0  0  0
   13.8345    5.6868   -1.4641 N   0  0  0  0  0  0  0  0  0  0  0  0
   13.9511    5.7314   -0.1221 C   0  0  0  0  0  0  0  0  0  0  0  0
   14.3566    4.7596    0.4853 O   0  0  0  0  0  0  0  0  0  0  0  0
   13.5858    6.9621    0.6111 C   0  0  0  0  0  0  0  0  0  0  0  0
   14.4684    7.5107    1.5430 C   0  0  0  0  0  0  0  0  0  0  0  0
   14.1216    8.6596    2.2236 C   0  0  0  0  0  0  0  0  0  0  0  0
   12.9022    9.2678    1.9840 C   0  0  0  0  0  0  0  0  0  0  0  0
   12.0206    8.7262    1.0654 C   0  0  0  0  0  0  0  0  0  0  0  0
   12.3573    7.5806    0.3742 C   0  0  0  0  0  0  0  0  0  0  0  0
   12.4670   10.7347    2.8578 S   0  0  0  0  0  0  0  0  0  0  0  0
   13.6686   11.2441    3.4200 O   0  0  0  0  0  0  0  0  0  0  0  0
   11.3316   10.4138    3.6499 O   0  0  0  0  0  0  0  0  0  0  0  0
   11.9630   11.8424    1.7348 N   0  5  0  0  0  0  0  0  0  0  0  0
   10.8736   12.6740    2.0129 C   0  0  0  0  0  0  0  0  0  0  0  0
   11.0837   13.9527    2.5110 C   0  0  0  0  0  0  0  0  0  0  0  0
   10.0056   14.7722    2.7845 C   0  0  0  0  0  0  0  0  0  0  0  0
    8.7175   14.3211    2.5624 C   0  0  0  0  0  0  0  0  0  0  0  0
    8.5029   13.0480    2.0667 C   0  0  0  0  0  0  0  0  0  0  0  0
    9.5771   12.2222    1.7908 C   0  0  0  0  0  0  0  0  0  0  0  0
    9.3678   10.9807    1.3009 F   0  0  0  0  0  0  0  0  0  0  0  0
   13.4713    2.9324   -3.9558 N   0  3  0  0  0  0  0  0  0  0  0  0
   13.7504    1.7635   -3.1110 C   0  0  0  0  0  0  0  0  0  0  0  0
   12.4580    2.6178   -4.9718 C   0  0  0  0  0  0  0  0  0  0  0  0
   12.1672    5.6633   -1.4535 H   0  0  0  0  0  0  0  0  0  0  0  0
   11.9988    4.3288   -0.2634 H   0  0  0  0  0  0  0  0  0  0  0  0
   10.5481    4.9691   -1.1058 H   0  0  0  0  0  0  0  0  0  0  0  0
   11.9466    2.7164   -1.8928 H   0  0  0  0  0  0  0  0  0  0  0  0
    9.9441    4.5721   -2.9912 H   0  0  0  0  0  0  0  0  0  0  0  0
   10.0312    2.7824   -3.1121 H   0  0  0  0  0  0  0  0  0  0  0  0
   10.9154    3.8063   -4.2929 H   0  0  0  0  0  0  0  0  0  0  0  0
   12.8312    4.9352   -3.8001 H   0  0  0  0  0  0  0  0  0  0  0  0
   14.3655    3.6504   -1.4738 H   0  0  0  0  0  0  0  0  0  0  0  0
   15.1158    4.6445   -2.7681 H   0  0  0  0  0  0  0  0  0  0  0  0
   13.4910    6.5102   -1.9787 H   0  0  0  0  0  0  0  0  0  0  0  0
   15.4382    7.0282    1.7343 H   0  0  0  0  0  0  0  0  0  0  0  0
   14.8161    9.0930    2.9583 H   0  0  0  0  0  0  0  0  0  0  0  0
   11.0492    9.2101    0.8858 H   0  0  0  0  0  0  0  0  0  0  0  0
   11.6591    7.1557   -0.3620 H   0  0  0  0  0  0  0  0  0  0  0  0
   12.1077   14.3131    2.6879 H   0  0  0  0  0  0  0  0  0  0  0  0
   10.1722   15.7852    3.1795 H   0  0  0  0  0  0  0  0  0  0  0  0
    7.8615   14.9765    2.7804 H   0  0  0  0  0  0  0  0  0  0  0  0
    7.4769   12.6921    1.8920 H   0  0  0  0  0  0  0  0  0  0  0  0
   14.3421    3.1846   -4.4448 H   0  0  0  0  0  0  0  0  0  0  0  0
   13.8667    0.8793   -3.7549 H   0  0  0  0  0  0  0  0  0  0  0  0
   12.8999    1.6047   -2.4317 H   0  0  0  0  0  0  0  0  0  0  0  0
   14.6694    1.9265   -2.5289 H   0  0  0  0  0  0  0  0  0  0  0  0
   11.5130    2.3699   -4.4664 H   0  0  0  0  0  0  0  0  0  0  0  0
   12.7953    1.7462   -5.5522 H   0  0  0  0  0  0  0  0  0  0  0  0
   12.3107    3.4787   -5.6405 H   0  0  0  0  0  0  0  0  0  0  0  0
  1  2  1  0  0  0  0
  1 29  1  0  0  0  0
  1 30  1  0  0  0  0
  1 31  1  0  0  0  0
  2  3  1  0  0  0  0
  2  4  1  0  0  0  0
  2 32  1  0  0  0  0
  3 33  1  0  0  0  0
  3 34  1  0  0  0  0
  3 35  1  0  0  0  0
  4  5  1  0  0  0  0
  4 26  1  0  0  0  0
  4 36  1  0  0  0  0
  5  6  1  0  0  0  0
  5 37  1  0  0  0  0
  5 38  1  0  0  0  0
  6  7  1  0  0  0  0
  6 39  1  0  0  0  0
  7  8  2  0  0  0  0
  7  9  1  0  0  0  0
  9 14  2  0  0  0  0
  9 10  1  0  0  0  0
 10 11  2  0  0  0  0
 10 40  1  0  0  0  0
 11 12  1  0  0  0  0
 11 41  1  0  0  0  0
 12 13  2  0  0  0  0
 12 15  1  0  0  0  0
 13 14  1  0  0  0  0
 13 42  1  0  0  0  0
 14 43  1  0  0  0  0
 15 16  2  0  0  0  0
 15 17  2  0  0  0  0
 15 18  1  0  0  0  0
 18 19  1  0  0  0  0
 19 24  2  0  0  0  0
 19 20  1  0  0  0  0
 20 21  2  0  0  0  0
 20 44  1  0  0  0  0
 21 22  1  0  0  0  0
 21 45  1  0  0  0  0
 22 23  2  0  0  0  0
 22 46  1  0  0  0  0
 23 24  1  0  0  0  0
 23 47  1  0  0  0  0
 24 25  1  0  0  0  0
 26 27  1  0  0  0  0
 26 28  1  0  0  0  0
 26 48  1  0  0  0  0
 27 49  1  0  0  0  0
 27 50  1  0  0  0  0
 27 51  1  0  0  0  0
 28 52  1  0  0  0  0
 28 53  1  0  0  0  0
 28 54  1  0  0  0  0
M  END
> <Name>
ZINC22754895

> <reference>
BDB5007

> <quality>
0.801

> <status>
decoy

> <atoms in reference ligand area>
11

> <score>
-18.8853

$$$$
ZINC04226538
      BALL 1.4.0 (Jan  4 2012, 23:22:29)

 35 36  0999  0  0  0  0  0  0999 V2000
    5.8307    8.2976    2.7222 C   0  0  0  0  0  0  0  0  0  0  0  0
    6.9579    9.2610    2.9909 C   0  0  0  0  0  0  0  0  0  0  0  0
    7.7709    9.0572    4.0988 C   0  0  0  0  0  0  0  0  0  0  0  0
    8.8080    9.9376    4.3604 C   0  0  0  0  0  0  0  0  0  0  0  0
    9.0022   11.0187    3.4662 C   0  0  0  0  0  0  0  0  0  0  0  0
   10.0356   11.9467    3.6641 C   0  0  0  0  0  0  0  0  0  0  0  0
   10.2010   12.9762    2.7922 C   0  0  0  0  0  0  0  0  0  0  0  0
    9.3461   13.1237    1.6864 C   0  0  0  0  0  0  0  0  0  0  0  0
    8.3179   12.2220    1.4665 C   0  0  0  0  0  0  0  0  0  0  0  0
    8.1322   11.1531    2.3579 C   0  0  0  0  0  0  0  0  0  0  0  0
    9.5454   14.2503    0.7511 C   0  0  0  0  0  0  0  0  0  0  0  0
    9.7776   14.0326   -0.4211 O   0  0  0  0  0  0  0  0  0  0  0  0
    9.6340    9.7627    5.4605 N   0  0  0  0  0  0  0  0  0  0  0  0
    9.2874    8.7768    6.4873 C   0  0  0  0  0  0  0  0  0  0  0  0
   10.2090    8.9536    7.6957 C   0  0  0  0  0  0  0  0  0  0  0  0
    9.4014    8.7777    8.9831 C   0  0  0  0  0  0  0  0  0  0  0  0
    9.9787    9.5734   10.0202 O   0  0  0  0  0  0  0  0  0  0  0  0
    7.0984   10.2746    2.1069 N   0  3  0  0  0  0  0  0  0  0  0  0
    9.4698   15.5186    1.1985 O   0  5  0  0  0  0  0  0  0  0  0  0
    5.3061    8.6990    1.8425 H   0  0  0  0  0  0  0  0  0  0  0  0
    5.1517    8.3943    3.5822 H   0  0  0  0  0  0  0  0  0  0  0  0
    6.1662    7.2611    2.5704 H   0  0  0  0  0  0  0  0  0  0  0  0
    7.5919    8.2006    4.7653 H   0  0  0  0  0  0  0  0  0  0  0  0
   10.7122   11.8411    4.5251 H   0  0  0  0  0  0  0  0  0  0  0  0
   11.0121   13.7013    2.9536 H   0  0  0  0  0  0  0  0  0  0  0  0
    7.6515   12.3425    0.5996 H   0  0  0  0  0  0  0  0  0  0  0  0
   10.4911   10.3257    5.5557 H   0  0  0  0  0  0  0  0  0  0  0  0
    8.2427    8.9237    6.7990 H   0  0  0  0  0  0  0  0  0  0  0  0
    9.4092    7.7626    6.0794 H   0  0  0  0  0  0  0  0  0  0  0  0
   11.0096    8.2000    7.6597 H   0  0  0  0  0  0  0  0  0  0  0  0
   10.6519    9.9603    7.6762 H   0  0  0  0  0  0  0  0  0  0  0  0
    8.3630    9.0975    8.8113 H   0  0  0  0  0  0  0  0  0  0  0  0
    9.4142    7.7196    9.2836 H   0  0  0  0  0  0  0  0  0  0  0  0
   10.1151   10.4972    9.6913 H   0  0  0  0  0  0  0  0  0  0  0  0
    6.4724   10.3840    1.2963 H   0  0  0  0  0  0  0  0  0  0  0  0
  1  2  1  0  0  0  0
  1 20  1  0  0  0  0
  1 21  1  0  0  0  0
  1 22  1  0  0  0  0
  2  3  2  0  0  0  0
  2 18  1  0  0  0  0
  3  4  1  0  0  0  0
  3 23  1  0  0  0  0
  4  5  2  0  0  0  0
  4 13  1  0  0  0  0
  5 10  1  0  0  0  0
  5  6  1  0  0  0  0
  6  7  2  0  0  0  0
  6 24  1  0  0  0  0
  7  8  1  0  0  0  0
  7 25  1  0  0  0  0
  8  9  2  0  0  0  0
  8 11  1  0  0  0  0
  9 10  1  0  0  0  0
  9 26  1  0  0  0  0
 10 18  2  0  0  0  0
 11 12  2  0  0  0  0
 11 19  1  0  0  0  0
 13 14  1  0  0  0  0
 13 27  1  0  0  0  0
 14 15  1  0  0  0  0
 14 28  1  0  0  0  0
 14 29  1  0  0  0  0
 15 16  1  0  0  0  0
 15 30  1  0  0  0  0
 15 31  1  0  0  0  0
 16 17  1  0  0  0  0
 16 32  1  0  0  0  0
 16 33  1  0  0  0  0
 17 34  1  0  0  0  0
 18 35  1  0  0  0  0
M  END
> <Name>
ZINC04226538

> <reference>
BDB5242

> <quality>
0.858

> <status>
decoy

> <atoms in reference ligand area>
12

> <score>
-18.7979

$$$$
ZINC04839229
      BALL 1.4.0 (Jan  4 2012, 23:22:29)

 46 47  0999  0  0  0  0  0  0999 V2000
    6.9008    9.5725    5.9186 C   0  0  0  0  0  0  0  0  0  0  0  0
    8.2995    9.2838    5.8711 O   0  0  0  0  0  0  0  0  0  0  0  0
    8.9501    9.7533    4.6885 C   0  0  0  0  0  0  0  0  0  0  0  0
   10.2637    8.9936    4.4933 C   0  0  0  0  0  0  0  0  0  0  0  0
   10.1389    8.0609    3.2868 C   0  0  0  0  0  0  0  0  0  0  0  0
   11.3967    7.3334    3.0998 N   0  0  0  0  0  0  0  0  0  0  0  0
   11.8909    7.1183    1.8200 C   0  0  0  0  0  0  0  0  0  0  0  0
   11.6177    5.9281    1.1567 C   0  0  0  0  0  0  0  0  0  0  0  0
   12.1089    5.7171   -0.1149 C   0  0  0  0  0  0  0  0  0  0  0  0
   12.8767    6.6869   -0.7407 C   0  0  0  0  0  0  0  0  0  0  0  0
   13.1581    7.8729   -0.0992 C   0  0  0  0  0  0  0  0  0  0  0  0
   12.6639    8.1040    1.1873 C   0  0  0  0  0  0  0  0  0  0  0  0
   12.9561    9.3738    1.8772 C   0  0  0  0  0  0  0  0  0  0  0  0
   13.8991    9.4474    2.6416 O   0  0  0  0  0  0  0  0  0  0  0  0
   12.1784   10.4529    1.6607 N   0  0  0  0  0  0  0  0  0  0  0  0
   11.1149   10.4254    0.6449 C   0  0  0  0  0  0  0  0  0  0  0  0
   11.2711   11.6441   -0.2633 C   0  0  0  0  0  0  0  0  0  0  0  0
   12.4848   12.8620    1.4469 C   0  0  0  0  0  0  0  0  0  0  0  0
   12.3744   11.6913    2.4295 C   0  0  0  0  0  0  0  0  0  0  0  0
   13.3967    6.4468   -2.1056 N   0  0  0  0  0  0  0  0  0  0  0  0
   14.4466    6.9555   -2.4555 O   0  0  0  0  0  0  0  0  0  0  0  0
   12.7746    5.7406   -2.8788 O   0  0  0  0  0  0  0  0  0  0  0  0
   11.3077   12.8712    0.5564 N   0  3  0  0  0  0  0  0  0  0  0  0
    6.5009    9.4439    4.9020 H   0  0  0  0  0  0  0  0  0  0  0  0
    6.7897   10.6287    6.2050 H   0  0  0  0  0  0  0  0  0  0  0  0
    6.3768    8.9174    6.6302 H   0  0  0  0  0  0  0  0  0  0  0  0
    8.2972    9.5852    3.8193 H   0  0  0  0  0  0  0  0  0  0  0  0
    9.1604   10.8285    4.7867 H   0  0  0  0  0  0  0  0  0  0  0  0
   11.0796    9.7105    4.3190 H   0  0  0  0  0  0  0  0  0  0  0  0
   10.4827    8.4003    5.3933 H   0  0  0  0  0  0  0  0  0  0  0  0
    9.3233    7.3435    3.4606 H   0  0  0  0  0  0  0  0  0  0  0  0
    9.9209    8.6527    2.3855 H   0  0  0  0  0  0  0  0  0  0  0  0
   11.9145    6.9815    3.9177 H   0  0  0  0  0  0  0  0  0  0  0  0
   11.0092    5.1534    1.6463 H   0  0  0  0  0  0  0  0  0  0  0  0
   11.8899    4.7733   -0.6358 H   0  0  0  0  0  0  0  0  0  0  0  0
   13.7712    8.6373   -0.5990 H   0  0  0  0  0  0  0  0  0  0  0  0
   11.2009    9.5070    0.0458 H   0  0  0  0  0  0  0  0  0  0  0  0
   10.1321   10.4579    1.1377 H   0  0  0  0  0  0  0  0  0  0  0  0
   10.4210   11.6949   -0.9596 H   0  0  0  0  0  0  0  0  0  0  0  0
   12.2071   11.5578   -0.8347 H   0  0  0  0  0  0  0  0  0  0  0  0
   12.5276   13.8079    2.0069 H   0  0  0  0  0  0  0  0  0  0  0  0
   13.3985   12.7514    0.8444 H   0  0  0  0  0  0  0  0  0  0  0  0
   13.2996   11.6180    3.0201 H   0  0  0  0  0  0  0  0  0  0  0  0
   11.5155   11.8512    3.0977 H   0  0  0  0  0  0  0  0  0  0  0  0
   11.3553   13.6934   -0.0624 H   0  0  0  0  0  0  0  0  0  0  0  0
   10.4511   12.9281    1.1254 H   0  0  0  0  0  0  0  0  0  0  0  0
  1  2  1  0  0  0  0
  1 24  1  0  0  0  0
  1 25  1  0  0  0  0
  1 26  1  0  0  0  0
  2  3  1  0  0  0  0
  3  4  1  0  0  0  0
  3 27  1  0  0  0  0
  3 28  1  0  0  0  0
  4  5  1  0  0  0  0
  4 29  1  0  0  0  0
  4 30  1  0  0  0  0
  5  6  1  0  0  0  0
  5 31  1  0  0  0  0
  5 32  1  0  0  0  0
  6  7  1  0  0  0  0
  6 33  1  0  0  0  0
  7 12  2  0  0  0  0
  7  8  1  0  0  0  0
  8  9  2  0  0  0  0
  8 34  1  0  0  0  0
  9 10  1  0  0  0  0
  9 35  1  0  0  0  0
 10 11  2  0  0  0  0
 10 20  1  0  0  0  0
 11 12  1  0  0  0  0
 11 36  1  0  0  0  0
 12 13  1  0  0  0  0
 13 14  2  0  0  0  0
 13 15  1  0  0  0  0
 15 19  1  0  0  0  0
 15 16  1  0  0  0  0
 16 17  1  0  0  0  0
 16 37  1  0  0  0  0
 16 38  1  0  0  0  0
 17 23  1  0  0  0  0
 17 39  1  0  0  0  0
 17 40  1  0  0  0  0
 18 19  1  0  0  0  0
 18 23  1  0  0  0  0
 18 41  1  0  0  0  0
 18 42  1  0  0  0  0
 19 43  1  0  0  0  0
 19 44  1  0  0  0  0
 20 21  2  0  0  0  0
 20 22  2  0  0  0  0
 23 45  1  0  0  0  0
 23 46  1  0  0  0  0
M  END
> <Name>
ZINC04839229

> <reference>
BDB5195

> <quality>
0.747

> <status>
decoy

> <atoms in reference ligand area>
10

> <score>
-18.7717

$$$$
ZINC16769863
      BALL 1.4.0 (Jan  4 2012, 23:22:29)

 50 52  0999  0  0  0  0  0  0999 V2000
    3.6900    6.0886   -3.0214 C   0  0  0  0  0  0  0  0  0  0  0  0
    4.6649    6.8071   -2.1244 C   0  0  0  0  0  0  0  0  0  0  0  0
    5.9137    7.1597   -2.6034 C   0  0  0  0  0  0  0  0  0  0  0  0
    6.8110    7.8195   -1.7840 C   0  0  0  0  0  0  0  0  0  0  0  0
    6.4629    8.1286   -0.4837 C   0  0  0  0  0  0  0  0  0  0  0  0
    5.2096    7.7760    0.0008 C   0  0  0  0  0  0  0  0  0  0  0  0
    4.3104    7.1130   -0.8255 C   0  0  0  0  0  0  0  0  0  0  0  0
    4.8543    8.0867    1.3157 N   0  0  0  0  0  0  0  0  0  0  0  0
    5.3810    7.3499    2.3708 C   0  0  0  0  0  0  0  0  0  0  0  0
    4.8752    6.3033    2.9936 N   0  0  0  0  0  0  0  0  0  0  0  0
    5.5734    5.7159    4.0233 N   0  0  0  0  0  0  0  0  0  0  0  0
    6.7412    6.2091    4.3896 C   0  0  0  0  0  0  0  0  0  0  0  0
    6.9200    7.5728    3.2497 S   0  0  0  0  0  0  0  0  0  0  0  0
    7.8322    5.6676    5.6628 S   0  0  0  0  0  0  0  0  0  0  0  0
    8.9130    4.4692    4.8344 C   0  0  0  0  0  0  0  0  0  0  0  0
   10.2239    5.1285    4.4911 C   0  0  0  0  0  0  0  0  0  0  0  0
   11.2694    4.5931    4.7932 O   0  0  0  0  0  0  0  0  0  0  0  0
   10.2345    6.3130    3.8484 N   0  0  0  0  0  0  0  0  0  0  0  0
   11.3759    7.1241    3.8930 N   0  0  0  0  0  0  0  0  0  0  0  0
   11.3236    8.3876    3.4269 C   0  0  0  0  0  0  0  0  0  0  0  0
   11.3991    8.5978    2.2348 O   0  0  0  0  0  0  0  0  0  0  0  0
   11.1711    9.5392    4.3869 C   0  0  0  0  0  0  0  0  0  0  0  0
   10.8896   10.8227    3.6031 C   0  0  0  0  0  0  0  0  0  0  0  0
   10.5990   11.9682    4.5868 C   0  0  0  0  0  0  0  0  0  0  0  0
   10.6286   13.3064    3.7944 C   0  0  0  0  0  0  0  0  0  0  0  0
   12.0732   13.0117    2.6893 S   0  0  0  0  0  0  0  0  0  0  0  0
   13.2442   13.5194    3.3139 O   0  0  0  0  0  0  0  0  0  0  0  0
   11.7424   13.4346    1.3735 O   0  0  0  0  0  0  0  0  0  0  0  0
   12.1205   11.1738    2.7330 C   0  0  0  0  0  0  0  0  0  0  0  0
    2.7887    6.7191   -3.0275 H   0  0  0  0  0  0  0  0  0  0  0  0
    3.4359    5.1628   -2.4843 H   0  0  0  0  0  0  0  0  0  0  0  0
    4.0757    5.8959   -4.0333 H   0  0  0  0  0  0  0  0  0  0  0  0
    6.1936    6.9147   -3.6386 H   0  0  0  0  0  0  0  0  0  0  0  0
    7.8033    8.0984   -2.1681 H   0  0  0  0  0  0  0  0  0  0  0  0
    7.1772    8.6535    0.1676 H   0  0  0  0  0  0  0  0  0  0  0  0
    3.3171    6.8323   -0.4453 H   0  0  0  0  0  0  0  0  0  0  0  0
    4.2023    8.8615    1.5036 H   0  0  0  0  0  0  0  0  0  0  0  0
    8.4296    4.1139    3.9125 H   0  0  0  0  0  0  0  0  0  0  0  0
    9.0965    3.6163    5.5045 H   0  0  0  0  0  0  0  0  0  0  0  0
    9.4033    6.6220    3.3244 H   0  0  0  0  0  0  0  0  0  0  0  0
   12.2553    6.7548    4.2821 H   0  0  0  0  0  0  0  0  0  0  0  0
   10.3343    9.3376    5.0719 H   0  0  0  0  0  0  0  0  0  0  0  0
   12.0982    9.6603    4.9664 H   0  0  0  0  0  0  0  0  0  0  0  0
   10.0159   10.6757    2.9510 H   0  0  0  0  0  0  0  0  0  0  0  0
    9.6050   11.8271    5.0360 H   0  0  0  0  0  0  0  0  0  0  0  0
   11.3691   11.9873    5.3721 H   0  0  0  0  0  0  0  0  0  0  0  0
    9.7148   13.4256    3.1937 H   0  0  0  0  0  0  0  0  0  0  0  0
   10.8355   14.1542    4.4641 H   0  0  0  0  0  0  0  0  0  0  0  0
   12.0024   10.7729    1.7154 H   0  0  0  0  0  0  0  0  0  0  0  0
   13.0469   10.8354    3.2202 H   0  0  0  0  0  0  0  0  0  0  0  0
  1  2  1  0  0  0  0
  1 30  1  0  0  0  0
  1 31  1  0  0  0  0
  1 32  1  0  0  0  0
  2  7  2  0  0  0  0
  2  3  1  0  0  0  0
  3  4  2  0  0  0  0
  3 33  1  0  0  0  0
  4  5  1  0  0  0  0
  4 34  1  0  0  0  0
  5  6  2  0  0  0  0
  5 35  1  0  0  0  0
  6  7  1  0  0  0  0
  6  8  1  0  0  0  0
  7 36  1  0  0  0  0
  8  9  1  0  0  0  0
  8 37  1  0  0  0  0
  9 13  1  0  0  0  0
  9 10  2  0  0  0  0
 10 11  1  0  0  0  0
 11 12  2  0  0  0  0
 12 13  1  0  0  0  0
 12 14  1  0  0  0  0
 14 15  1  0  0  0  0
 15 16  1  0  0  0  0
 15 38  1  0  0  0  0
 15 39  1  0  0  0  0
 16 17  2  0  0  0  0
 16 18  1  0  0  0  0
 18 19  1  0  0  0  0
 18 40  1  0  0  0  0
 19 20  1  0  0  0  0
 19 41  1  0  0  0  0
 20 21  2  0  0  0  0
 20 22  1  0  0  0  0
 22 23  1  0  0  0  0
 22 42  1  0  0  0  0
 22 43  1  0  0  0  0
 23 29  1  0  0  0  0
 23 24  1  0  0  0  0
 23 44  1  0  0  0  0
 24 25  1  0  0  0  0
 24 45  1  0  0  0  0
 24 46  1  0  0  0  0
 25 26  1  0  0  0  0
 25 47  1  0  0  0  0
 25 48  1  0  0  0  0
 26 27  2  0  0  0  0
 26 28  2  0  0  0  0
 26 29  1  0  0  0  0
 29 49  1  0  0  0  0
 29 50  1  0  0  0  0
M  END
> <Name>
ZINC16769863

> <reference>
BDB4968

> <quality>
0.760

> <status>
decoy

> <atoms in reference ligand area>
10

> <score>
-18.751

$$$$
ZINC29484918
      BALL 1.4.0 (Jan  4 2012, 23:22:29)

 37 38  0999  0  0  0  0  0  0999 V2000
   16.2142   12.0182    5.8509 C   0  0  0  0  0  0  0  0  0  0  0  0
   14.8526   11.5963    5.7515 O   0  0  0  0  0  0  0  0  0  0  0  0
   14.4954   11.0831    4.4666 C   0  0  0  0  0  0  0  0  0  0  0  0
   14.2274   12.2461    3.5094 C   0  0  0  0  0  0  0  0  0  0  0  0
   12.8909   12.1012    2.9270 N   0  3  0  0  0  0  0  0  0  0  0  0
   11.8469   12.5419    3.5726 C   0  0  0  0  0  0  0  0  0  0  0  0
   12.0068   13.2126    4.7631 N   0  0  0  0  0  0  0  0  0  0  0  0
   10.2314   12.2784    2.9202 S   0  0  0  0  0  0  0  0  0  0  0  0
   10.6474   11.3819    1.4038 C   0  0  0  0  0  0  0  0  0  0  0  0
   10.3696   12.2584    0.2098 C   0  0  0  0  0  0  0  0  0  0  0  0
   11.4164   12.8459   -0.4734 C   0  0  0  0  0  0  0  0  0  0  0  0
   11.1333   13.6559   -1.5793 C   0  0  0  0  0  0  0  0  0  0  0  0
   12.0361   14.1898   -2.2042 O   0  0  0  0  0  0  0  0  0  0  0  0
    9.8461   13.8377   -1.9439 N   0  0  0  0  0  0  0  0  0  0  0  0
    9.5545   14.6229   -3.0177 C   0  0  0  0  0  0  0  0  0  0  0  0
    8.2734   14.8201   -3.4022 C   0  0  0  0  0  0  0  0  0  0  0  0
    7.2249   14.2152   -2.6949 C   0  0  0  0  0  0  0  0  0  0  0  0
    7.5061   13.4268   -1.6195 C   0  0  0  0  0  0  0  0  0  0  0  0
    8.8455   13.2336   -1.2349 C   0  0  0  0  0  0  0  0  0  0  0  0
    9.1224   12.4642   -0.1836 N   0  0  0  0  0  0  0  0  0  0  0  0
   16.2813   12.7274    6.6890 H   0  0  0  0  0  0  0  0  0  0  0  0
   16.4645   12.5523    4.9224 H   0  0  0  0  0  0  0  0  0  0  0  0
   16.8914   11.1652    6.0057 H   0  0  0  0  0  0  0  0  0  0  0  0
   13.5891   10.4663    4.5558 H   0  0  0  0  0  0  0  0  0  0  0  0
   15.3197   10.4690    4.0747 H   0  0  0  0  0  0  0  0  0  0  0  0
   14.9790   12.2421    2.7062 H   0  0  0  0  0  0  0  0  0  0  0  0
   14.2852   13.1960    4.0611 H   0  0  0  0  0  0  0  0  0  0  0  0
   12.7757   11.6512    2.0077 H   0  0  0  0  0  0  0  0  0  0  0  0
   12.7103   12.8926    5.4439 H   0  0  0  0  0  0  0  0  0  0  0  0
   11.4231   14.0346    4.9736 H   0  0  0  0  0  0  0  0  0  0  0  0
   11.7133   11.1107    1.4187 H   0  0  0  0  0  0  0  0  0  0  0  0
   10.0375   10.4689    1.3373 H   0  0  0  0  0  0  0  0  0  0  0  0
   12.4557   12.6799   -0.1537 H   0  0  0  0  0  0  0  0  0  0  0  0
   10.3705   15.1020   -3.5786 H   0  0  0  0  0  0  0  0  0  0  0  0
    8.0532   15.4567   -4.2719 H   0  0  0  0  0  0  0  0  0  0  0  0
    6.1821   14.3758   -3.0060 H   0  0  0  0  0  0  0  0  0  0  0  0
    6.6926   12.9456   -1.0569 H   0  0  0  0  0  0  0  0  0  0  0  0
  1  2  1  0  0  0  0
  1 21  1  0  0  0  0
  1 22  1  0  0  0  0
  1 23  1  0  0  0  0
  2  3  1  0  0  0  0
  3  4  1  0  0  0  0
  3 24  1  0  0  0  0
  3 25  1  0  0  0  0
  4  5  1  0  0  0  0
  4 26  1  0  0  0  0
  4 27  1  0  0  0  0
  5  6  2  0  0  0  0
  5 28  1  0  0  0  0
  6  7  1  0  0  0  0
  6  8  1  0  0  0  0
  7 29  1  0  0  0  0
  7 30  1  0  0  0  0
  8  9  1  0  0  0  0
  9 10  1  0  0  0  0
  9 31  1  0  0  0  0
  9 32  1  0  0  0  0
 10 20  1  0  0  0  0
 10 11  2  0  0  0  0
 11 12  1  0  0  0  0
 11 33  1  0  0  0  0
 12 13  2  0  0  0  0
 12 14  1  0  0  0  0
 14 19  1  0  0  0  0
 14 15  1  0  0  0  0
 15 16  2  0  0  0  0
 15 34  1  0  0  0  0
 16 17  1  0  0  0  0
 16 35  1  0  0  0  0
 17 18  2  0  0  0  0
 17 36  1  0  0  0  0
 18 19  1  0  0  0  0
 18 37  1  0  0  0  0
 19 20  2  0  0  0  0
M  END
> <Name>
ZINC29484918

> <reference>
BDB5204

> <quality>
0.807

> <status>
decoy

> <atoms in reference ligand area>
18

> <score>
-18.7061

$$$$
ZINC29840100
      BALL 1.4.0 (Jan  4 2012, 23:22:29)

 41 41  0999  0  0  0  0  0  0999 V2000
   12.9408    7.0662   -2.2535 C   0  0  0  0  0  0  0  0  0  0  0  0
   14.2070    7.1024   -1.3955 C   0  0  0  0  0  0  0  0  0  0  0  0
   13.8725    6.6481    0.0267 C   0  0  0  0  0  0  0  0  0  0  0  0
   12.4765    7.0881    0.4207 C   0  0  0  0  0  0  0  0  0  0  0  0
   11.4323    6.7710   -0.1074 O   0  0  0  0  0  0  0  0  0  0  0  0
   12.6377    7.9067    1.4791 N   0  0  0  0  0  0  0  0  0  0  0  0
   13.9274    8.0378    1.8098 C   0  0  0  0  0  0  0  0  0  0  0  0
   14.3220    8.7217    2.7338 O   0  0  0  0  0  0  0  0  0  0  0  0
   14.7389    7.3279    1.0051 N   0  5  0  0  0  0  0  0  0  0  0  0
   11.5842    8.5377    2.1536 N   0  0  0  0  0  0  0  0  0  0  0  0
   11.3625    9.8550    1.9745 C   0  0  0  0  0  0  0  0  0  0  0  0
   11.6444   10.3793    0.9179 O   0  0  0  0  0  0  0  0  0  0  0  0
   10.7642   10.6764    3.0874 C   0  0  0  0  0  0  0  0  0  0  0  0
   10.4957   12.0367    2.6021 N   0  0  0  0  0  0  0  0  0  0  0  0
    9.7443   12.8123    3.5981 C   0  0  0  0  0  0  0  0  0  0  0  0
    8.4154   13.2685    2.9923 C   0  0  0  0  0  0  0  0  0  0  0  0
   11.7430   12.7202    2.2344 C   0  0  0  0  0  0  0  0  0  0  0  0
   11.4200   13.9415    1.3712 C   0  0  0  0  0  0  0  0  0  0  0  0
   10.6864   14.8919    2.1462 O   0  0  0  0  0  0  0  0  0  0  0  0
   14.0088    5.1292    0.1509 C   0  0  0  0  0  0  0  0  0  0  0  0
   12.0546    7.0782   -1.6019 H   0  0  0  0  0  0  0  0  0  0  0  0
   12.9352    6.1500   -2.8622 H   0  0  0  0  0  0  0  0  0  0  0  0
   12.9200    7.9448   -2.9151 H   0  0  0  0  0  0  0  0  0  0  0  0
   14.6035    8.1281   -1.3682 H   0  0  0  0  0  0  0  0  0  0  0  0
   14.9619    6.4288   -1.8271 H   0  0  0  0  0  0  0  0  0  0  0  0
   10.9793    7.9950    2.7862 H   0  0  0  0  0  0  0  0  0  0  0  0
   11.4686   10.7212    3.9310 H   0  0  0  0  0  0  0  0  0  0  0  0
    9.8231   10.2138    3.4196 H   0  0  0  0  0  0  0  0  0  0  0  0
   10.3313   13.6929    3.8978 H   0  0  0  0  0  0  0  0  0  0  0  0
    9.5483   12.1847    4.4799 H   0  0  0  0  0  0  0  0  0  0  0  0
    8.1707   12.6377    2.1251 H   0  0  0  0  0  0  0  0  0  0  0  0
    8.4988   14.3171    2.6703 H   0  0  0  0  0  0  0  0  0  0  0  0
    7.6186   13.1796    3.7455 H   0  0  0  0  0  0  0  0  0  0  0  0
   12.3865   12.0313    1.6676 H   0  0  0  0  0  0  0  0  0  0  0  0
   12.2662   13.0442    3.1461 H   0  0  0  0  0  0  0  0  0  0  0  0
   12.3559   14.4000    1.0196 H   0  0  0  0  0  0  0  0  0  0  0  0
   10.8161   13.6309    0.5059 H   0  0  0  0  0  0  0  0  0  0  0  0
   11.3110   15.4070    2.7161 H   0  0  0  0  0  0  0  0  0  0  0  0
   13.7748    4.6671   -0.8196 H   0  0  0  0  0  0  0  0  0  0  0  0
   13.2964    4.7653    0.9059 H   0  0  0  0  0  0  0  0  0  0  0  0
   15.0344    4.8670    0.4501 H   0  0  0  0  0  0  0  0  0  0  0  0
  1  2  1  0  0  0  0
  1 21  1  0  0  0  0
  1 22  1  0  0  0  0
  1 23  1  0  0  0  0
  2  3  1  0  0  0  0
  2 24  1  0  0  0  0
  2 25  1  0  0  0  0
  3  9  1  0  0  0  0
  3  4  1  0  0  0  0
  3 20  1  0  0  0  0
  4  5  2  0  0  0  0
  4  6  1  0  0  0  0
  6  7  1  0  0  0  0
  6 10  1  0  0  0  0
  7  8  2  0  0  0  0
  7  9  1  0  0  0  0
 10 11  1  0  0  0  0
 10 26  1  0  0  0  0
 11 12  2  0  0  0  0
 11 13  1  0  0  0  0
 13 14  1  0  0  0  0
 13 27  1  0  0  0  0
 13 28  1  0  0  0  0
 14 15  1  0  0  0  0
 14 17  1  0  0  0  0
 15 16  1  0  0  0  0
 15 29  1  0  0  0  0
 15 30  1  0  0  0  0
 16 31  1  0  0  0  0
 16 32  1  0  0  0  0
 16 33  1  0  0  0  0
 17 18  1  0  0  0  0
 17 34  1  0  0  0  0
 17 35  1  0  0  0  0
 18 19  1  0  0  0  0
 18 36  1  0  0  0  0
 18 37  1  0  0  0  0
 19 38  1  0  0  0  0
 20 39  1  0  0  0  0
 20 40  1  0  0  0  0
 20 41  1  0  0  0  0
M  END
> <Name>
ZINC29840100

> <reference>
BDB5195

> <quality>
0.820

> <status>
decoy

> <atoms in reference ligand area>
14

> <score>
-18.262

$$$$
ZINC23280832
      BALL 1.4.0 (Jan  4 2012, 23:22:29)

 48 49  0999  0  0  0  0  0  0999 V2000
   16.8450   10.9792    9.2965 C   0  0  0  0  0  0  0  0  0  0  0  0
   17.8865   11.0599   10.4143 C   0  0  0  0  0  0  0  0  0  0  0  0
   17.8838    9.8082   11.1756 N   0  0  0  0  0  0  0  0  0  0  0  0
   17.4751    9.8074   12.5824 C   0  0  0  0  0  0  0  0  0  0  0  0
   16.9854   11.2036   12.9720 C   0  0  0  0  0  0  0  0  0  0  0  0
   18.3427    8.3943   10.4458 S   0  0  0  0  0  0  0  0  0  0  0  0
   18.3218    7.3920   11.4528 O   0  0  0  0  0  0  0  0  0  0  0  0
   19.5079    8.6882    9.6875 O   0  0  0  0  0  0  0  0  0  0  0  0
   17.0823    7.9723    9.2890 C   0  0  0  0  0  0  0  0  0  0  0  0
   15.8843    7.3782    9.5108 C   0  0  0  0  0  0  0  0  0  0  0  0
   15.0448    7.1412    8.4385 C   0  0  0  0  0  0  0  0  0  0  0  0
   15.4443    7.5101    7.1970 C   0  0  0  0  0  0  0  0  0  0  0  0
   17.0545    8.2103    7.5199 S   0  0  0  0  0  0  0  0  0  0  0  0
   14.7201    7.3617    5.8837 C   0  0  0  0  0  0  0  0  0  0  0  0
   13.9033    8.5530    5.6392 N   0  0  0  0  0  0  0  0  0  0  0  0
   13.6605    8.9559    4.3762 C   0  0  0  0  0  0  0  0  0  0  0  0
   14.1180    8.3321    3.4420 O   0  0  0  0  0  0  0  0  0  0  0  0
   12.8203   10.1814    4.1245 C   0  0  0  0  0  0  0  0  0  0  0  0
   12.6781   10.4597    2.3417 S   0  0  0  0  0  0  0  0  0  0  0  0
   11.6762   11.9092    2.3374 C   0  0  0  0  0  0  0  0  0  0  0  0
   11.2106   12.5396    3.3907 N   0  0  0  0  0  0  0  0  0  0  0  0
   10.5179   13.5567    3.0199 N   0  0  0  0  0  0  0  0  0  0  0  0
   10.5000   13.6357    1.7194 C   0  0  0  0  0  0  0  0  0  0  0  0
   11.2370   12.5892    1.2379 N   0  0  0  0  0  0  0  0  0  0  0  0
   11.4825   12.2869   -0.0715 N   0  0  0  0  0  0  0  0  0  0  0  0
    9.8017   14.6890    0.8983 C   0  0  0  0  0  0  0  0  0  0  0  0
   16.8465   11.9185    8.7241 H   0  0  0  0  0  0  0  0  0  0  0  0
   15.8484   10.8183    9.7334 H   0  0  0  0  0  0  0  0  0  0  0  0
   17.0897   10.1421    8.6260 H   0  0  0  0  0  0  0  0  0  0  0  0
   18.8829   11.2199    9.9764 H   0  0  0  0  0  0  0  0  0  0  0  0
   17.6420   11.8967   11.0851 H   0  0  0  0  0  0  0  0  0  0  0  0
   16.6623    9.0806   12.7279 H   0  0  0  0  0  0  0  0  0  0  0  0
   18.3320    9.5306   13.2142 H   0  0  0  0  0  0  0  0  0  0  0  0
   17.7971   11.9317   12.8267 H   0  0  0  0  0  0  0  0  0  0  0  0
   16.6780   11.2041   14.0281 H   0  0  0  0  0  0  0  0  0  0  0  0
   16.1279   11.4813   12.3415 H   0  0  0  0  0  0  0  0  0  0  0  0
   15.5847    7.0889   10.5288 H   0  0  0  0  0  0  0  0  0  0  0  0
   14.0671    6.6605    8.5906 H   0  0  0  0  0  0  0  0  0  0  0  0
   15.4531    7.2472    5.0715 H   0  0  0  0  0  0  0  0  0  0  0  0
   14.0712    6.4742    5.9198 H   0  0  0  0  0  0  0  0  0  0  0  0
   13.5147    9.0827    6.4325 H   0  0  0  0  0  0  0  0  0  0  0  0
   11.8180   10.0334    4.5529 H   0  0  0  0  0  0  0  0  0  0  0  0
   13.2946   11.0555    4.5945 H   0  0  0  0  0  0  0  0  0  0  0  0
   12.2969   11.6768   -0.2307 H   0  0  0  0  0  0  0  0  0  0  0  0
   10.9089   12.6326   -0.8540 H   0  0  0  0  0  0  0  0  0  0  0  0
    8.8180   14.7616    1.3851 H   0  0  0  0  0  0  0  0  0  0  0  0
    9.6301   14.1745   -0.0587 H   0  0  0  0  0  0  0  0  0  0  0  0
   10.3238   15.6521    0.8003 H   0  0  0  0  0  0  0  0  0  0  0  0
  1  2  1  0  0  0  0
  1 27  1  0  0  0  0
  1 28  1  0  0  0  0
  1 29  1  0  0  0  0
  2  3  1  0  0  0  0
  2 30  1  0  0  0  0
  2 31  1  0  0  0  0
  3  4  1  0  0  0  0
  3  6  1  0  0  0  0
  4  5  1  0  0  0  0
  4 32  1  0  0  0  0
  4 33  1  0  0  0  0
  5 34  1  0  0  0  0
  5 35  1  0  0  0  0
  5 36  1  0  0  0  0
  6  7  2  0  0  0  0
  6  8  2  0  0  0  0
  6  9  1  0  0  0  0
  9 13  1  0  0  0  0
  9 10  2  0  0  0  0
 10 11  1  0  0  0  0
 10 37  1  0  0  0  0
 11 12  2  0  0  0  0
 11 38  1  0  0  0  0
 12 13  1  0  0  0  0
 12 14  1  0  0  0  0
 14 15  1  0  0  0  0
 14 39  1  0  0  0  0
 14 40  1  0  0  0  0
 15 16  1  0  0  0  0
 15 41  1  0  0  0  0
 16 17  2  0  0  0  0
 16 18  1  0  0  0  0
 18 19  1  0  0  0  0
 18 42  1  0  0  0  0
 18 43  1  0  0  0  0
 19 20  1  0  0  0  0
 20 24  1  0  0  0  0
 20 21  2  0  0  0  0
 21 22  1  0  0  0  0
 22 23  2  0  0  0  0
 23 24  1  0  0  0  0
 23 26  1  0  0  0  0
 24 25  1  0  0  0  0
 25 44  1  0  0  0  0
 25 45  1  0  0  0  0
 26 46  1  0  0  0  0
 26 47  1  0  0  0  0
 26 48  1  0  0  0  0
M  END
> <Name>
ZINC23280832

> <reference>
BDB4965

> <quality>
0.685

> <status>
decoy

> <atoms in reference ligand area>
10

> <score>
-18.1794

$$$$
ZINC27856025
      BALL 1.4.0 (Jan  4 2012, 23:22:29)

 63 66  0999  0  0  0  0  0  0999 V2000
   13.5694    5.3493   -1.6049 C   0  0  0  0  0  0  0  0  0  0  0  0
   13.9514    4.7026   -2.7632 C   0  0  0  0  0  0  0  0  0  0  0  0
   14.7550    3.5724   -2.6946 C   0  0  0  0  0  0  0  0  0  0  0  0
   15.1788    3.0956   -1.4612 C   0  0  0  0  0  0  0  0  0  0  0  0
   14.8016    3.7456   -0.3032 C   0  0  0  0  0  0  0  0  0  0  0  0
   13.9979    4.8759   -0.3718 C   0  0  0  0  0  0  0  0  0  0  0  0
   13.6146    5.5352    0.8034 N   0  0  0  0  0  0  0  0  0  0  0  0
   13.6803    6.8796    0.8738 C   0  0  0  0  0  0  0  0  0  0  0  0
   14.1492    7.5130   -0.0482 O   0  0  0  0  0  0  0  0  0  0  0  0
   13.1708    7.5957    2.0980 C   0  0  0  0  0  0  0  0  0  0  0  0
   12.4352    8.8689    1.6749 C   0  0  0  0  0  0  0  0  0  0  0  0
   11.0208    8.5114    1.2140 C   0  0  0  0  0  0  0  0  0  0  0  0
   10.0788    9.5229    1.6993 N   0  0  0  0  0  0  0  0  0  0  0  0
   10.4318   10.5966    2.4386 C   0  0  0  0  0  0  0  0  0  0  0  0
   11.5439   10.8953    2.8177 O   0  0  0  0  0  0  0  0  0  0  0  0
    9.1477   11.3445    2.6919 C   0  0  0  0  0  0  0  0  0  0  0  0
    9.2156   12.7666    2.1193 C   0  0  0  0  0  0  0  0  0  0  0  0
    8.4003   13.6163    3.1284 C   0  0  0  0  0  0  0  0  0  0  0  0
    8.7675   12.9783    4.4921 C   0  0  0  0  0  0  0  0  0  0  0  0
    8.8613   11.4659    4.1905 C   0  0  0  0  0  0  0  0  0  0  0  0
    8.1210   10.5503    2.0143 N   0  5  0  0  0  0  0  0  0  0  0  0
    8.7611    9.5010    1.4604 C   0  0  0  0  0  0  0  0  0  0  0  0
    8.2052    8.6332    0.8162 O   0  0  0  0  0  0  0  0  0  0  0  0
   15.1380    2.9127   -3.8699 N   0  0  0  0  0  0  0  0  0  0  0  0
   16.4367    2.8732   -4.2281 C   0  0  0  0  0  0  0  0  0  0  0  0
   16.9279    1.8322   -4.6199 O   0  0  0  0  0  0  0  0  0  0  0  0
   17.1909    3.9876   -4.1517 N   0  0  0  0  0  0  0  0  0  0  0  0
   18.6281    3.8826   -3.8877 C   0  0  0  0  0  0  0  0  0  0  0  0
   19.1975    5.2742   -3.6045 C   0  0  0  0  0  0  0  0  0  0  0  0
   18.4196    5.9494   -2.4532 C   0  0  0  0  0  0  0  0  0  0  0  0
   18.3510    7.4362   -2.8679 C   0  0  0  0  0  0  0  0  0  0  0  0
   19.0955    7.4834   -4.2207 C   0  0  0  0  0  0  0  0  0  0  0  0
   18.9977    6.1404   -4.7427 O   0  0  0  0  0  0  0  0  0  0  0  0
   12.9256    6.2396   -1.6588 H   0  0  0  0  0  0  0  0  0  0  0  0
   13.6191    5.0827   -3.7405 H   0  0  0  0  0  0  0  0  0  0  0  0
   15.8151    2.1999   -1.4069 H   0  0  0  0  0  0  0  0  0  0  0  0
   15.1377    3.3681    0.6738 H   0  0  0  0  0  0  0  0  0  0  0  0
   13.2826    4.9926    1.6134 H   0  0  0  0  0  0  0  0  0  0  0  0
   12.4797    6.9386    2.6463 H   0  0  0  0  0  0  0  0  0  0  0  0
   14.0177    7.8612    2.7478 H   0  0  0  0  0  0  0  0  0  0  0  0
   12.3784    9.5605    2.5284 H   0  0  0  0  0  0  0  0  0  0  0  0
   12.9786    9.3501    0.8484 H   0  0  0  0  0  0  0  0  0  0  0  0
   10.9901    8.4799    0.1149 H   0  0  0  0  0  0  0  0  0  0  0  0
   10.7404    7.5270    1.6170 H   0  0  0  0  0  0  0  0  0  0  0  0
    8.7415   12.8001    1.1273 H   0  0  0  0  0  0  0  0  0  0  0  0
   10.2589   13.1138    2.0888 H   0  0  0  0  0  0  0  0  0  0  0  0
    8.7306   14.6651    3.0978 H   0  0  0  0  0  0  0  0  0  0  0  0
    7.3227   13.5085    2.9359 H   0  0  0  0  0  0  0  0  0  0  0  0
    7.9709   13.1683    5.2265 H   0  0  0  0  0  0  0  0  0  0  0  0
    9.7414   13.3561    4.8368 H   0  0  0  0  0  0  0  0  0  0  0  0
    9.6854   11.0207    4.7674 H   0  0  0  0  0  0  0  0  0  0  0  0
    7.9053   10.9773    4.4298 H   0  0  0  0  0  0  0  0  0  0  0  0
   14.4269    2.4578   -4.4602 H   0  0  0  0  0  0  0  0  0  0  0  0
   16.7569    4.9130   -4.2790 H   0  0  0  0  0  0  0  0  0  0  0  0
   19.1329    3.4523   -4.7652 H   0  0  0  0  0  0  0  0  0  0  0  0
   18.7943    3.2344   -3.0147 H   0  0  0  0  0  0  0  0  0  0  0  0
   20.2628    5.1404   -3.3651 H   0  0  0  0  0  0  0  0  0  0  0  0
   18.9734    5.8456   -1.5085 H   0  0  0  0  0  0  0  0  0  0  0  0
   17.4055    5.5291   -2.3836 H   0  0  0  0  0  0  0  0  0  0  0  0
   18.8719    8.0614   -2.1277 H   0  0  0  0  0  0  0  0  0  0  0  0
   17.3036    7.7442   -3.0017 H   0  0  0  0  0  0  0  0  0  0  0  0
   18.5971    8.1908   -4.8999 H   0  0  0  0  0  0  0  0  0  0  0  0
   20.1503    7.7516   -4.0614 H   0  0  0  0  0  0  0  0  0  0  0  0
  1  6  2  0  0  0  0
  1  2  1  0  0  0  0
  1 34  1  0  0  0  0
  2  3  2  0  0  0  0
  2 35  1  0  0  0  0
  3  4  1  0  0  0  0
  3 24  1  0  0  0  0
  4  5  2  0  0  0  0
  4 36  1  0  0  0  0
  5  6  1  0  0  0  0
  5 37  1  0  0  0  0
  6  7  1  0  0  0  0
  7  8  1  0  0  0  0
  7 38  1  0  0  0  0
  8  9  2  0  0  0  0
  8 10  1  0  0  0  0
 10 11  1  0  0  0  0
 10 39  1  0  0  0  0
 10 40  1  0  0  0  0
 11 12  1  0  0  0  0
 11 41  1  0  0  0  0
 11 42  1  0  0  0  0
 12 13  1  0  0  0  0
 12 43  1  0  0  0  0
 12 44  1  0  0  0  0
 13 22  1  0  0  0  0
 13 14  1  0  0  0  0
 14 15  2  0  0  0  0
 14 16  1  0  0  0  0
 16 20  1  0  0  0  0
 16 17  1  0  0  0  0
 16 21  1  0  0  0  0
 17 18  1  0  0  0  0
 17 45  1  0  0  0  0
 17 46  1  0  0  0  0
 18 19  1  0  0  0  0
 18 47  1  0  0  0  0
 18 48  1  0  0  0  0
 19 20  1  0  0  0  0
 19 49  1  0  0  0  0
 19 50  1  0  0  0  0
 20 51  1  0  0  0  0
 20 52  1  0  0  0  0
 21 22  1  0  0  0  0
 22 23  2  0  0  0  0
 24 25  1  0  0  0  0
 24 53  1  0  0  0  0
 25 26  2  0  0  0  0
 25 27  1  0  0  0  0
 27 28  1  0  0  0  0
 27 54  1  0  0  0  0
 28 29  1  0  0  0  0
 28 55  1  0  0  0  0
 28 56  1  0  0  0  0
 29 33  1  0  0  0  0
 29 30  1  0  0  0  0
 29 57  1  0  0  0  0
 30 31  1  0  0  0  0
 30 58  1  0  0  0  0
 30 59  1  0  0  0  0
 31 32  1  0  0  0  0
 31 60  1  0  0  0  0
 31 61  1  0  0  0  0
 32 33  1  0  0  0  0
 32 62  1  0  0  0  0
 32 63  1  0  0  0  0
M  END
> <Name>
ZINC27856025

> <reference>
BDB4968

> <quality>
0.733

> <status>
decoy

> <atoms in reference ligand area>
13

> <score>
-18.0134

$$$$
ZINC19518055
      BALL 1.4.0 (Jan  4 2012, 23:22:29)

 35 35  0999  0  0  0  0  0  0999 V2000
   10.2001   13.5039    0.2749 C   0  0  0  0  0  0  0  0  0  0  0  0
   10.0060   13.4341    1.6889 O   0  0  0  0  0  0  0  0  0  0  0  0
   11.0910   13.1214    2.4463 C   0  0  0  0  0  0  0  0  0  0  0  0
   12.2141   13.9350    2.4179 C   0  0  0  0  0  0  0  0  0  0  0  0
   13.3162   13.6183    3.1873 C   0  0  0  0  0  0  0  0  0  0  0  0
   13.3000   12.4852    3.9894 C   0  0  0  0  0  0  0  0  0  0  0  0
   12.1754   11.6712    4.0174 C   0  0  0  0  0  0  0  0  0  0  0  0
   11.0741   11.9891    3.2476 C   0  0  0  0  0  0  0  0  0  0  0  0
   14.4180   12.1629    4.7701 N   0  0  0  0  0  0  0  0  0  0  0  0
   14.8500   10.8879    4.8344 C   0  0  0  0  0  0  0  0  0  0  0  0
   14.3319   10.0365    4.1433 O   0  0  0  0  0  0  0  0  0  0  0  0
   15.9769   10.5203    5.7651 C   0  0  0  0  0  0  0  0  0  0  0  0
   15.3305    9.5151    7.1297 S   0  0  0  0  0  0  0  0  0  0  0  0
   16.5929    9.6675    8.4234 C   0  0  0  0  0  0  0  0  0  0  0  0
   16.7884    8.3130    9.1074 C   0  0  0  0  0  0  0  0  0  0  0  0
   17.6470    8.4886   10.3333 C   0  0  0  0  0  0  0  0  0  0  0  0
   17.7745    7.5780   11.1172 O   0  0  0  0  0  0  0  0  0  0  0  0
   18.2703    9.6566   10.5544 O   0  5  0  0  0  0  0  0  0  0  0  0
   15.4812    7.7691    9.4990 N   0  3  0  0  0  0  0  0  0  0  0  0
   10.5912   12.5227   -0.0323 H   0  0  0  0  0  0  0  0  0  0  0  0
   10.9911   14.2498    0.1078 H   0  0  0  0  0  0  0  0  0  0  0  0
    9.2793   13.7612   -0.2689 H   0  0  0  0  0  0  0  0  0  0  0  0
   12.2269   14.8327    1.7822 H   0  0  0  0  0  0  0  0  0  0  0  0
   14.2067   14.2637    3.1648 H   0  0  0  0  0  0  0  0  0  0  0  0
   12.1620   10.7732    4.6526 H   0  0  0  0  0  0  0  0  0  0  0  0
   10.1831   11.3443    3.2698 H   0  0  0  0  0  0  0  0  0  0  0  0
   14.9096   12.9004    5.2948 H   0  0  0  0  0  0  0  0  0  0  0  0
   16.7351    9.9449    5.2137 H   0  0  0  0  0  0  0  0  0  0  0  0
   16.4335   11.4357    6.1694 H   0  0  0  0  0  0  0  0  0  0  0  0
   17.5429    9.9905    7.9726 H   0  0  0  0  0  0  0  0  0  0  0  0
   16.2689   10.4099    9.1676 H   0  0  0  0  0  0  0  0  0  0  0  0
   17.2810    7.6183    8.4112 H   0  0  0  0  0  0  0  0  0  0  0  0
   15.5924    6.7919    9.8050 H   0  0  0  0  0  0  0  0  0  0  0  0
   14.8382    7.8055    8.6951 H   0  0  0  0  0  0  0  0  0  0  0  0
   15.0939    8.3280   10.2727 H   0  0  0  0  0  0  0  0  0  0  0  0
  1  2  1  0  0  0  0
  1 20  1  0  0  0  0
  1 21  1  0  0  0  0
  1 22  1  0  0  0  0
  2  3  1  0  0  0  0
  3  8  2  0  0  0  0
  3  4  1  0  0  0  0
  4  5  2  0  0  0  0
  4 23  1  0  0  0  0
  5  6  1  0  0  0  0
  5 24  1  0  0  0  0
  6  7  2  0  0  0  0
  6  9  1  0  0  0  0
  7  8  1  0  0  0  0
  7 25  1  0  0  0  0
  8 26  1  0  0  0  0
  9 10  1  0  0  0  0
  9 27  1  0  0  0  0
 10 11  2  0  0  0  0
 10 12  1  0  0  0  0
 12 13  1  0  0  0  0
 12 28  1  0  0  0  0
 12 29  1  0  0  0  0
 13 14  1  0  0  0  0
 14 15  1  0  0  0  0
 14 30  1  0  0  0  0
 14 31  1  0  0  0  0
 15 16  1  0  0  0  0
 15 19  1  0  0  0  0
 15 32  1  0  0  0  0
 16 17  2  0  0  0  0
 16 18  1  0  0  0  0
 19 33  1  0  0  0  0
 19 34  1  0  0  0  0
 19 35  1  0  0  0  0
M  END
> <Name>
ZINC19518055

> <reference>
BDB4995

> <quality>
0.845

> <status>
decoy

> <atoms in reference ligand area>
10

> <score>
-17.954

$$$$
ZINC05472967
      BALL 1.4.0 (Jan  4 2012, 23:22:29)

 32 33  0999  0  0  0  0  0  0999 V2000
   12.5016    7.8281    8.1618 C   0  0  0  0  0  0  0  0  0  0  0  0
   11.1735    7.6459    7.4243 C   0  0  0  0  0  0  0  0  0  0  0  0
   10.9843    6.2229    7.0986 C   0  0  0  0  0  0  0  0  0  0  0  0
   10.8383    5.1247    6.8473 N   0  0  0  0  0  0  0  0  0  0  0  0
   10.0252    8.1219    8.3163 C   0  0  0  0  0  0  0  0  0  0  0  0
   10.3564    9.1362    9.4130 C   0  0  0  0  0  0  0  0  0  0  0  0
   10.0420    7.6852    9.7826 C   0  0  0  0  0  0  0  0  0  0  0  0
   11.1895    8.4318    6.1881 N   0  0  0  0  0  0  0  0  0  0  0  0
   10.0400    8.9305    5.6917 C   0  0  0  0  0  0  0  0  0  0  0  0
    8.9924    8.7287    6.2685 O   0  0  0  0  0  0  0  0  0  0  0  0
   10.0573    9.7441    4.4233 C   0  0  0  0  0  0  0  0  0  0  0  0
    8.4329   10.5129    4.1760 S   0  0  0  0  0  0  0  0  0  0  0  0
    8.2813   10.6348    2.4247 C   0  0  0  0  0  0  0  0  0  0  0  0
    7.4361   11.4685    1.7475 N   0  0  0  0  0  0  0  0  0  0  0  0
    7.6214   11.2619    0.4099 C   0  0  0  0  0  0  0  0  0  0  0  0
    8.5414   10.3402    0.2658 N   0  0  0  0  0  0  0  0  0  0  0  0
    8.9633    9.9460    1.5423 N   0  0  0  0  0  0  0  0  0  0  0  0
    6.9521   11.9147   -0.6173 N   0  0  0  0  0  0  0  0  0  0  0  0
   12.7323    6.9175    8.7341 H   0  0  0  0  0  0  0  0  0  0  0  0
   12.4260    8.6833    8.8495 H   0  0  0  0  0  0  0  0  0  0  0  0
   13.3040    8.0149    7.4329 H   0  0  0  0  0  0  0  0  0  0  0  0
    9.2921    8.0722    7.4978 H   0  0  0  0  0  0  0  0  0  0  0  0
    9.5032    9.7985    9.6212 H   0  0  0  0  0  0  0  0  0  0  0  0
   11.4363    9.3391    9.4615 H   0  0  0  0  0  0  0  0  0  0  0  0
   10.9565    7.1247   10.0264 H   0  0  0  0  0  0  0  0  0  0  0  0
    9.0231    7.5837   10.1847 H   0  0  0  0  0  0  0  0  0  0  0  0
   12.0792    8.6032    5.6983 H   0  0  0  0  0  0  0  0  0  0  0  0
   10.8252   10.5278    4.5007 H   0  0  0  0  0  0  0  0  0  0  0  0
   10.2860    9.0895    3.5695 H   0  0  0  0  0  0  0  0  0  0  0  0
    6.7754   12.1355    2.1713 H   0  0  0  0  0  0  0  0  0  0  0  0
    7.3233   11.7562   -1.5650 H   0  0  0  0  0  0  0  0  0  0  0  0
    6.1354   12.5217   -0.4578 H   0  0  0  0  0  0  0  0  0  0  0  0
  1  2  1  0  0  0  0
  1 19  1  0  0  0  0
  1 20  1  0  0  0  0
  1 21  1  0  0  0  0
  2  3  1  0  0  0  0
  2  5  1  0  0  0  0
  2  8  1  0  0  0  0
  3  4  3  0  0  0  0
  5  7  1  0  0  0  0
  5  6  1  0  0  0  0
  5 22  1  0  0  0  0
  6  7  1  0  0  0  0
  6 23  1  0  0  0  0
  6 24  1  0  0  0  0
  7 25  1  0  0  0  0
  7 26  1  0  0  0  0
  8  9  1  0  0  0  0
  8 27  1  0  0  0  0
  9 10  2  0  0  0  0
  9 11  1  0  0  0  0
 11 12  1  0  0  0  0
 11 28  1  0  0  0  0
 11 29  1  0  0  0  0
 12 13  1  0  0  0  0
 13 17  2  0  0  0  0
 13 14  1  0  0  0  0
 14 15  1  0  0  0  0
 14 30  1  0  0  0  0
 15 16  2  0  0  0  0
 15 18  1  0  0  0  0
 16 17  1  0  0  0  0
 18 31  1  0  0  0  0
 18 32  1  0  0  0  0
M  END
> <Name>
ZINC05472967

> <reference>
BDB5233

> <quality>
0.723

> <status>
decoy

> <atoms in reference ligand area>
10

> <score>
-17.7986

$$$$
ZINC31172347
      BALL 1.4.0 (Jan  4 2012, 23:22:29)

 52 54  0999  0  0  0  0  0  0999 V2000
   14.2093    5.8785    5.8382 C   0  0  0  0  0  0  0  0  0  0  0  0
   14.8659    7.1564    6.1444 N   0  0  0  0  0  0  0  0  0  0  0  0
   14.2799    8.2509    5.3590 C   0  0  0  0  0  0  0  0  0  0  0  0
   12.7549    8.1273    5.3707 C   0  0  0  0  0  0  0  0  0  0  0  0
   12.1652    9.0923    4.3746 C   0  0  0  0  0  0  0  0  0  0  0  0
   12.1486    8.8113    3.1948 O   0  0  0  0  0  0  0  0  0  0  0  0
   11.6561   10.2673    4.7948 N   0  0  0  0  0  0  0  0  0  0  0  0
   11.0124   11.1169    3.8857 C   0  0  0  0  0  0  0  0  0  0  0  0
   10.4690   10.5974    2.7162 C   0  0  0  0  0  0  0  0  0  0  0  0
    9.8284   11.4283    1.8193 C   0  0  0  0  0  0  0  0  0  0  0  0
    9.7363   12.7875    2.0789 C   0  0  0  0  0  0  0  0  0  0  0  0
   10.2861   13.3130    3.2500 C   0  0  0  0  0  0  0  0  0  0  0  0
   10.9236   12.4750    4.1515 C   0  0  0  0  0  0  0  0  0  0  0  0
   10.0390   14.6837    3.2312 N   0  0  0  0  0  0  0  0  0  0  0  0
    9.3698   14.9793    2.1011 C   0  0  0  0  0  0  0  0  0  0  0  0
    8.9996   16.0923    1.7766 O   0  0  0  0  0  0  0  0  0  0  0  0
    9.1717   13.8570    1.3844 N   0  0  0  0  0  0  0  0  0  0  0  0
   14.8040    7.4488    7.5828 C   0  0  0  0  0  0  0  0  0  0  0  0
   16.0550    8.1775    8.0015 C   0  0  0  0  0  0  0  0  0  0  0  0
   17.0989    7.9750    7.4180 O   0  0  0  0  0  0  0  0  0  0  0  0
   16.0137    9.0541    9.0243 N   0  0  0  0  0  0  0  0  0  0  0  0
   17.1930    9.6635    9.4726 C   0  0  0  0  0  0  0  0  0  0  0  0
   17.6626   10.8110    8.8479 C   0  0  0  0  0  0  0  0  0  0  0  0
   18.8225   11.4140    9.2933 C   0  0  0  0  0  0  0  0  0  0  0  0
   19.5241   10.8670   10.3576 C   0  0  0  0  0  0  0  0  0  0  0  0
   19.0580    9.7178   10.9792 C   0  0  0  0  0  0  0  0  0  0  0  0
   17.8956    9.1170   10.5382 C   0  0  0  0  0  0  0  0  0  0  0  0
   20.6691   11.4580   10.7921 O   0  0  0  0  0  0  0  0  0  0  0  0
   20.7697   12.8743   10.6310 C   0  0  0  0  0  0  0  0  0  0  0  0
   13.9308    5.3869    6.7820 H   0  0  0  0  0  0  0  0  0  0  0  0
   14.9173    5.2368    5.2933 H   0  0  0  0  0  0  0  0  0  0  0  0
   13.3116    6.0500    5.2260 H   0  0  0  0  0  0  0  0  0  0  0  0
   14.5724    9.2157    5.7991 H   0  0  0  0  0  0  0  0  0  0  0  0
   14.6436    8.1954    4.3224 H   0  0  0  0  0  0  0  0  0  0  0  0
   12.3747    8.3612    6.3760 H   0  0  0  0  0  0  0  0  0  0  0  0
   12.4681    7.1005    5.0998 H   0  0  0  0  0  0  0  0  0  0  0  0
   11.7403   10.5407    5.7843 H   0  0  0  0  0  0  0  0  0  0  0  0
   10.5499    9.5209    2.5049 H   0  0  0  0  0  0  0  0  0  0  0  0
    9.3911   11.0128    0.8994 H   0  0  0  0  0  0  0  0  0  0  0  0
   11.3576   12.8861    5.0748 H   0  0  0  0  0  0  0  0  0  0  0  0
   10.3203   15.3567    3.9585 H   0  0  0  0  0  0  0  0  0  0  0  0
    8.6860   13.7982    0.4780 H   0  0  0  0  0  0  0  0  0  0  0  0
   14.7229    6.5076    8.1463 H   0  0  0  0  0  0  0  0  0  0  0  0
   13.9264    8.0782    7.7918 H   0  0  0  0  0  0  0  0  0  0  0  0
   15.1152    9.2761    9.4764 H   0  0  0  0  0  0  0  0  0  0  0  0
   17.1110   11.2399    7.9982 H   0  0  0  0  0  0  0  0  0  0  0  0
   19.1899   12.3280    8.8041 H   0  0  0  0  0  0  0  0  0  0  0  0
   19.6145    9.2851   11.8236 H   0  0  0  0  0  0  0  0  0  0  0  0
   17.5263    8.2055   11.0309 H   0  0  0  0  0  0  0  0  0  0  0  0
   19.8227   13.2955   10.9997 H   0  0  0  0  0  0  0  0  0  0  0  0
   20.8223   13.0593    9.5479 H   0  0  0  0  0  0  0  0  0  0  0  0
   21.6355   13.3020   11.1577 H   0  0  0  0  0  0  0  0  0  0  0  0
  1  2  1  0  0  0  0
  1 30  1  0  0  0  0
  1 31  1  0  0  0  0
  1 32  1  0  0  0  0
  2  3  1  0  0  0  0
  2 18  1  0  0  0  0
  3  4  1  0  0  0  0
  3 33  1  0  0  0  0
  3 34  1  0  0  0  0
  4  5  1  0  0  0  0
  4 35  1  0  0  0  0
  4 36  1  0  0  0  0
  5  6  2  0  0  0  0
  5  7  1  0  0  0  0
  7  8  1  0  0  0  0
  7 37  1  0  0  0  0
  8 13  2  0  0  0  0
  8  9  1  0  0  0  0
  9 10  2  0  0  0  0
  9 38  1  0  0  0  0
 10 11  1  0  0  0  0
 10 39  1  0  0  0  0
 11 17  1  0  0  0  0
 11 12  2  0  0  0  0
 12 13  1  0  0  0  0
 12 14  1  0  0  0  0
 13 40  1  0  0  0  0
 14 15  1  0  0  0  0
 14 41  1  0  0  0  0
 15 16  2  0  0  0  0
 15 17  1  0  0  0  0
 17 42  1  0  0  0  0
 18 19  1  0  0  0  0
 18 43  1  0  0  0  0
 18 44  1  0  0  0  0
 19 20  2  0  0  0  0
 19 21  1  0  0  0  0
 21 22  1  0  0  0  0
 21 45  1  0  0  0  0
 22 27  2  0  0  0  0
 22 23  1  0  0  0  0
 23 24  2  0  0  0  0
 23 46  1  0  0  0  0
 24 25  1  0  0  0  0
 24 47  1  0  0  0  0
 25 26  2  0  0  0  0
 25 28  1  0  0  0  0
 26 27  1  0  0  0  0
 26 48  1  0  0  0  0
 27 49  1  0  0  0  0
 28 29  1  0  0  0  0
 29 50  1  0  0  0  0
 29 51  1  0  0  0  0
 29 52  1  0  0  0  0
M  END
> <Name>
ZINC31172347

> <reference>
BDB5007

> <quality>
0.689

> <status>
decoy

> <atoms in reference ligand area>
10

> <score>
-17.7515

$$$$
ZINC04642048
      BALL 1.4.0 (Jan  4 2012, 23:22:29)

 52 53  0999  0  0  0  0  0  0999 V2000
    4.9010    8.0617    1.6456 C   0  0  0  0  0  0  0  0  0  0  0  0
    5.7214    7.1797    0.7021 C   0  0  0  0  0  0  0  0  0  0  0  0
    5.4960    8.5762   -1.2630 C   0  0  0  0  0  0  0  0  0  0  0  0
    4.6701    7.4365   -1.8630 C   0  0  0  0  0  0  0  0  0  0  0  0
    7.1695    9.0977    0.4073 C   0  0  0  0  0  0  0  0  0  0  0  0
    8.1252    8.4830    1.4318 C   0  0  0  0  0  0  0  0  0  0  0  0
    9.7984    9.2330    3.0898 C   0  0  0  0  0  0  0  0  0  0  0  0
   10.0182    7.9712    3.4085 C   0  0  0  0  0  0  0  0  0  0  0  0
   10.5598   10.3302    3.7881 C   0  5  0  0  0  0  0  0  0  0  0  0
    9.5758   11.1334    4.6175 C   0  0  0  0  0  0  0  0  0  0  0  0
    8.9041   10.6081    5.4792 O   0  0  0  0  0  0  0  0  0  0  0  0
    9.4763   12.4550    4.3608 N   0  0  0  0  0  0  0  0  0  0  0  0
   10.2145   13.0509    3.4174 C   0  0  0  0  0  0  0  0  0  0  0  0
   10.0646   14.2456    3.2563 O   0  0  0  0  0  0  0  0  0  0  0  0
   11.1014   12.4260    2.6345 N   0  0  0  0  0  0  0  0  0  0  0  0
   11.3415   11.1020    2.7419 C   0  0  0  0  0  0  0  0  0  0  0  0
   12.1516   10.5501    2.0285 O   0  0  0  0  0  0  0  0  0  0  0  0
   11.8382   13.2030    1.6347 C   0  0  0  0  0  0  0  0  0  0  0  0
   10.9685   13.4153    0.4226 C   0  0  0  0  0  0  0  0  0  0  0  0
   10.1499   14.5265    0.3453 C   0  0  0  0  0  0  0  0  0  0  0  0
    9.3527   14.7218   -0.7671 C   0  0  0  0  0  0  0  0  0  0  0  0
    9.3698   13.8028   -1.7995 C   0  0  0  0  0  0  0  0  0  0  0  0
   10.1913   12.6935   -1.7240 C   0  0  0  0  0  0  0  0  0  0  0  0
   10.9895   12.4991   -0.6123 C   0  0  0  0  0  0  0  0  0  0  0  0
    6.4464    8.0093   -0.2833 N   0  0  0  0  0  0  0  0  0  0  0  0
    8.8538    9.6202    2.0936 N   0  3  0  0  0  0  0  0  0  0  0  0
    5.1851    9.1133    1.4923 H   0  0  0  0  0  0  0  0  0  0  0  0
    5.1191    7.7758    2.6852 H   0  0  0  0  0  0  0  0  0  0  0  0
    3.8278    7.9329    1.4418 H   0  0  0  0  0  0  0  0  0  0  0  0
    6.4459    6.5950    1.2879 H   0  0  0  0  0  0  0  0  0  0  0  0
    5.0497    6.4892    0.1711 H   0  0  0  0  0  0  0  0  0  0  0  0
    6.0525    9.0882   -2.0618 H   0  0  0  0  0  0  0  0  0  0  0  0
    4.8287    9.2898   -0.7576 H   0  0  0  0  0  0  0  0  0  0  0  0
    5.3372    6.6301   -2.2016 H   0  0  0  0  0  0  0  0  0  0  0  0
    4.0812    7.8098   -2.7138 H   0  0  0  0  0  0  0  0  0  0  0  0
    3.9870    7.0422   -1.0961 H   0  0  0  0  0  0  0  0  0  0  0  0
    7.7422    9.6827   -0.3275 H   0  0  0  0  0  0  0  0  0  0  0  0
    6.4483    9.7501    0.9215 H   0  0  0  0  0  0  0  0  0  0  0  0
    7.5530    7.9199    2.1838 H   0  0  0  0  0  0  0  0  0  0  0  0
    8.8457    7.8257    0.9229 H   0  0  0  0  0  0  0  0  0  0  0  0
   10.7571    7.7205    4.1838 H   0  0  0  0  0  0  0  0  0  0  0  0
    9.4625    7.1704    2.8988 H   0  0  0  0  0  0  0  0  0  0  0  0
    8.8122   13.0215    4.9075 H   0  0  0  0  0  0  0  0  0  0  0  0
   12.1170   14.1782    2.0607 H   0  0  0  0  0  0  0  0  0  0  0  0
   12.7473   12.6574    1.3418 H   0  0  0  0  0  0  0  0  0  0  0  0
   10.1328   15.2554    1.1690 H   0  0  0  0  0  0  0  0  0  0  0  0
    8.7047   15.6084   -0.8306 H   0  0  0  0  0  0  0  0  0  0  0  0
    8.7297   13.9541   -2.6812 H   0  0  0  0  0  0  0  0  0  0  0  0
   10.2099   11.9657   -2.5485 H   0  0  0  0  0  0  0  0  0  0  0  0
   11.6414   11.6152   -0.5510 H   0  0  0  0  0  0  0  0  0  0  0  0
    8.1625   10.2497    2.5257 H   0  0  0  0  0  0  0  0  0  0  0  0
    9.3459   10.1630    1.3696 H   0  0  0  0  0  0  0  0  0  0  0  0
  1  2  1  0  0  0  0
  1 27  1  0  0  0  0
  1 28  1  0  0  0  0
  1 29  1  0  0  0  0
  2 25  1  0  0  0  0
  2 30  1  0  0  0  0
  2 31  1  0  0  0  0
  3  4  1  0  0  0  0
  3 25  1  0  0  0  0
  3 32  1  0  0  0  0
  3 33  1  0  0  0  0
  4 34  1  0  0  0  0
  4 35  1  0  0  0  0
  4 36  1  0  0  0  0
  5  6  1  0  0  0  0
  5 25  1  0  0  0  0
  5 37  1  0  0  0  0
  5 38  1  0  0  0  0
  6 26  1  0  0  0  0
  6 39  1  0  0  0  0
  6 40  1  0  0  0  0
  7  8  2  0  0  0  0
  7  9  1  0  0  0  0
  7 26  1  0  0  0  0
  8 41  1  0  0  0  0
  8 42  1  0  0  0  0
  9 16  1  0  0  0  0
  9 10  1  0  0  0  0
 10 11  2  0  0  0  0
 10 12  1  0  0  0  0
 12 13  1  0  0  0  0
 12 43  1  0  0  0  0
 13 14  2  0  0  0  0
 13 15  1  0  0  0  0
 15 16  1  0  0  0  0
 15 18  1  0  0  0  0
 16 17  2  0  0  0  0
 18 19  1  0  0  0  0
 18 44  1  0  0  0  0
 18 45  1  0  0  0  0
 19 24  2  0  0  0  0
 19 20  1  0  0  0  0
 20 21  2  0  0  0  0
 20 46  1  0  0  0  0
 21 22  1  0  0  0  0
 21 47  1  0  0  0  0
 22 23  2  0  0  0  0
 22 48  1  0  0  0  0
 23 24  1  0  0  0  0
 23 49  1  0  0  0  0
 24 50  1  0  0  0  0
 26 51  1  0  0  0  0
 26 52  1  0  0  0  0
M  END
> <Name>
ZINC04642048

> <reference>
BDB4997

> <quality>
0.808

> <status>
decoy

> <atoms in reference ligand area>
18

> <score>
-17.6978

$$$$
ZINC17376865
      BALL 1.4.0 (Jan  4 2012, 23:22:29)

 38 40  0999  0  0  0  0  0  0999 V2000
    5.6356   11.0564    1.2640 C   0  0  0  0  0  0  0  0  0  0  0  0
    7.1005   10.9649    1.6061 C   0  0  0  0  0  0  0  0  0  0  0  0
    7.4637   11.0930    2.7561 O   0  0  0  0  0  0  0  0  0  0  0  0
    8.0067   10.7406    0.6341 N   0  0  0  0  0  0  0  0  0  0  0  0
    9.3596   10.6561    0.9501 C   0  0  0  0  0  0  0  0  0  0  0  0
    9.8246    9.6841    1.8333 C   0  0  0  0  0  0  0  0  0  0  0  0
   11.1913    9.6395    2.1185 C   0  0  0  0  0  0  0  0  0  0  0  0
   11.9985   10.5215    1.5404 N   0  0  0  0  0  0  0  0  0  0  0  0
   11.5199   11.4260    0.7100 C   0  0  0  0  0  0  0  0  0  0  0  0
   10.2369   11.5017    0.4147 N   0  0  0  0  0  0  0  0  0  0  0  0
   11.3806    8.5981    3.0087 N   0  0  0  0  0  0  0  0  0  0  0  0
   10.1874    8.0268    3.2612 C   0  0  0  0  0  0  0  0  0  0  0  0
   10.0059    7.0809    4.0049 O   0  0  0  0  0  0  0  0  0  0  0  0
    9.2261    8.6592    2.5597 N   0  0  0  0  0  0  0  0  0  0  0  0
   12.6644    8.1851    3.5808 C   0  0  0  0  0  0  0  0  0  0  0  0
   13.6948    7.9269    2.4590 C   0  0  0  0  0  0  0  0  0  0  0  0
   15.0267    8.4486    3.0478 C   0  0  0  0  0  0  0  0  0  0  0  0
   14.6422    8.9561    4.4553 C   0  0  0  0  0  0  0  0  0  0  0  0
   13.2320    9.2552    4.3673 O   0  0  0  0  0  0  0  0  0  0  0  0
   15.4336   10.2183    4.8037 C   0  0  0  0  0  0  0  0  0  0  0  0
   14.5427   11.2149    5.3088 O   0  0  0  0  0  0  0  0  0  0  0  0
   15.9824    7.3905    3.1409 O   0  0  0  0  0  0  0  0  0  0  0  0
   13.3474    8.6589    1.2820 O   0  0  0  0  0  0  0  0  0  0  0  0
    5.5426   11.9310    0.6033 H   0  0  0  0  0  0  0  0  0  0  0  0
    5.1280   11.2972    2.2097 H   0  0  0  0  0  0  0  0  0  0  0  0
    5.2406   10.1403    0.8006 H   0  0  0  0  0  0  0  0  0  0  0  0
    7.6981   10.6318   -0.3425 H   0  0  0  0  0  0  0  0  0  0  0  0
   12.2145   12.1426    0.2474 H   0  0  0  0  0  0  0  0  0  0  0  0
    8.2231    8.4248    2.5609 H   0  0  0  0  0  0  0  0  0  0  0  0
   12.4713    7.2847    4.1826 H   0  0  0  0  0  0  0  0  0  0  0  0
   13.7458    6.8684    2.1643 H   0  0  0  0  0  0  0  0  0  0  0  0
   15.4870    9.2307    2.4262 H   0  0  0  0  0  0  0  0  0  0  0  0
   14.8634    8.2158    5.2383 H   0  0  0  0  0  0  0  0  0  0  0  0
   16.1872    9.9793    5.5685 H   0  0  0  0  0  0  0  0  0  0  0  0
   15.9348   10.5989    3.9014 H   0  0  0  0  0  0  0  0  0  0  0  0
   13.9761   10.8226    6.0196 H   0  0  0  0  0  0  0  0  0  0  0  0
   16.6941    7.5382    2.4687 H   0  0  0  0  0  0  0  0  0  0  0  0
   14.1401    9.1628    0.9691 H   0  0  0  0  0  0  0  0  0  0  0  0
  1  2  1  0  0  0  0
  1 24  1  0  0  0  0
  1 25  1  0  0  0  0
  1 26  1  0  0  0  0
  2  3  2  0  0  0  0
  2  4  1  0  0  0  0
  4  5  1  0  0  0  0
  4 27  1  0  0  0  0
  5 10  2  0  0  0  0
  5  6  1  0  0  0  0
  6 14  1  0  0  0  0
  6  7  2  0  0  0  0
  7  8  1  0  0  0  0
  7 11  1  0  0  0  0
  8  9  2  0  0  0  0
  9 10  1  0  0  0  0
  9 28  1  0  0  0  0
 11 12  1  0  0  0  0
 11 15  1  0  0  0  0
 12 13  2  0  0  0  0
 12 14  1  0  0  0  0
 14 29  1  0  0  0  0
 15 19  1  0  0  0  0
 15 16  1  0  0  0  0
 15 30  1  0  0  0  0
 16 17  1  0  0  0  0
 16 23  1  0  0  0  0
 16 31  1  0  0  0  0
 17 18  1  0  0  0  0
 17 22  1  0  0  0  0
 17 32  1  0  0  0  0
 18 19  1  0  0  0  0
 18 20  1  0  0  0  0
 18 33  1  0  0  0  0
 20 21  1  0  0  0  0
 20 34  1  0  0  0  0
 20 35  1  0  0  0  0
 21 36  1  0  0  0  0
 22 37  1  0  0  0  0
 23 38  1  0  0  0  0
M  END
> <Name>
ZINC17376865

> <reference>
BDB4977

> <quality>
0.652

> <status>
decoy

> <atoms in reference ligand area>
12

> <score>
-17.5136

$$$$
ZINC31659431
      BALL 1.4.0 (Jan  4 2012, 23:22:29)

 39 39  0999  0  0  0  0  0  0999 V2000
    5.3763   10.5050    0.7458 C   0  0  0  0  0  0  0  0  0  0  0  0
    6.7976   11.0004    1.0208 C   0  0  0  0  0  0  0  0  0  0  0  0
    7.6170    9.8736    1.6530 C   0  0  0  0  0  0  0  0  0  0  0  0
    9.1082   10.1660    1.4754 C   0  0  0  0  0  0  0  0  0  0  0  0
    9.8202   10.0213    2.8219 C   0  0  0  0  0  0  0  0  0  0  0  0
    9.2605   11.0679    3.7667 C   0  0  0  0  0  0  0  0  0  0  0  0
    9.3170   12.2494    3.5008 O   0  5  0  0  0  0  0  0  0  0  0  0
    8.6958   10.6412    4.9119 N   0  0  0  0  0  0  0  0  0  0  0  0
    8.6260    9.3421    5.2243 C   0  0  0  0  0  0  0  0  0  0  0  0
    8.1017    9.0440    6.2788 O   0  0  0  0  0  0  0  0  0  0  0  0
    9.0920    8.3474    4.4604 N   0  0  0  0  0  0  0  0  0  0  0  0
    9.6898    8.5786    3.2722 C   0  0  0  0  0  0  0  0  0  0  0  0
   10.1071    7.6670    2.5906 O   0  0  0  0  0  0  0  0  0  0  0  0
   11.3051   10.3203    2.6061 C   0  0  0  0  0  0  0  0  0  0  0  0
   11.9536   10.6762    3.9454 C   0  0  0  0  0  0  0  0  0  0  0  0
   13.3088   11.1926    3.7113 N   0  3  0  0  0  0  0  0  0  0  0  0
   13.3299   12.6603    3.7679 C   0  0  0  0  0  0  0  0  0  0  0  0
   14.4529   13.1186    4.7007 C   0  0  0  0  0  0  0  0  0  0  0  0
    4.7864   11.3144    0.2910 H   0  0  0  0  0  0  0  0  0  0  0  0
    4.9057   10.1953    1.6906 H   0  0  0  0  0  0  0  0  0  0  0  0
    5.4129    9.6479    0.0573 H   0  0  0  0  0  0  0  0  0  0  0  0
    7.2678   11.3091    0.0755 H   0  0  0  0  0  0  0  0  0  0  0  0
    6.7615   11.8575    1.7095 H   0  0  0  0  0  0  0  0  0  0  0  0
    7.3822    9.8066    2.7256 H   0  0  0  0  0  0  0  0  0  0  0  0
    7.3702    8.9200    1.1633 H   0  0  0  0  0  0  0  0  0  0  0  0
    9.2398   11.1916    1.1002 H   0  0  0  0  0  0  0  0  0  0  0  0
    9.5384    9.4542    0.7554 H   0  0  0  0  0  0  0  0  0  0  0  0
    8.9916    7.3763    4.7886 H   0  0  0  0  0  0  0  0  0  0  0  0
   11.8003    9.4334    2.1839 H   0  0  0  0  0  0  0  0  0  0  0  0
   11.4128   11.1661    1.9111 H   0  0  0  0  0  0  0  0  0  0  0  0
   11.3513   11.4448    4.4517 H   0  0  0  0  0  0  0  0  0  0  0  0
   12.0085    9.7778    4.5778 H   0  0  0  0  0  0  0  0  0  0  0  0
   13.9444   10.8164    4.4292 H   0  0  0  0  0  0  0  0  0  0  0  0
   13.6354   10.8844    2.7843 H   0  0  0  0  0  0  0  0  0  0  0  0
   12.3654   13.0276    4.1484 H   0  0  0  0  0  0  0  0  0  0  0  0
   13.5040   13.0639    2.7595 H   0  0  0  0  0  0  0  0  0  0  0  0
   14.0271   13.7043    5.5288 H   0  0  0  0  0  0  0  0  0  0  0  0
   15.1654   13.7414    4.1401 H   0  0  0  0  0  0  0  0  0  0  0  0
   14.9756   12.2395    5.1057 H   0  0  0  0  0  0  0  0  0  0  0  0
  1  2  1  0  0  0  0
  1 19  1  0  0  0  0
  1 20  1  0  0  0  0
  1 21  1  0  0  0  0
  2  3  1  0  0  0  0
  2 22  1  0  0  0  0
  2 23  1  0  0  0  0
  3  4  1  0  0  0  0
  3 24  1  0  0  0  0
  3 25  1  0  0  0  0
  4  5  1  0  0  0  0
  4 26  1  0  0  0  0
  4 27  1  0  0  0  0
  5 12  1  0  0  0  0
  5  6  1  0  0  0  0
  5 14  1  0  0  0  0
  6  7  1  0  0  0  0
  6  8  2  0  0  0  0
  8  9  1  0  0  0  0
  9 10  2  0  0  0  0
  9 11  1  0  0  0  0
 11 12  1  0  0  0  0
 11 28  1  0  0  0  0
 12 13  2  0  0  0  0
 14 15  1  0  0  0  0
 14 29  1  0  0  0  0
 14 30  1  0  0  0  0
 15 16  1  0  0  0  0
 15 31  1  0  0  0  0
 15 32  1  0  0  0  0
 16 17  1  0  0  0  0
 16 33  1  0  0  0  0
 16 34  1  0  0  0  0
 17 18  1  0  0  0  0
 17 35  1  0  0  0  0
 17 36  1  0  0  0  0
 18 37  1  0  0  0  0
 18 38  1  0  0  0  0
 18 39  1  0  0  0  0
M  END
> <Name>
ZINC31659431

> <reference>
BDB5232

> <quality>
0.769

> <status>
decoy

> <atoms in reference ligand area>
12

> <score>
-17.4243

$$$$
ZINC31126591
      BALL 1.4.0 (Jan  4 2012, 23:22:29)

 52 53  0999  0  0  0  0  0  0999 V2000
   19.3062    8.8624    1.7148 C   0  0  0  0  0  0  0  0  0  0  0  0
   18.8222    7.4189    1.5634 C   0  0  0  0  0  0  0  0  0  0  0  0
   17.3883    7.4135    1.2634 N   0  0  0  0  0  0  0  0  0  0  0  0
   16.4835    7.7845    2.2431 C   0  0  0  0  0  0  0  0  0  0  0  0
   15.1138    7.7706    1.9293 C   0  0  0  0  0  0  0  0  0  0  0  0
   14.1774    8.1434    2.9067 C   0  0  0  0  0  0  0  0  0  0  0  0
   14.6640    8.5149    4.1618 C   0  0  0  0  0  0  0  0  0  0  0  0
   16.0306    8.5012    4.3891 C   0  0  0  0  0  0  0  0  0  0  0  0
   16.8847    8.1462    3.4504 N   0  0  0  0  0  0  0  0  0  0  0  0
   16.5537    8.9025    5.7442 C   0  0  0  0  0  0  0  0  0  0  0  0
   17.1642   10.3030    5.6610 C   0  0  0  0  0  0  0  0  0  0  0  0
   15.4043    8.9062    6.7539 C   0  0  0  0  0  0  0  0  0  0  0  0
   12.7247    8.1430    2.6168 C   0  0  0  0  0  0  0  0  0  0  0  0
   12.0402    7.1957    2.9461 O   0  0  0  0  0  0  0  0  0  0  0  0
   12.1632    9.1932    1.9879 O   0  0  0  0  0  0  0  0  0  0  0  0
   12.0685   10.4349    2.7346 C   0  0  0  0  0  0  0  0  0  0  0  0
   11.2060   11.4117    1.9778 C   0  0  0  0  0  0  0  0  0  0  0  0
   10.2981   11.9830    2.5428 O   0  0  0  0  0  0  0  0  0  0  0  0
   11.4436   11.6502    0.6727 N   0  0  0  0  0  0  0  0  0  0  0  0
   10.6721   12.5239   -0.0040 C   0  0  0  0  0  0  0  0  0  0  0  0
    9.8843   13.2295    0.5947 O   0  0  0  0  0  0  0  0  0  0  0  0
   10.7742   12.6149   -1.3448 N   0  0  0  0  0  0  0  0  0  0  0  0
    9.5695   12.7819   -2.1615 C   0  0  0  0  0  0  0  0  0  0  0  0
    9.9156   13.5719   -3.4253 C   0  0  0  0  0  0  0  0  0  0  0  0
   11.2770   13.8940   -3.4158 F   0  0  0  0  0  0  0  0  0  0  0  0
    9.6278   12.7962   -4.5535 F   0  0  0  0  0  0  0  0  0  0  0  0
    9.1584   14.7476   -3.4623 F   0  0  0  0  0  0  0  0  0  0  0  0
   14.7056    7.3627    0.5741 C   0  0  0  0  0  0  0  0  0  0  0  0
   13.5323    7.3357    0.2566 O   0  0  0  0  0  0  0  0  0  0  0  0
   15.6715    7.0198   -0.3069 N   0  0  0  0  0  0  0  0  0  0  0  0
   16.9677    7.0492    0.0408 C   0  0  0  0  0  0  0  0  0  0  0  0
   17.7983    6.7320   -0.7883 O   0  0  0  0  0  0  0  0  0  0  0  0
   19.7979    9.1847    0.7851 H   0  0  0  0  0  0  0  0  0  0  0  0
   20.0217    8.9248    2.5480 H   0  0  0  0  0  0  0  0  0  0  0  0
   18.4473    9.5182    1.9206 H   0  0  0  0  0  0  0  0  0  0  0  0
   19.0022    6.8705    2.4999 H   0  0  0  0  0  0  0  0  0  0  0  0
   19.3699    6.9327    0.7427 H   0  0  0  0  0  0  0  0  0  0  0  0
   13.9702    8.8151    4.9609 H   0  0  0  0  0  0  0  0  0  0  0  0
   17.3231    8.1857    6.0672 H   0  0  0  0  0  0  0  0  0  0  0  0
   16.5384   10.9393    5.0179 H   0  0  0  0  0  0  0  0  0  0  0  0
   18.1772   10.2380    5.2371 H   0  0  0  0  0  0  0  0  0  0  0  0
   17.2170   10.7411    6.6687 H   0  0  0  0  0  0  0  0  0  0  0  0
   14.7476    8.0439    6.5667 H   0  0  0  0  0  0  0  0  0  0  0  0
   14.8261    9.8362    6.6495 H   0  0  0  0  0  0  0  0  0  0  0  0
   15.8111    8.8412    7.7739 H   0  0  0  0  0  0  0  0  0  0  0  0
   13.0736   10.8614    2.8681 H   0  0  0  0  0  0  0  0  0  0  0  0
   11.6203   10.2374    3.7195 H   0  0  0  0  0  0  0  0  0  0  0  0
   12.2149   11.1648    0.1926 H   0  0  0  0  0  0  0  0  0  0  0  0
   11.6993   12.5671   -1.7953 H   0  0  0  0  0  0  0  0  0  0  0  0
    8.8076   13.3280   -1.5859 H   0  0  0  0  0  0  0  0  0  0  0  0
    9.1776   11.7935   -2.4435 H   0  0  0  0  0  0  0  0  0  0  0  0
   15.4088    6.7315   -1.2601 H   0  0  0  0  0  0  0  0  0  0  0  0
  1  2  1  0  0  0  0
  1 33  1  0  0  0  0
  1 34  1  0  0  0  0
  1 35  1  0  0  0  0
  2  3  1  0  0  0  0
  2 36  1  0  0  0  0
  2 37  1  0  0  0  0
  3 31  1  0  0  0  0
  3  4  1  0  0  0  0
  4  9  2  0  0  0  0
  4  5  1  0  0  0  0
  5  6  2  0  0  0  0
  5 28  1  0  0  0  0
  6  7  1  0  0  0  0
  6 13  1  0  0  0  0
  7  8  2  0  0  0  0
  7 38  1  0  0  0  0
  8  9  1  0  0  0  0
  8 10  1  0  0  0  0
 10 11  1  0  0  0  0
 10 12  1  0  0  0  0
 10 39  1  0  0  0  0
 11 40  1  0  0  0  0
 11 41  1  0  0  0  0
 11 42  1  0  0  0  0
 12 43  1  0  0  0  0
 12 44  1  0  0  0  0
 12 45  1  0  0  0  0
 13 14  2  0  0  0  0
 13 15  1  0  0  0  0
 15 16  1  0  0  0  0
 16 17  1  0  0  0  0
 16 46  1  0  0  0  0
 16 47  1  0  0  0  0
 17 18  2  0  0  0  0
 17 19  1  0  0  0  0
 19 20  1  0  0  0  0
 19 48  1  0  0  0  0
 20 21  2  0  0  0  0
 20 22  1  0  0  0  0
 22 23  1  0  0  0  0
 22 49  1  0  0  0  0
 23 24  1  0  0  0  0
 23 50  1  0  0  0  0
 23 51  1  0  0  0  0
 24 25  1  0  0  0  0
 24 26  1  0  0  0  0
 24 27  1  0  0  0  0
 28 29  2  0  0  0  0
 28 30  1  0  0  0  0
 30 31  1  0  0  0  0
 30 52  1  0  0  0  0
 31 32  2  0  0  0  0
M  END
> <Name>
ZINC31126591

> <reference>
BDB4968

> <quality>
0.763

> <status>
decoy

> <atoms in reference ligand area>
16

> <score>
-17.3429

$$$$
ZINC16697325
      BALL 1.4.0 (Jan  4 2012, 23:22:29)

 43 43  0999  0  0  0  0  0  0999 V2000
   14.4970    9.8568    5.0699 C   0  0  0  0  0  0  0  0  0  0  0  0
   14.0782    9.7057    3.6061 C   0  0  0  0  0  0  0  0  0  0  0  0
   15.2268    9.0844    2.8087 C   0  0  0  0  0  0  0  0  0  0  0  0
   13.7412   11.0814    3.0274 C   0  0  0  0  0  0  0  0  0  0  0  0
   12.9109    8.8464    3.5229 O   0  0  0  0  0  0  0  0  0  0  0  0
   12.1686    8.9303    2.4028 C   0  0  0  0  0  0  0  0  0  0  0  0
   12.4195    8.2153    1.4528 O   0  0  0  0  0  0  0  0  0  0  0  0
   11.1473    9.8071    2.3352 N   0  0  0  0  0  0  0  0  0  0  0  0
    9.8502    9.4943    2.9500 C   0  0  0  0  0  0  0  0  0  0  0  0
    8.7520    9.6575    1.8945 C   0  0  0  0  0  0  0  0  0  0  0  0
    8.8380   11.0597    1.2874 C   0  0  0  0  0  0  0  0  0  0  0  0
   10.1954   11.2393    0.6039 C   0  0  0  0  0  0  0  0  0  0  0  0
   11.3099   11.0939    1.6449 C   0  0  0  0  0  0  0  0  0  0  0  0
   10.2677   12.6294   -0.0309 C   0  0  0  0  0  0  0  0  0  0  0  0
   11.6676   12.8555   -0.6055 C   0  0  0  0  0  0  0  0  0  0  0  0
   11.9534   14.3340   -0.6649 C   0  0  0  0  0  0  0  0  0  0  0  0
   12.9290   14.7376   -1.2523 O   0  0  0  0  0  0  0  0  0  0  0  0
   11.1241   15.2025   -0.0650 O   0  5  0  0  0  0  0  0  0  0  0  0
   11.7330   12.2642   -1.9537 N   0  3  0  0  0  0  0  0  0  0  0  0
   15.5737    9.6538    5.1672 H   0  0  0  0  0  0  0  0  0  0  0  0
   13.9326    9.1442    5.6893 H   0  0  0  0  0  0  0  0  0  0  0  0
   14.2863   10.8821    5.4083 H   0  0  0  0  0  0  0  0  0  0  0  0
   15.8163    8.4268    3.4645 H   0  0  0  0  0  0  0  0  0  0  0  0
   15.8733    9.8817    2.4131 H   0  0  0  0  0  0  0  0  0  0  0  0
   14.8183    8.4968    1.9734 H   0  0  0  0  0  0  0  0  0  0  0  0
   13.0459   11.6034    3.7012 H   0  0  0  0  0  0  0  0  0  0  0  0
   13.2721   10.9599    2.0398 H   0  0  0  0  0  0  0  0  0  0  0  0
   14.6631   11.6724    2.9241 H   0  0  0  0  0  0  0  0  0  0  0  0
    9.8565    8.4572    3.3167 H   0  0  0  0  0  0  0  0  0  0  0  0
    9.6616   10.1836    3.7863 H   0  0  0  0  0  0  0  0  0  0  0  0
    7.7667    9.5216    2.3643 H   0  0  0  0  0  0  0  0  0  0  0  0
    8.8890    8.9063    1.1027 H   0  0  0  0  0  0  0  0  0  0  0  0
    8.0353   11.1883    0.5464 H   0  0  0  0  0  0  0  0  0  0  0  0
    8.7264   11.8120    2.0822 H   0  0  0  0  0  0  0  0  0  0  0  0
   10.3187   10.4745   -0.1771 H   0  0  0  0  0  0  0  0  0  0  0  0
   12.2881   11.1229    1.1424 H   0  0  0  0  0  0  0  0  0  0  0  0
   11.2414   11.9146    2.3740 H   0  0  0  0  0  0  0  0  0  0  0  0
    9.5243   12.7031   -0.8382 H   0  0  0  0  0  0  0  0  0  0  0  0
   10.0576   13.3935    0.7320 H   0  0  0  0  0  0  0  0  0  0  0  0
   12.4221   12.3767    0.0358 H   0  0  0  0  0  0  0  0  0  0  0  0
   11.9600   12.9945   -2.6436 H   0  0  0  0  0  0  0  0  0  0  0  0
   10.8266   11.8360   -2.1904 H   0  0  0  0  0  0  0  0  0  0  0  0
   12.4655   11.5404   -1.9722 H   0  0  0  0  0  0  0  0  0  0  0  0
  1  2  1  0  0  0  0
  1 20  1  0  0  0  0
  1 21  1  0  0  0  0
  1 22  1  0  0  0  0
  2  3  1  0  0  0  0
  2  4  1  0  0  0  0
  2  5  1  0  0  0  0
  3 23  1  0  0  0  0
  3 24  1  0  0  0  0
  3 25  1  0  0  0  0
  4 26  1  0  0  0  0
  4 27  1  0  0  0  0
  4 28  1  0  0  0  0
  5  6  1  0  0  0  0
  6  7  2  0  0  0  0
  6  8  1  0  0  0  0
  8 13  1  0  0  0  0
  8  9  1  0  0  0  0
  9 10  1  0  0  0  0
  9 29  1  0  0  0  0
  9 30  1  0  0  0  0
 10 11  1  0  0  0  0
 10 31  1  0  0  0  0
 10 32  1  0  0  0  0
 11 12  1  0  0  0  0
 11 33  1  0  0  0  0
 11 34  1  0  0  0  0
 12 13  1  0  0  0  0
 12 14  1  0  0  0  0
 12 35  1  0  0  0  0
 13 36  1  0  0  0  0
 13 37  1  0  0  0  0
 14 15  1  0  0  0  0
 14 38  1  0  0  0  0
 14 39  1  0  0  0  0
 15 16  1  0  0  0  0
 15 19  1  0  0  0  0
 15 40  1  0  0  0  0
 16 17  2  0  0  0  0
 16 18  1  0  0  0  0
 19 41  1  0  0  0  0
 19 42  1  0  0  0  0
 19 43  1  0  0  0  0
M  END
> <Name>
ZINC16697325

> <reference>
BDB5242

> <quality>
0.818

> <status>
decoy

> <atoms in reference ligand area>
15

> <score>
-16.9444

$$$$
ZINC09047672
      BALL 1.4.0 (Jan  4 2012, 23:22:29)

 37 38  0999  0  0  0  0  0  0999 V2000
   17.6603   10.9787    7.1188 C   0  0  0  0  0  0  0  0  0  0  0  0
   15.3890   10.5165    7.8188 C   0  0  0  0  0  0  0  0  0  0  0  0
   16.4560    9.1084    6.1630 C   0  0  0  0  0  0  0  0  0  0  0  0
   15.8886   10.0109    5.0655 C   0  0  0  0  0  0  0  0  0  0  0  0
   14.4973    9.6386    4.7977 N   0  0  0  0  0  0  0  0  0  0  0  0
   13.6714   10.5119    4.1881 C   0  0  0  0  0  0  0  0  0  0  0  0
   14.0801   11.6060    3.8611 O   0  0  0  0  0  0  0  0  0  0  0  0
   12.2401   10.1289    3.9126 C   0  0  0  0  0  0  0  0  0  0  0  0
   11.5564   11.2409    3.2476 N   0  0  0  0  0  0  0  0  0  0  0  0
   10.2931   11.0564    2.7139 C   0  0  0  0  0  0  0  0  0  0  0  0
    9.3759   12.1199    2.6533 C   0  0  0  0  0  0  0  0  0  0  0  0
    8.1085   11.8726    2.1003 C   0  0  0  0  0  0  0  0  0  0  0  0
    7.4284   13.0622    2.1657 N   0  0  0  0  0  0  0  0  0  0  0  0
    8.2618   13.9785    2.7357 C   0  0  0  0  0  0  0  0  0  0  0  0
    9.4038   13.4236    3.0209 N   0  0  0  0  0  0  0  0  0  0  0  0
    7.8237   10.6520    1.6570 N   0  0  0  0  0  0  0  0  0  0  0  0
    8.7151    9.6850    1.7336 C   0  0  0  0  0  0  0  0  0  0  0  0
    9.9210    9.8713    2.2420 N   0  0  0  0  0  0  0  0  0  0  0  0
    8.2923    8.1093    1.1402 Cl  0  0  0  0  0  0  0  0  0  0  0  0
   16.6674    9.9162    7.3826 N   0  3  0  0  0  0  0  0  0  0  0  0
   18.6074   10.5199    6.7986 H   0  0  0  0  0  0  0  0  0  0  0  0
   17.8286   11.5560    8.0399 H   0  0  0  0  0  0  0  0  0  0  0  0
   17.2884   11.6467    6.3280 H   0  0  0  0  0  0  0  0  0  0  0  0
   15.1026   11.3126    7.1158 H   0  0  0  0  0  0  0  0  0  0  0  0
   15.5131   10.9456    8.8240 H   0  0  0  0  0  0  0  0  0  0  0  0
   14.6051    9.7452    7.8415 H   0  0  0  0  0  0  0  0  0  0  0  0
   17.4153    8.6835    5.8326 H   0  0  0  0  0  0  0  0  0  0  0  0
   15.7442    8.2976    6.3777 H   0  0  0  0  0  0  0  0  0  0  0  0
   15.9301   11.0596    5.3950 H   0  0  0  0  0  0  0  0  0  0  0  0
   16.4827    9.8913    4.1474 H   0  0  0  0  0  0  0  0  0  0  0  0
   14.1502    8.7095    5.0753 H   0  0  0  0  0  0  0  0  0  0  0  0
   12.2163    9.2426    3.2614 H   0  0  0  0  0  0  0  0  0  0  0  0
   11.7313    9.9010    4.8608 H   0  0  0  0  0  0  0  0  0  0  0  0
   12.0159   12.1600    3.1774 H   0  0  0  0  0  0  0  0  0  0  0  0
    6.4650   13.2320    1.8434 H   0  0  0  0  0  0  0  0  0  0  0  0
    8.0066   15.0314    2.9263 H   0  0  0  0  0  0  0  0  0  0  0  0
   17.0227    9.3048    8.1315 H   0  0  0  0  0  0  0  0  0  0  0  0
  1 20  1  0  0  0  0
  1 21  1  0  0  0  0
  1 22  1  0  0  0  0
  1 23  1  0  0  0  0
  2 20  1  0  0  0  0
  2 24  1  0  0  0  0
  2 25  1  0  0  0  0
  2 26  1  0  0  0  0
  3  4  1  0  0  0  0
  3 20  1  0  0  0  0
  3 27  1  0  0  0  0
  3 28  1  0  0  0  0
  4  5  1  0  0  0  0
  4 29  1  0  0  0  0
  4 30  1  0  0  0  0
  5  6  1  0  0  0  0
  5 31  1  0  0  0  0
  6  7  2  0  0  0  0
  6  8  1  0  0  0  0
  8  9  1  0  0  0  0
  8 32  1  0  0  0  0
  8 33  1  0  0  0  0
  9 10  1  0  0  0  0
  9 34  1  0  0  0  0
 10 18  1  0  0  0  0
 10 11  2  0  0  0  0
 11 15  1  0  0  0  0
 11 12  1  0  0  0  0
 12 13  1  0  0  0  0
 12 16  2  0  0  0  0
 13 14  1  0  0  0  0
 13 35  1  0  0  0  0
 14 15  2  0  0  0  0
 14 36  1  0  0  0  0
 16 17  1  0  0  0  0
 17 18  2  0  0  0  0
 17 19  1  0  0  0  0
 20 37  1  0  0  0  0
M  END
> <Name>
ZINC09047672

> <reference>
BDB5234

> <quality>
0.756

> <status>
decoy

> <atoms in reference ligand area>
10

> <score>
-16.7229

$$$$
ZINC19844186
      BALL 1.4.0 (Jan  4 2012, 23:22:29)

 42 43  0999  0  0  0  0  0  0999 V2000
   16.7011   10.9885    8.4669 C   0  0  0  0  0  0  0  0  0  0  0  0
   16.0571   11.4916    7.2946 O   0  0  0  0  0  0  0  0  0  0  0  0
   16.1611   10.7440    6.1645 C   0  0  0  0  0  0  0  0  0  0  0  0
   17.4106   10.4719    5.6245 C   0  0  0  0  0  0  0  0  0  0  0  0
   17.5185    9.7070    4.4787 C   0  0  0  0  0  0  0  0  0  0  0  0
   16.3830    9.2202    3.8606 C   0  0  0  0  0  0  0  0  0  0  0  0
   15.1294    9.4940    4.3933 C   0  0  0  0  0  0  0  0  0  0  0  0
   15.0197   10.2575    5.5476 C   0  0  0  0  0  0  0  0  0  0  0  0
   13.9813    9.0022    3.7684 N   0  0  0  0  0  0  0  0  0  0  0  0
   13.5330    9.9081    2.7024 C   0  0  0  0  0  0  0  0  0  0  0  0
   12.3871    9.2505    1.9261 C   0  0  0  0  0  0  0  0  0  0  0  0
   11.3436    8.8511    2.8825 N   0  0  0  0  0  0  0  0  0  0  0  0
   11.7409    8.0554    4.0539 C   0  0  0  0  0  0  0  0  0  0  0  0
   12.9123    8.7601    4.7464 C   0  0  0  0  0  0  0  0  0  0  0  0
    9.7632    9.2864    2.6470 S   0  0  0  0  0  0  0  0  0  0  0  0
    9.5088    9.0017    1.2783 O   0  0  0  0  0  0  0  0  0  0  0  0
    9.0452    8.6138    3.6724 O   0  0  0  0  0  0  0  0  0  0  0  0
    9.7259   11.0778    2.9301 C   0  0  0  0  0  0  0  0  0  0  0  0
    8.3532   11.4798    3.4732 C   0  0  0  0  0  0  0  0  0  0  0  0
    7.5371   12.0300    2.3827 N   0  3  0  0  0  0  0  0  0  0  0  0
   16.2593   11.5273    9.3180 H   0  0  0  0  0  0  0  0  0  0  0  0
   17.7575   11.2857    8.3911 H   0  0  0  0  0  0  0  0  0  0  0  0
   16.5936    9.8993    8.5771 H   0  0  0  0  0  0  0  0  0  0  0  0
   18.3161   10.8658    6.1091 H   0  0  0  0  0  0  0  0  0  0  0  0
   18.5104    9.4853    4.0581 H   0  0  0  0  0  0  0  0  0  0  0  0
   16.4714    8.6154    2.9461 H   0  0  0  0  0  0  0  0  0  0  0  0
   14.0285   10.4759    5.9716 H   0  0  0  0  0  0  0  0  0  0  0  0
   14.3691   10.1129    2.0176 H   0  0  0  0  0  0  0  0  0  0  0  0
   13.1813   10.8513    3.1459 H   0  0  0  0  0  0  0  0  0  0  0  0
   11.9706    9.9686    1.2044 H   0  0  0  0  0  0  0  0  0  0  0  0
   12.7611    8.3619    1.3964 H   0  0  0  0  0  0  0  0  0  0  0  0
   10.8940    7.9768    4.7514 H   0  0  0  0  0  0  0  0  0  0  0  0
   12.0542    7.0518    3.7308 H   0  0  0  0  0  0  0  0  0  0  0  0
   13.2945    8.1238    5.5582 H   0  0  0  0  0  0  0  0  0  0  0  0
   12.5690    9.7192    5.1615 H   0  0  0  0  0  0  0  0  0  0  0  0
   10.5025   11.3500    3.6599 H   0  0  0  0  0  0  0  0  0  0  0  0
    9.9127   11.6038    1.9822 H   0  0  0  0  0  0  0  0  0  0  0  0
    8.4766   12.2408    4.2578 H   0  0  0  0  0  0  0  0  0  0  0  0
    7.8525   10.5959    3.8951 H   0  0  0  0  0  0  0  0  0  0  0  0
    7.4197   11.3182    1.6475 H   0  0  0  0  0  0  0  0  0  0  0  0
    8.0048   12.8579    1.9866 H   0  0  0  0  0  0  0  0  0  0  0  0
    6.6129   12.3009    2.7476 H   0  0  0  0  0  0  0  0  0  0  0  0
  1  2  1  0  0  0  0
  1 21  1  0  0  0  0
  1 22  1  0  0  0  0
  1 23  1  0  0  0  0
  2  3  1  0  0  0  0
  3  8  2  0  0  0  0
  3  4  1  0  0  0  0
  4  5  2  0  0  0  0
  4 24  1  0  0  0  0
  5  6  1  0  0  0  0
  5 25  1  0  0  0  0
  6  7  2  0  0  0  0
  6 26  1  0  0  0  0
  7  8  1  0  0  0  0
  7  9  1  0  0  0  0
  8 27  1  0  0  0  0
  9 14  1  0  0  0  0
  9 10  1  0  0  0  0
 10 11  1  0  0  0  0
 10 28  1  0  0  0  0
 10 29  1  0  0  0  0
 11 12  1  0  0  0  0
 11 30  1  0  0  0  0
 11 31  1  0  0  0  0
 12 13  1  0  0  0  0
 12 15  1  0  0  0  0
 13 14  1  0  0  0  0
 13 32  1  0  0  0  0
 13 33  1  0  0  0  0
 14 34  1  0  0  0  0
 14 35  1  0  0  0  0
 15 16  2  0  0  0  0
 15 17  2  0  0  0  0
 15 18  1  0  0  0  0
 18 19  1  0  0  0  0
 18 36  1  0  0  0  0
 18 37  1  0  0  0  0
 19 20  1  0  0  0  0
 19 38  1  0  0  0  0
 19 39  1  0  0  0  0
 20 40  1  0  0  0  0
 20 41  1  0  0  0  0
 20 42  1  0  0  0  0
M  END
> <Name>
ZINC19844186

> <reference>
BDB5233

> <quality>
0.730

> <status>
decoy

> <atoms in reference ligand area>
10

> <score>
-15.739

$$$$
ZINC08739346
      BALL 1.4.0 (Jan  4 2012, 23:22:29)

 35 36  0999  0  0  0  0  0  0999 V2000
   14.1567    9.1221    1.9060 C   0  0  0  0  0  0  0  0  0  0  0  0
   14.4427    7.6553    1.5782 C   0  0  0  0  0  0  0  0  0  0  0  0
   13.9626    6.8276    2.6395 O   0  0  0  0  0  0  0  0  0  0  0  0
   12.6244    6.7266    2.7801 C   0  0  0  0  0  0  0  0  0  0  0  0
   12.0839    5.6404    2.6920 O   0  0  0  0  0  0  0  0  0  0  0  0
   11.8237    7.9234    3.0382 C   0  0  0  0  0  0  0  0  0  0  0  0
   11.3914    8.8668    2.1512 C   0  0  0  0  0  0  0  0  0  0  0  0
   10.6286    9.9463    2.6011 C   0  0  0  0  0  0  0  0  0  0  0  0
   10.3581    9.9724    3.9901 C   0  0  0  0  0  0  0  0  0  0  0  0
   11.1689    8.5117    4.5908 S   0  0  0  0  0  0  0  0  0  0  0  0
    9.6465   10.9405    4.5466 N   0  0  0  0  0  0  0  0  0  0  0  0
    9.1543   11.9288    3.8341 C   0  0  0  0  0  0  0  0  0  0  0  0
    9.3504   12.0087    2.4903 N   0  0  0  0  0  0  0  0  0  0  0  0
   10.0559   11.0710    1.8288 C   0  0  0  0  0  0  0  0  0  0  0  0
   10.2215   11.1490    0.6245 O   0  0  0  0  0  0  0  0  0  0  0  0
    8.7778   13.1338    1.7469 C   0  0  0  0  0  0  0  0  0  0  0  0
    9.1452   14.4454    2.4437 C   0  0  0  0  0  0  0  0  0  0  0  0
    8.4362   12.8897    4.4515 O   0  5  0  0  0  0  0  0  0  0  0  0
   11.7363    8.7430    0.6894 C   0  0  0  0  0  0  0  0  0  0  0  0
    7.9371   15.0117    3.0690 N   0  3  0  0  0  0  0  0  0  0  0  0
   13.3735    9.5032    1.2340 H   0  0  0  0  0  0  0  0  0  0  0  0
   15.0739    9.7144    1.7721 H   0  0  0  0  0  0  0  0  0  0  0  0
   13.8163    9.2059    2.9486 H   0  0  0  0  0  0  0  0  0  0  0  0
   13.9334    7.3826    0.6421 H   0  0  0  0  0  0  0  0  0  0  0  0
   15.5268    7.5091    1.4619 H   0  0  0  0  0  0  0  0  0  0  0  0
    9.1786   13.1385    0.7226 H   0  0  0  0  0  0  0  0  0  0  0  0
    7.6830   13.0323    1.7118 H   0  0  0  0  0  0  0  0  0  0  0  0
    9.9027   14.2513    3.2173 H   0  0  0  0  0  0  0  0  0  0  0  0
    9.5440   15.1563    1.7050 H   0  0  0  0  0  0  0  0  0  0  0  0
   12.5416    9.4736    0.5227 H   0  0  0  0  0  0  0  0  0  0  0  0
   10.8480    9.1094    0.1540 H   0  0  0  0  0  0  0  0  0  0  0  0
   12.0216    7.7252    0.3847 H   0  0  0  0  0  0  0  0  0  0  0  0
    7.4564   15.6300    2.4000 H   0  0  0  0  0  0  0  0  0  0  0  0
    8.1989   15.5489    3.9080 H   0  0  0  0  0  0  0  0  0  0  0  0
    7.3033   14.2462    3.3398 H   0  0  0  0  0  0  0  0  0  0  0  0
  1  2  1  0  0  0  0
  1 21  1  0  0  0  0
  1 22  1  0  0  0  0
  1 23  1  0  0  0  0
  2  3  1  0  0  0  0
  2 24  1  0  0  0  0
  2 25  1  0  0  0  0
  3  4  1  0  0  0  0
  4  5  2  0  0  0  0
  4  6  1  0  0  0  0
  6 10  1  0  0  0  0
  6  7  2  0  0  0  0
  7  8  1  0  0  0  0
  7 19  1  0  0  0  0
  8 14  1  0  0  0  0
  8  9  2  0  0  0  0
  9 10  1  0  0  0  0
  9 11  1  0  0  0  0
 11 12  2  0  0  0  0
 12 13  1  0  0  0  0
 12 18  1  0  0  0  0
 13 14  1  0  0  0  0
 13 16  1  0  0  0  0
 14 15  2  0  0  0  0
 16 17  1  0  0  0  0
 16 26  1  0  0  0  0
 16 27  1  0  0  0  0
 17 20  1  0  0  0  0
 17 28  1  0  0  0  0
 17 29  1  0  0  0  0
 19 30  1  0  0  0  0
 19 31  1  0  0  0  0
 19 32  1  0  0  0  0
 20 33  1  0  0  0  0
 20 34  1  0  0  0  0
 20 35  1  0  0  0  0
M  END
> <Name>
ZINC08739346

> <reference>
BDB4983

> <quality>
0.866

> <status>
decoy

> <atoms in reference ligand area>
12

> <score>
-15.6002

$$$$
ZINC20341969
      BALL 1.4.0 (Jan  4 2012, 23:22:29)

 39 39  0999  0  0  0  0  0  0999 V2000
   15.9438   10.1664    6.1025 C   0  0  0  0  0  0  0  0  0  0  0  0
   16.4717    8.9577    5.3271 C   0  0  0  0  0  0  0  0  0  0  0  0
   15.5797    8.6746    4.1948 N   0  0  0  0  0  0  0  0  0  0  0  0
   16.1738    7.6790    3.2927 C   0  0  0  0  0  0  0  0  0  0  0  0
   15.1775    7.3377    2.1828 C   0  0  0  0  0  0  0  0  0  0  0  0
   14.5977    8.5417    1.6763 O   0  0  0  0  0  0  0  0  0  0  0  0
   15.2419    9.9069    3.4699 C   0  0  0  0  0  0  0  0  0  0  0  0
   13.7479    9.9903    3.2901 C   0  0  0  0  0  0  0  0  0  0  0  0
   13.0168    9.2897    3.9573 O   0  0  0  0  0  0  0  0  0  0  0  0
   13.2246   10.8437    2.3877 N   0  0  0  0  0  0  0  0  0  0  0  0
   11.8505   10.9205    2.2222 C   0  0  0  0  0  0  0  0  0  0  0  0
   11.1185   11.8536    1.4956 C   0  0  0  0  0  0  0  0  0  0  0  0
    9.6838   11.6900    1.4893 C   0  0  0  0  0  0  0  0  0  0  0  0
    9.1804   10.6571    2.1880 C   0  0  0  0  0  0  0  0  0  0  0  0
   10.6290    9.8793    2.8721 S   0  0  0  0  0  0  0  0  0  0  0  0
    7.7374   10.2551    2.3531 C   0  0  0  0  0  0  0  0  0  0  0  0
    8.7887   12.6368    0.7321 C   0  0  0  0  0  0  0  0  0  0  0  0
   11.7707   12.9444    0.7683 C   0  0  0  0  0  0  0  0  0  0  0  0
   11.9679   14.0106    1.3195 O   0  0  0  0  0  0  0  0  0  0  0  0
   12.1529   12.7668   -0.5131 O   0  5  0  0  0  0  0  0  0  0  0  0
   15.4100   10.8394    5.4155 H   0  0  0  0  0  0  0  0  0  0  0  0
   16.7858   10.7048    6.5619 H   0  0  0  0  0  0  0  0  0  0  0  0
   15.2548    9.8257    6.8894 H   0  0  0  0  0  0  0  0  0  0  0  0
   17.4824    9.1758    4.9515 H   0  0  0  0  0  0  0  0  0  0  0  0
   16.5086    8.0819    5.9917 H   0  0  0  0  0  0  0  0  0  0  0  0
   16.4167    6.7680    3.8591 H   0  0  0  0  0  0  0  0  0  0  0  0
   17.0919    8.0895    2.8470 H   0  0  0  0  0  0  0  0  0  0  0  0
   14.3843    6.6912    2.5866 H   0  0  0  0  0  0  0  0  0  0  0  0
   15.7000    6.8127    1.3696 H   0  0  0  0  0  0  0  0  0  0  0  0
   15.1465    8.8832    0.9263 H   0  0  0  0  0  0  0  0  0  0  0  0
   15.5908   10.7777    4.0442 H   0  0  0  0  0  0  0  0  0  0  0  0
   15.7292    9.8988    2.4837 H   0  0  0  0  0  0  0  0  0  0  0  0
   13.8456   11.4387    1.8209 H   0  0  0  0  0  0  0  0  0  0  0  0
    7.2598   11.2223    2.5686 H   0  0  0  0  0  0  0  0  0  0  0  0
    7.7633    9.7214    3.3145 H   0  0  0  0  0  0  0  0  0  0  0  0
    7.2743    9.6907    1.5303 H   0  0  0  0  0  0  0  0  0  0  0  0
    8.7630   12.2285   -0.2889 H   0  0  0  0  0  0  0  0  0  0  0  0
    9.3633   13.5735    0.6832 H   0  0  0  0  0  0  0  0  0  0  0  0
    7.7870   12.7698    1.1668 H   0  0  0  0  0  0  0  0  0  0  0  0
  1  2  1  0  0  0  0
  1 21  1  0  0  0  0
  1 22  1  0  0  0  0
  1 23  1  0  0  0  0
  2  3  1  0  0  0  0
  2 24  1  0  0  0  0
  2 25  1  0  0  0  0
  3  4  1  0  0  0  0
  3  7  1  0  0  0  0
  4  5  1  0  0  0  0
  4 26  1  0  0  0  0
  4 27  1  0  0  0  0
  5  6  1  0  0  0  0
  5 28  1  0  0  0  0
  5 29  1  0  0  0  0
  6 30  1  0  0  0  0
  7  8  1  0  0  0  0
  7 31  1  0  0  0  0
  7 32  1  0  0  0  0
  8  9  2  0  0  0  0
  8 10  1  0  0  0  0
 10 11  1  0  0  0  0
 10 33  1  0  0  0  0
 11 15  1  0  0  0  0
 11 12  2  0  0  0  0
 12 13  1  0  0  0  0
 12 18  1  0  0  0  0
 13 14  2  0  0  0  0
 13 17  1  0  0  0  0
 14 15  1  0  0  0  0
 14 16  1  0  0  0  0
 16 34  1  0  0  0  0
 16 35  1  0  0  0  0
 16 36  1  0  0  0  0
 17 37  1  0  0  0  0
 17 38  1  0  0  0  0
 17 39  1  0  0  0  0
 18 19  2  0  0  0  0
 18 20  1  0  0  0  0
M  END
> <Name>
ZINC20341969

> <reference>
BDB4995

> <quality>
0.767

> <status>
decoy

> <atoms in reference ligand area>
12

> <score>
-15.5932

$$$$
ZINC04226596
      BALL 1.4.0 (Jan  4 2012, 23:22:29)

 38 39  0999  0  0  0  0  0  0999 V2000
   14.0237    7.4229    6.6240 C   0  0  0  0  0  0  0  0  0  0  0  0
   13.2867    6.5465    5.6093 C   0  0  0  0  0  0  0  0  0  0  0  0
   11.8722    7.0900    5.3981 C   0  0  0  0  0  0  0  0  0  0  0  0
   11.1584    7.1926    6.7476 C   0  0  0  0  0  0  0  0  0  0  0  0
   12.0393    7.7772    7.7090 O   0  0  0  0  0  0  0  0  0  0  0  0
   11.9460    8.4174    4.7826 N   0  0  0  0  0  0  0  0  0  0  0  0
   10.7905    9.1563    4.5890 C   0  0  0  0  0  0  0  0  0  0  0  0
    9.5527    8.6643    4.9774 C   0  0  0  0  0  0  0  0  0  0  0  0
    8.4150    9.4286    4.7698 C   0  0  0  0  0  0  0  0  0  0  0  0
    9.6272   11.1551    3.8209 C   0  0  0  0  0  0  0  0  0  0  0  0
   10.8358   10.4414    3.9963 C   0  0  0  0  0  0  0  0  0  0  0  0
   12.0481   11.0079    3.5800 C   0  0  0  0  0  0  0  0  0  0  0  0
   12.0646   12.2465    3.0069 C   0  0  0  0  0  0  0  0  0  0  0  0
   10.8922   12.9655    2.8243 C   0  0  0  0  0  0  0  0  0  0  0  0
    9.6695   12.4407    3.2223 C   0  0  0  0  0  0  0  0  0  0  0  0
    8.4301   13.2104    3.0254 C   0  0  0  0  0  0  0  0  0  0  0  0
    8.3011   14.2990    3.5501 O   0  0  0  0  0  0  0  0  0  0  0  0
    7.0766    8.8800    5.1927 C   0  0  0  0  0  0  0  0  0  0  0  0
    8.4037   10.6601    4.2041 N   0  3  0  0  0  0  0  0  0  0  0  0
    7.4386   12.7079    2.2631 O   0  5  0  0  0  0  0  0  0  0  0  0
   15.0058    7.7082    6.2188 H   0  0  0  0  0  0  0  0  0  0  0  0
   14.1627    6.8633    7.5608 H   0  0  0  0  0  0  0  0  0  0  0  0
   13.4333    8.3293    6.8238 H   0  0  0  0  0  0  0  0  0  0  0  0
   13.2297    5.5149    5.9871 H   0  0  0  0  0  0  0  0  0  0  0  0
   13.8296    6.5572    4.6527 H   0  0  0  0  0  0  0  0  0  0  0  0
   11.3129    6.4103    4.7384 H   0  0  0  0  0  0  0  0  0  0  0  0
   10.8633    6.1881    7.0849 H   0  0  0  0  0  0  0  0  0  0  0  0
   10.2624    7.8219    6.6417 H   0  0  0  0  0  0  0  0  0  0  0  0
   12.0510    8.7602    7.5926 H   0  0  0  0  0  0  0  0  0  0  0  0
   12.8571    8.8011    4.4937 H   0  0  0  0  0  0  0  0  0  0  0  0
    9.4745    7.6731    5.4477 H   0  0  0  0  0  0  0  0  0  0  0  0
   12.9884   10.4533    3.7155 H   0  0  0  0  0  0  0  0  0  0  0  0
   13.0222   12.6815    2.6847 H   0  0  0  0  0  0  0  0  0  0  0  0
   10.9315   13.9617    2.3595 H   0  0  0  0  0  0  0  0  0  0  0  0
    6.9648    9.1631    6.2497 H   0  0  0  0  0  0  0  0  0  0  0  0
    7.1834    7.7859    5.1549 H   0  0  0  0  0  0  0  0  0  0  0  0
    6.2404    9.2389    4.5745 H   0  0  0  0  0  0  0  0  0  0  0  0
    7.5321   11.1921    4.0698 H   0  0  0  0  0  0  0  0  0  0  0  0
  1  2  1  0  0  0  0
  1 21  1  0  0  0  0
  1 22  1  0  0  0  0
  1 23  1  0  0  0  0
  2  3  1  0  0  0  0
  2 24  1  0  0  0  0
  2 25  1  0  0  0  0
  3  4  1  0  0  0  0
  3  6  1  0  0  0  0
  3 26  1  0  0  0  0
  4  5  1  0  0  0  0
  4 27  1  0  0  0  0
  4 28  1  0  0  0  0
  5 29  1  0  0  0  0
  6  7  1  0  0  0  0
  6 30  1  0  0  0  0
  7 11  2  0  0  0  0
  7  8  1  0  0  0  0
  8  9  2  0  0  0  0
  8 31  1  0  0  0  0
  9 18  1  0  0  0  0
  9 19  1  0  0  0  0
 10 15  1  0  0  0  0
 10 11  1  0  0  0  0
 10 19  2  0  0  0  0
 11 12  1  0  0  0  0
 12 13  2  0  0  0  0
 12 32  1  0  0  0  0
 13 14  1  0  0  0  0
 13 33  1  0  0  0  0
 14 15  2  0  0  0  0
 14 34  1  0  0  0  0
 15 16  1  0  0  0  0
 16 17  2  0  0  0  0
 16 20  1  0  0  0  0
 18 35  1  0  0  0  0
 18 36  1  0  0  0  0
 18 37  1  0  0  0  0
 19 38  1  0  0  0  0
M  END
> <Name>
ZINC04226596

> <reference>
BDB5233

> <quality>
0.772

> <status>
decoy

> <atoms in reference ligand area>
12

> <score>
-15.3452

$$$$
ZINC16321740
      BALL 1.4.0 (Jan  4 2012, 23:22:29)

 34 35  0999  0  0  0  0  0  0999 V2000
    7.6244   12.9632    2.0229 C   0  0  0  0  0  0  0  0  0  0  0  0
    7.4006   11.4738    1.9708 C   0  0  0  0  0  0  0  0  0  0  0  0
    6.2794   11.0287    2.0378 O   0  0  0  0  0  0  0  0  0  0  0  0
    8.4470   10.6417    1.8500 O   0  0  0  0  0  0  0  0  0  0  0  0
    9.7702   11.2206    1.9988 C   0  0  0  0  0  0  0  0  0  0  0  0
   10.8104   10.1016    2.0795 C   0  0  0  0  0  0  0  0  0  0  0  0
   12.2286   10.7026    2.1279 C   0  0  0  0  0  0  0  0  0  0  0  0
   12.8234   10.1651    3.4524 C   0  0  0  0  0  0  0  0  0  0  0  0
   11.9334    8.9265    3.7289 C   0  0  0  0  0  0  0  0  0  0  0  0
   10.6243    9.3474    3.2890 O   0  0  0  0  0  0  0  0  0  0  0  0
   11.9191    8.6065    5.1585 N   0  0  0  0  0  0  0  0  0  0  0  0
   10.8231    8.5278    5.9356 C   0  0  0  0  0  0  0  0  0  0  0  0
   11.2164    8.2209    7.1455 N   0  0  0  0  0  0  0  0  0  0  0  0
   12.5569    8.1104    7.1137 C   0  0  0  0  0  0  0  0  0  0  0  0
   12.9530    8.3475    5.8824 N   0  0  0  0  0  0  0  0  0  0  0  0
   13.4299    7.7764    8.2595 C   0  0  0  0  0  0  0  0  0  0  0  0
   13.6992    6.6157    8.5003 O   0  0  0  0  0  0  0  0  0  0  0  0
   13.9268    8.7588    9.0369 N   0  0  0  0  0  0  0  0  0  0  0  0
   14.1895    9.7832    3.2799 O   0  0  0  0  0  0  0  0  0  0  0  0
   12.1664   12.1301    2.1474 O   0  0  0  0  0  0  0  0  0  0  0  0
    8.7046   13.0924    2.1857 H   0  0  0  0  0  0  0  0  0  0  0  0
    7.1067   13.3064    2.9307 H   0  0  0  0  0  0  0  0  0  0  0  0
    7.2738   13.4858    1.1207 H   0  0  0  0  0  0  0  0  0  0  0  0
    9.9893   11.8624    1.1328 H   0  0  0  0  0  0  0  0  0  0  0  0
    9.8072   11.8216    2.9194 H   0  0  0  0  0  0  0  0  0  0  0  0
   10.6909    9.4582    1.1953 H   0  0  0  0  0  0  0  0  0  0  0  0
   12.8347   10.4287    1.2518 H   0  0  0  0  0  0  0  0  0  0  0  0
   12.8258   10.9017    4.2694 H   0  0  0  0  0  0  0  0  0  0  0  0
   12.2892    8.0203    3.2170 H   0  0  0  0  0  0  0  0  0  0  0  0
    9.7846    8.6917    5.6123 H   0  0  0  0  0  0  0  0  0  0  0  0
   13.9686    9.7248    8.6821 H   0  0  0  0  0  0  0  0  0  0  0  0
   14.2648    8.5434    9.9858 H   0  0  0  0  0  0  0  0  0  0  0  0
   14.5451   10.2237    2.4678 H   0  0  0  0  0  0  0  0  0  0  0  0
   13.0866   12.4933    2.1852 H   0  0  0  0  0  0  0  0  0  0  0  0
  1  2  1  0  0  0  0
  1 21  1  0  0  0  0
  1 22  1  0  0  0  0
  1 23  1  0  0  0  0
  2  3  2  0  0  0  0
  2  4  1  0  0  0  0
  4  5  1  0  0  0  0
  5  6  1  0  0  0  0
  5 24  1  0  0  0  0
  5 25  1  0  0  0  0
  6 10  1  0  0  0  0
  6  7  1  0  0  0  0
  6 26  1  0  0  0  0
  7  8  1  0  0  0  0
  7 20  1  0  0  0  0
  7 27  1  0  0  0  0
  8  9  1  0  0  0  0
  8 19  1  0  0  0  0
  8 28  1  0  0  0  0
  9 10  1  0  0  0  0
  9 11  1  0  0  0  0
  9 29  1  0  0  0  0
 11 15  1  0  0  0  0
 11 12  1  0  0  0  0
 12 13  2  0  0  0  0
 12 30  1  0  0  0  0
 13 14  1  0  0  0  0
 14 15  2  0  0  0  0
 14 16  1  0  0  0  0
 16 17  2  0  0  0  0
 16 18  1  0  0  0  0
 18 31  1  0  0  0  0
 18 32  1  0  0  0  0
 19 33  1  0  0  0  0
 20 34  1  0  0  0  0
M  END
> <Name>
ZINC16321740

> <reference>
BDB4937

> <quality>
0.731

> <status>
decoy

> <atoms in reference ligand area>
11

> <score>
-15.1276

$$$$
ZINC29491643
      BALL 1.4.0 (Jan  4 2012, 23:22:29)

 46 47  0999  0  0  0  0  0  0999 V2000
    9.9627    8.9918    7.2181 C   0  0  0  0  0  0  0  0  0  0  0  0
    9.6935    7.5646    7.4094 N   0  0  0  0  0  0  0  0  0  0  0  0
   10.2875    6.8527    8.5438 C   0  0  0  0  0  0  0  0  0  0  0  0
    9.3463    5.7256    9.0001 C   0  0  0  0  0  0  0  0  0  0  0  0
    9.8017    5.1824   10.3759 C   0  0  0  0  0  0  0  0  0  0  0  0
   10.6280    6.6409   11.1326 S   0  0  0  0  0  0  0  0  0  0  0  0
   12.0007    6.3382   11.3409 O   0  0  0  0  0  0  0  0  0  0  0  0
    9.8408    7.1053   12.2206 O   0  0  0  0  0  0  0  0  0  0  0  0
   10.4824    7.8332    9.7355 C   0  0  0  0  0  0  0  0  0  0  0  0
    8.8993    6.9063    6.5420 C   0  0  0  0  0  0  0  0  0  0  0  0
    8.5290    5.7793    6.7940 O   0  0  0  0  0  0  0  0  0  0  0  0
    8.4716    7.5707    5.2588 C   0  0  0  0  0  0  0  0  0  0  0  0
    8.2263    6.3129    3.9806 S   0  0  0  0  0  0  0  0  0  0  0  0
    7.7457    7.3380    2.6306 C   0  0  0  0  0  0  0  0  0  0  0  0
    7.8559    8.6431    2.7254 N   0  0  0  0  0  0  0  0  0  0  0  0
    7.5661    9.4358    1.6450 C   0  0  0  0  0  0  0  0  0  0  0  0
    6.2472    9.8130    1.3874 C   0  0  0  0  0  0  0  0  0  0  0  0
    5.9600   10.6111    0.2994 C   0  0  0  0  0  0  0  0  0  0  0  0
    6.9803   11.0391   -0.5382 C   0  0  0  0  0  0  0  0  0  0  0  0
    8.2924   10.6619   -0.2891 C   0  0  0  0  0  0  0  0  0  0  0  0
    8.5892    9.8686    0.7998 C   0  0  0  0  0  0  0  0  0  0  0  0
    6.6929   11.8258   -1.6097 O   0  0  0  0  0  0  0  0  0  0  0  0
    6.9237   13.2286   -1.4652 C   0  0  0  0  0  0  0  0  0  0  0  0
    7.2554    6.7718    1.4784 N   0  3  0  0  0  0  0  0  0  0  0  0
    9.6913    9.4606    8.1755 H   0  0  0  0  0  0  0  0  0  0  0  0
    9.2195    9.3220    6.4774 H   0  0  0  0  0  0  0  0  0  0  0  0
   10.9943    9.2216    6.9129 H   0  0  0  0  0  0  0  0  0  0  0  0
   11.2564    6.4366    8.2304 H   0  0  0  0  0  0  0  0  0  0  0  0
    9.3655    4.9105    8.2617 H   0  0  0  0  0  0  0  0  0  0  0  0
    8.3213    6.1162    9.0829 H   0  0  0  0  0  0  0  0  0  0  0  0
    8.9320    4.8893   10.9824 H   0  0  0  0  0  0  0  0  0  0  0  0
   10.5280    4.3660   10.2487 H   0  0  0  0  0  0  0  0  0  0  0  0
   11.4188    8.3999    9.6266 H   0  0  0  0  0  0  0  0  0  0  0  0
    9.5925    8.4651    9.8729 H   0  0  0  0  0  0  0  0  0  0  0  0
    7.5294    8.1140    5.4233 H   0  0  0  0  0  0  0  0  0  0  0  0
    9.2499    8.2765    4.9329 H   0  0  0  0  0  0  0  0  0  0  0  0
    8.1602    9.0712    3.6115 H   0  0  0  0  0  0  0  0  0  0  0  0
    5.4378    9.4742    2.0510 H   0  0  0  0  0  0  0  0  0  0  0  0
    4.9208   10.9086    0.0956 H   0  0  0  0  0  0  0  0  0  0  0  0
    9.0969   10.9959   -0.9608 H   0  0  0  0  0  0  0  0  0  0  0  0
    9.6306    9.5776    1.0017 H   0  0  0  0  0  0  0  0  0  0  0  0
    6.0199   13.7310   -1.8404 H   0  0  0  0  0  0  0  0  0  0  0  0
    7.7538   13.4768   -2.1429 H   0  0  0  0  0  0  0  0  0  0  0  0
    7.1472   13.5184   -0.4279 H   0  0  0  0  0  0  0  0  0  0  0  0
    7.1689    5.7481    1.4040 H   0  0  0  0  0  0  0  0  0  0  0  0
    6.9745    7.3711    0.6892 H   0  0  0  0  0  0  0  0  0  0  0  0
  1  2  1  0  0  0  0
  1 25  1  0  0  0  0
  1 26  1  0  0  0  0
  1 27  1  0  0  0  0
  2  3  1  0  0  0  0
  2 10  1  0  0  0  0
  3  9  1  0  0  0  0
  3  4  1  0  0  0  0
  3 28  1  0  0  0  0
  4  5  1  0  0  0  0
  4 29  1  0  0  0  0
  4 30  1  0  0  0  0
  5  6  1  0  0  0  0
  5 31  1  0  0  0  0
  5 32  1  0  0  0  0
  6  7  2  0  0  0  0
  6  8  2  0  0  0  0
  6  9  1  0  0  0  0
  9 33  1  0  0  0  0
  9 34  1  0  0  0  0
 10 11  2  0  0  0  0
 10 12  1  0  0  0  0
 12 13  1  0  0  0  0
 12 35  1  0  0  0  0
 12 36  1  0  0  0  0
 13 14  1  0  0  0  0
 14 15  1  0  0  0  0
 14 24  2  0  0  0  0
 15 16  1  0  0  0  0
 15 37  1  0  0  0  0
 16 21  2  0  0  0  0
 16 17  1  0  0  0  0
 17 18  2  0  0  0  0
 17 38  1  0  0  0  0
 18 19  1  0  0  0  0
 18 39  1  0  0  0  0
 19 20  2  0  0  0  0
 19 22  1  0  0  0  0
 20 21  1  0  0  0  0
 20 40  1  0  0  0  0
 21 41  1  0  0  0  0
 22 23  1  0  0  0  0
 23 42  1  0  0  0  0
 23 43  1  0  0  0  0
 23 44  1  0  0  0  0
 24 45  1  0  0  0  0
 24 46  1  0  0  0  0
M  END
> <Name>
ZINC29491643

> <reference>
BDB4952

> <quality>
0.782

> <status>
decoy

> <atoms in reference ligand area>
10

> <score>
-15.0916

$$$$
ZINC05434281
      BALL 1.4.0 (Jan  4 2012, 23:22:29)

 25 24  0999  0  0  0  0  0  0999 V2000
   12.7700   13.6733   -0.3335 C   0  0  0  0  0  0  0  0  0  0  0  0
   12.4560   13.1599    1.0482 C   0  0  0  0  0  0  0  0  0  0  0  0
   12.0423   13.9166    1.8944 O   0  0  0  0  0  0  0  0  0  0  0  0
   12.6359   11.8618    1.3388 O   0  0  0  0  0  0  0  0  0  0  0  0
   11.6286   11.2264    2.1694 C   0  0  0  0  0  0  0  0  0  0  0  0
   11.1951   12.1922    3.2739 C   0  0  0  0  0  0  0  0  0  0  0  0
   10.1912   14.3902    3.4279 C   0  0  0  0  0  0  0  0  0  0  0  0
    9.1024   15.2740    2.8764 C   0  0  0  0  0  0  0  0  0  0  0  0
    9.3197   16.4451    2.6734 O   0  0  0  0  0  0  0  0  0  0  0  0
   12.2119    9.9599    2.7992 C   0  0  0  0  0  0  0  0  0  0  0  0
   13.6390   10.3945    3.8117 Cl  0  0  0  0  0  0  0  0  0  0  0  0
   10.9610    9.1708    3.8306 Cl  0  0  0  0  0  0  0  0  0  0  0  0
   12.7228    8.8218    1.4974 Cl  0  0  0  0  0  0  0  0  0  0  0  0
   10.1384   13.0796    2.7528 N   0  3  0  0  0  0  0  0  0  0  0  0
    7.8911   14.7603    2.6106 O   0  5  0  0  0  0  0  0  0  0  0  0
   13.4898   12.9571   -0.7563 H   0  0  0  0  0  0  0  0  0  0  0  0
   13.2981   14.6259   -0.1797 H   0  0  0  0  0  0  0  0  0  0  0  0
   11.8774   13.7893   -0.9658 H   0  0  0  0  0  0  0  0  0  0  0  0
   10.7579   10.9613    1.5517 H   0  0  0  0  0  0  0  0  0  0  0  0
   10.8059   11.6211    4.1297 H   0  0  0  0  0  0  0  0  0  0  0  0
   12.0567   12.7965    3.5943 H   0  0  0  0  0  0  0  0  0  0  0  0
   11.1706   14.8571    3.2470 H   0  0  0  0  0  0  0  0  0  0  0  0
   10.0419   14.2522    4.5089 H   0  0  0  0  0  0  0  0  0  0  0  0
   10.2725   13.2122    1.7402 H   0  0  0  0  0  0  0  0  0  0  0  0
    9.2175   12.6486    2.9173 H   0  0  0  0  0  0  0  0  0  0  0  0
  1  2  1  0  0  0  0
  1 16  1  0  0  0  0
  1 17  1  0  0  0  0
  1 18  1  0  0  0  0
  2  3  2  0  0  0  0
  2  4  1  0  0  0  0
  4  5  1  0  0  0  0
  5  6  1  0  0  0  0
  5 10  1  0  0  0  0
  5 19  1  0  0  0  0
  6 14  1  0  0  0  0
  6 20  1  0  0  0  0
  6 21  1  0  0  0  0
  7  8  1  0  0  0  0
  7 14  1  0  0  0  0
  7 22  1  0  0  0  0
  7 23  1  0  0  0  0
  8  9  2  0  0  0  0
  8 15  1  0  0  0  0
 10 11  1  0  0  0  0
 10 12  1  0  0  0  0
 10 13  1  0  0  0  0
 14 24  1  0  0  0  0
 14 25  1  0  0  0  0
M  END
> <Name>
ZINC05434281

> <reference>
BDB5232

> <quality>
0.777

> <status>
decoy

> <atoms in reference ligand area>
13

> <score>
-14.4251

$$$$
ZINC27969144
      BALL 1.4.0 (Jan  4 2012, 23:22:29)

 38 39  0999  0  0  0  0  0  0999 V2000
    5.5013   10.4975   -0.2266 C   0  0  0  0  0  0  0  0  0  0  0  0
    6.8173    9.9926    0.1221 O   0  0  0  0  0  0  0  0  0  0  0  0
    7.3816   10.4815    1.2376 C   0  0  0  0  0  0  0  0  0  0  0  0
    6.7314   11.1619    1.9952 O   0  0  0  0  0  0  0  0  0  0  0  0
    8.8263   10.1817    1.5448 C   0  0  0  0  0  0  0  0  0  0  0  0
    9.6854   10.8970    0.5980 N   0  0  0  0  0  0  0  0  0  0  0  0
    9.5008   12.2147    0.3834 C   0  0  0  0  0  0  0  0  0  0  0  0
    8.6235   12.8083    0.9741 O   0  0  0  0  0  0  0  0  0  0  0  0
   10.3846   12.9506   -0.5905 C   0  0  0  0  0  0  0  0  0  0  0  0
   11.7360   13.0615   -0.0360 N   0  0  0  0  0  0  0  0  0  0  0  0
   12.1826   14.4254    0.7904 S   0  0  0  0  0  0  0  0  0  0  0  0
   10.9937   15.1695    1.0185 O   0  0  0  0  0  0  0  0  0  0  0  0
   13.3013   14.9687    0.1030 O   0  0  0  0  0  0  0  0  0  0  0  0
   12.7649   13.9094    2.3713 C   0  0  0  0  0  0  0  0  0  0  0  0
   14.0910   14.1008    2.7188 C   0  0  0  0  0  0  0  0  0  0  0  0
   14.5424   13.6960    3.9546 C   0  0  0  0  0  0  0  0  0  0  0  0
   13.6822   13.0942    4.8648 C   0  0  0  0  0  0  0  0  0  0  0  0
   12.3488   12.9043    4.5090 C   0  0  0  0  0  0  0  0  0  0  0  0
   11.8979   13.3111    3.2687 C   0  0  0  0  0  0  0  0  0  0  0  0
   10.2348   13.0703    2.8329 Cl  0  0  0  0  0  0  0  0  0  0  0  0
   14.3675   12.7753    6.0377 N   0  0  0  0  0  0  0  0  0  0  0  0
   15.6627   13.1284    5.9823 C   0  0  0  0  0  0  0  0  0  0  0  0
   16.4899   12.9726    6.8555 O   0  0  0  0  0  0  0  0  0  0  0  0
   15.8954   13.7583    4.6254 C   0  0  0  0  0  0  0  0  0  0  0  0
    5.5558   11.5926   -0.1380 H   0  0  0  0  0  0  0  0  0  0  0  0
    4.8127   10.1293    0.5481 H   0  0  0  0  0  0  0  0  0  0  0  0
    5.1819   10.1879   -1.2327 H   0  0  0  0  0  0  0  0  0  0  0  0
    9.0588   10.5082    2.5691 H   0  0  0  0  0  0  0  0  0  0  0  0
    9.0045    9.0999    1.4554 H   0  0  0  0  0  0  0  0  0  0  0  0
   10.4305   10.3929    0.0964 H   0  0  0  0  0  0  0  0  0  0  0  0
    9.9781   13.9573   -0.7678 H   0  0  0  0  0  0  0  0  0  0  0  0
   10.4229   12.3980   -1.5409 H   0  0  0  0  0  0  0  0  0  0  0  0
   12.4084   12.2912   -0.1601 H   0  0  0  0  0  0  0  0  0  0  0  0
   14.7833   14.5759    2.0082 H   0  0  0  0  0  0  0  0  0  0  0  0
   11.6539   12.4294    5.2172 H   0  0  0  0  0  0  0  0  0  0  0  0
   13.9306   12.3213    6.8525 H   0  0  0  0  0  0  0  0  0  0  0  0
   16.2132   14.8047    4.7437 H   0  0  0  0  0  0  0  0  0  0  0  0
   16.6287   13.1690    4.0553 H   0  0  0  0  0  0  0  0  0  0  0  0
  1  2  1  0  0  0  0
  1 25  1  0  0  0  0
  1 26  1  0  0  0  0
  1 27  1  0  0  0  0
  2  3  1  0  0  0  0
  3  4  2  0  0  0  0
  3  5  1  0  0  0  0
  5  6  1  0  0  0  0
  5 28  1  0  0  0  0
  5 29  1  0  0  0  0
  6  7  1  0  0  0  0
  6 30  1  0  0  0  0
  7  8  2  0  0  0  0
  7  9  1  0  0  0  0
  9 10  1  0  0  0  0
  9 31  1  0  0  0  0
  9 32  1  0  0  0  0
 10 11  1  0  0  0  0
 10 33  1  0  0  0  0
 11 12  2  0  0  0  0
 11 13  2  0  0  0  0
 11 14  1  0  0  0  0
 14 19  2  0  0  0  0
 14 15  1  0  0  0  0
 15 16  2  0  0  0  0
 15 34  1  0  0  0  0
 16 24  1  0  0  0  0
 16 17  1  0  0  0  0
 17 18  2  0  0  0  0
 17 21  1  0  0  0  0
 18 19  1  0  0  0  0
 18 35  1  0  0  0  0
 19 20  1  0  0  0  0
 21 22  1  0  0  0  0
 21 36  1  0  0  0  0
 22 23  2  0  0  0  0
 22 24  1  0  0  0  0
 24 37  1  0  0  0  0
 24 38  1  0  0  0  0
M  END
> <Name>
ZINC27969144

> <reference>
BDB4952

> <quality>
0.729

> <status>
decoy

> <atoms in reference ligand area>
16

> <score>
-12.9254

$$$$
ZINC05089417
      BALL 1.4.0 (Jan  4 2012, 23:22:29)

 42 44  0999  0  0  0  0  0  0999 V2000
    8.4959   12.6911    3.5132 C   0  0  0  0  0  0  0  0  0  0  0  0
    9.8117   12.1867    3.7508 O   0  0  0  0  0  0  0  0  0  0  0  0
   10.3531   11.3970    2.7865 C   0  0  0  0  0  0  0  0  0  0  0  0
   10.5364   11.8939    1.5036 C   0  0  0  0  0  0  0  0  0  0  0  0
   11.0868   11.0916    0.5228 C   0  0  0  0  0  0  0  0  0  0  0  0
   11.4558    9.7925    0.8161 C   0  0  0  0  0  0  0  0  0  0  0  0
   11.2689    9.2890    2.0955 C   0  0  0  0  0  0  0  0  0  0  0  0
   10.7224   10.0943    3.0832 C   0  0  0  0  0  0  0  0  0  0  0  0
   11.6268    8.0097    2.3819 O   0  0  0  0  0  0  0  0  0  0  0  0
   12.3857    7.3115    1.3926 C   0  0  0  0  0  0  0  0  0  0  0  0
   13.8315    7.7274    1.4826 C   0  0  0  0  0  0  0  0  0  0  0  0
   14.2828    8.9494    1.5140 N   0  0  0  0  0  0  0  0  0  0  0  0
   15.5656    8.9440    1.5934 N   0  0  0  0  0  0  0  0  0  0  0  0
   16.0057    7.7073    1.6171 C   0  0  0  0  0  0  0  0  0  0  0  0
   14.9121    6.8923    1.5523 N   0  0  0  0  0  0  0  0  0  0  0  0
   14.9002    5.5264    1.5536 N   0  0  0  0  0  0  0  0  0  0  0  0
   17.6887    7.1960    1.7199 S   0  0  0  0  0  0  0  0  0  0  0  0
   18.4778    8.7837    2.0841 C   0  0  0  0  0  0  0  0  0  0  0  0
   19.9433    8.7067    1.7412 C   0  0  0  0  0  0  0  0  0  0  0  0
   20.4089    7.6783    1.2937 O   0  0  0  0  0  0  0  0  0  0  0  0
   20.7757    9.8317    1.9400 C   0  0  0  0  0  0  0  0  0  0  0  0
   22.1553    9.8203    2.0546 C   0  0  0  0  0  0  0  0  0  0  0  0
   22.5591   11.1441    2.2365 C   0  0  0  0  0  0  0  0  0  0  0  0
   21.4481   11.9223    2.2397 C   0  0  0  0  0  0  0  0  0  0  0  0
   20.3630   11.1415    2.0613 N   0  0  0  0  0  0  0  0  0  0  0  0
    7.8048   11.8594    3.7146 H   0  0  0  0  0  0  0  0  0  0  0  0
    8.4424   12.9217    2.4390 H   0  0  0  0  0  0  0  0  0  0  0  0
    8.2604   13.5717    4.1288 H   0  0  0  0  0  0  0  0  0  0  0  0
   10.2433   12.9275    1.2677 H   0  0  0  0  0  0  0  0  0  0  0  0
   11.2315   11.4875   -0.4932 H   0  0  0  0  0  0  0  0  0  0  0  0
   11.8981    9.1570    0.0347 H   0  0  0  0  0  0  0  0  0  0  0  0
   10.5821    9.7000    4.1004 H   0  0  0  0  0  0  0  0  0  0  0  0
   12.3051    6.2281    1.5654 H   0  0  0  0  0  0  0  0  0  0  0  0
   11.9970    7.5533    0.3924 H   0  0  0  0  0  0  0  0  0  0  0  0
   14.1186    5.0988    1.0368 H   0  0  0  0  0  0  0  0  0  0  0  0
   15.6093    4.9502    2.0291 H   0  0  0  0  0  0  0  0  0  0  0  0
   18.3639    9.0141    3.1537 H   0  0  0  0  0  0  0  0  0  0  0  0
   18.0028    9.5751    1.4859 H   0  0  0  0  0  0  0  0  0  0  0  0
   22.8088    8.9366    2.0106 H   0  0  0  0  0  0  0  0  0  0  0  0
   23.5950   11.4943    2.3562 H   0  0  0  0  0  0  0  0  0  0  0  0
   21.4344   13.0148    2.3672 H   0  0  0  0  0  0  0  0  0  0  0  0
   19.3873   11.4695    2.0222 H   0  0  0  0  0  0  0  0  0  0  0  0
  1  2  1  0  0  0  0
  1 26  1  0  0  0  0
  1 27  1  0  0  0  0
  1 28  1  0  0  0  0
  2  3  1  0  0  0  0
  3  8  2  0  0  0  0
  3  4  1  0  0  0  0
  4  5  2  0  0  0  0
  4 29  1  0  0  0  0
  5  6  1  0  0  0  0
  5 30  1  0  0  0  0
  6  7  2  0  0  0  0
  6 31  1  0  0  0  0
  7  8  1  0  0  0  0
  7  9  1  0  0  0  0
  8 32  1  0  0  0  0
  9 10  1  0  0  0  0
 10 11  1  0  0  0  0
 10 33  1  0  0  0  0
 10 34  1  0  0  0  0
 11 15  1  0  0  0  0
 11 12  2  0  0  0  0
 12 13  1  0  0  0  0
 13 14  2  0  0  0  0
 14 15  1  0  0  0  0
 14 17  1  0  0  0  0
 15 16  1  0  0  0  0
 16 35  1  0  0  0  0
 16 36  1  0  0  0  0
 17 18  1  0  0  0  0
 18 19  1  0  0  0  0
 18 37  1  0  0  0  0
 18 38  1  0  0  0  0
 19 20  2  0  0  0  0
 19 21  1  0  0  0  0
 21 25  1  0  0  0  0
 21 22  2  0  0  0  0
 22 23  1  0  0  0  0
 22 39  1  0  0  0  0
 23 24  2  0  0  0  0
 23 40  1  0  0  0  0
 24 25  1  0  0  0  0
 24 41  1  0  0  0  0
 25 42  1  0  0  0  0
M  END
> <Name>
ZINC05089417

> <reference>
BDB5003

> <quality>
0.756

> <status>
decoy

> <atoms in reference ligand area>
10

> <score>
-12.7392

$$$$
ZINC30521525
      BALL 1.4.0 (Jan  4 2012, 23:22:29)

 51 52  0999  0  0  0  0  0  0999 V2000
   19.8536    7.4504   -0.2588 C   0  0  0  0  0  0  0  0  0  0  0  0
   18.4895    6.9074   -0.2088 N   0  3  0  0  0  0  0  0  0  0  0  0
   17.8045    7.0856   -1.4959 C   0  0  0  0  0  0  0  0  0  0  0  0
   18.5000    5.4939    0.1909 C   0  0  0  0  0  0  0  0  0  0  0  0
   17.2518    5.1894    1.0216 C   0  0  0  0  0  0  0  0  0  0  0  0
   16.3316    6.3275    0.9554 N   0  0  0  0  0  0  0  0  0  0  0  0
   15.3775    6.4783    1.8953 C   0  0  0  0  0  0  0  0  0  0  0  0
   15.2806    5.6698    2.7984 O   0  0  0  0  0  0  0  0  0  0  0  0
   14.4505    7.6248    1.8287 C   0  0  0  0  0  0  0  0  0  0  0  0
   14.7717    8.8233    2.4716 C   0  0  0  0  0  0  0  0  0  0  0  0
   13.9075    9.8928    2.4026 C   0  0  0  0  0  0  0  0  0  0  0  0
   12.7103    9.7777    1.7031 C   0  0  0  0  0  0  0  0  0  0  0  0
   12.3846    8.5839    1.0671 C   0  0  0  0  0  0  0  0  0  0  0  0
   13.2470    7.5125    1.1274 C   0  0  0  0  0  0  0  0  0  0  0  0
   11.8347   10.8611    1.6397 N   0  0  0  0  0  0  0  0  0  0  0  0
   11.2147   11.2926    2.7558 C   0  0  0  0  0  0  0  0  0  0  0  0
   11.4880   10.8006    3.8301 O   0  0  0  0  0  0  0  0  0  0  0  0
   10.1819   12.3866    2.6691 C   0  0  0  0  0  0  0  0  0  0  0  0
   10.1359   13.1567    3.9906 C   0  0  0  0  0  0  0  0  0  0  0  0
    9.5382   12.2995    5.0677 C   0  0  0  0  0  0  0  0  0  0  0  0
    8.8451   11.2298    4.8424 C   0  0  0  0  0  0  0  0  0  0  0  0
    8.5511   10.6915    3.4727 C   0  0  0  0  0  0  0  0  0  0  0  0
    8.7993   11.7717    2.4175 C   0  0  0  0  0  0  0  0  0  0  0  0
    8.7617   11.1550    1.0430 C   0  0  0  0  0  0  0  0  0  0  0  0
    8.0533   10.2000    0.8284 O   0  0  0  0  0  0  0  0  0  0  0  0
    9.5151   11.6666    0.0569 O   0  5  0  0  0  0  0  0  0  0  0  0
   20.5417    6.6540   -0.5785 H   0  0  0  0  0  0  0  0  0  0  0  0
   20.1384    7.7895    0.7481 H   0  0  0  0  0  0  0  0  0  0  0  0
   19.9014    8.2925   -0.9650 H   0  0  0  0  0  0  0  0  0  0  0  0
   17.9650    7.4340    0.5044 H   0  0  0  0  0  0  0  0  0  0  0  0
   18.3777    6.5669   -2.2785 H   0  0  0  0  0  0  0  0  0  0  0  0
   17.7639    8.1593   -1.7314 H   0  0  0  0  0  0  0  0  0  0  0  0
   16.7853    6.6748   -1.4438 H   0  0  0  0  0  0  0  0  0  0  0  0
   18.5058    4.8588   -0.7073 H   0  0  0  0  0  0  0  0  0  0  0  0
   19.3983    5.2880    0.7914 H   0  0  0  0  0  0  0  0  0  0  0  0
   16.7549    4.2930    0.6221 H   0  0  0  0  0  0  0  0  0  0  0  0
   17.5406    5.0128    2.0682 H   0  0  0  0  0  0  0  0  0  0  0  0
   16.4137    7.0123    0.1906 H   0  0  0  0  0  0  0  0  0  0  0  0
   15.7139    8.9121    3.0322 H   0  0  0  0  0  0  0  0  0  0  0  0
   14.1638   10.8393    2.9010 H   0  0  0  0  0  0  0  0  0  0  0  0
   11.4370    8.4960    0.5154 H   0  0  0  0  0  0  0  0  0  0  0  0
   12.9890    6.5691    0.6240 H   0  0  0  0  0  0  0  0  0  0  0  0
   11.6619   11.3317    0.7399 H   0  0  0  0  0  0  0  0  0  0  0  0
   10.4495   13.0649    1.8455 H   0  0  0  0  0  0  0  0  0  0  0  0
   11.1567   13.4466    4.2801 H   0  0  0  0  0  0  0  0  0  0  0  0
    9.5249   14.0628    3.8653 H   0  0  0  0  0  0  0  0  0  0  0  0
    9.6992   12.5989    6.1139 H   0  0  0  0  0  0  0  0  0  0  0  0
    8.4468   10.6813    5.7086 H   0  0  0  0  0  0  0  0  0  0  0  0
    7.5005   10.3691    3.4238 H   0  0  0  0  0  0  0  0  0  0  0  0
    9.2034    9.8289    3.2717 H   0  0  0  0  0  0  0  0  0  0  0  0
    8.0228   12.5481    2.4812 H   0  0  0  0  0  0  0  0  0  0  0  0
  1  2  1  0  0  0  0
  1 27  1  0  0  0  0
  1 28  1  0  0  0  0
  1 29  1  0  0  0  0
  2  3  1  0  0  0  0
  2  4  1  0  0  0  0
  2 30  1  0  0  0  0
  3 31  1  0  0  0  0
  3 32  1  0  0  0  0
  3 33  1  0  0  0  0
  4  5  1  0  0  0  0
  4 34  1  0  0  0  0
  4 35  1  0  0  0  0
  5  6  1  0  0  0  0
  5 36  1  0  0  0  0
  5 37  1  0  0  0  0
  6  7  1  0  0  0  0
  6 38  1  0  0  0  0
  7  8  2  0  0  0  0
  7  9  1  0  0  0  0
  9 14  2  0  0  0  0
  9 10  1  0  0  0  0
 10 11  2  0  0  0  0
 10 39  1  0  0  0  0
 11 12  1  0  0  0  0
 11 40  1  0  0  0  0
 12 13  2  0  0  0  0
 12 15  1  0  0  0  0
 13 14  1  0  0  0  0
 13 41  1  0  0  0  0
 14 42  1  0  0  0  0
 15 16  1  0  0  0  0
 15 43  1  0  0  0  0
 16 17  2  0  0  0  0
 16 18  1  0  0  0  0
 18 23  1  0  0  0  0
 18 19  1  0  0  0  0
 18 44  1  0  0  0  0
 19 20  1  0  0  0  0
 19 45  1  0  0  0  0
 19 46  1  0  0  0  0
 20 21  2  0  0  0  0
 20 47  1  0  0  0  0
 21 22  1  0  0  0  0
 21 48  1  0  0  0  0
 22 23  1  0  0  0  0
 22 49  1  0  0  0  0
 22 50  1  0  0  0  0
 23 24  1  0  0  0  0
 23 51  1  0  0  0  0
 24 25  2  0  0  0  0
 24 26  1  0  0  0  0
M  END
> <Name>
ZINC30521525

> <reference>
BDB4942

> <quality>
0.651

> <status>
decoy

> <atoms in reference ligand area>
15

> <score>
-10.3575

$$$$
ZINC04474059
      BALL 1.4.0 (Jan  4 2012, 23:22:29)

 52 54  0999  0  0  0  0  0  0999 V2000
   17.0602   11.0326    8.8475 C   0  0  0  0  0  0  0  0  0  0  0  0
   16.4665   11.6316    7.6940 O   0  0  0  0  0  0  0  0  0  0  0  0
   16.1283   10.7002    6.6645 C   0  0  0  0  0  0  0  0  0  0  0  0
   15.3298    9.5423    7.2666 C   0  0  0  0  0  0  0  0  0  0  0  0
   14.6980    8.8037    6.2190 O   0  0  0  0  0  0  0  0  0  0  0  0
   14.1715    9.5142    5.2001 C   0  0  0  0  0  0  0  0  0  0  0  0
   13.9145   10.6938    5.3500 O   0  0  0  0  0  0  0  0  0  0  0  0
   13.9178    8.8865    3.9556 C   0  0  0  0  0  0  0  0  0  0  0  0
   14.6105    7.7914    3.6139 C   0  0  0  0  0  0  0  0  0  0  0  0
   14.4086    7.1491    2.4543 O   0  0  0  0  0  0  0  0  0  0  0  0
   13.7857    7.7793    1.4447 C   0  0  0  0  0  0  0  0  0  0  0  0
   13.0339    8.8929    1.6524 C   0  0  0  0  0  0  0  0  0  0  0  0
   12.8809    9.4606    3.0341 C   0  0  0  0  0  0  0  0  0  0  0  0
   11.4949    9.1940    3.5650 C   0  0  0  0  0  0  0  0  0  0  0  0
   10.7951    8.0384    3.8306 C   0  0  0  0  0  0  0  0  0  0  0  0
    9.5052    8.1101    4.3262 C   0  0  0  0  0  0  0  0  0  0  0  0
    8.9227    9.3437    4.5534 C   0  0  0  0  0  0  0  0  0  0  0  0
    9.6207   10.5033    4.2881 C   0  0  0  0  0  0  0  0  0  0  0  0
   10.9201   10.4397    3.7889 C   0  0  0  0  0  0  0  0  0  0  0  0
   11.8167   11.4535    3.4476 N   0  0  0  0  0  0  0  0  0  0  0  0
   12.9870   10.9670    2.9972 C   0  0  0  0  0  0  0  0  0  0  0  0
   13.9451   11.6145    2.6316 O   0  0  0  0  0  0  0  0  0  0  0  0
   12.3964    9.5156    0.5683 C   0  0  0  0  0  0  0  0  0  0  0  0
   12.1059    8.8678   -0.4214 O   0  0  0  0  0  0  0  0  0  0  0  0
   12.1050   10.8333    0.6224 O   0  0  0  0  0  0  0  0  0  0  0  0
   11.2665   11.3552   -0.4103 C   0  0  0  0  0  0  0  0  0  0  0  0
   13.9108    7.2870    0.1733 N   0  0  0  0  0  0  0  0  0  0  0  0
   15.6480    7.2598    4.5688 C   0  0  0  0  0  0  0  0  0  0  0  0
   16.8870    7.9381    4.3520 O   0  0  0  0  0  0  0  0  0  0  0  0
   16.7730    9.3623    4.3259 C   0  0  0  0  0  0  0  0  0  0  0  0
   16.2459   10.6342    9.4706 H   0  0  0  0  0  0  0  0  0  0  0  0
   17.5703   11.8289    9.4093 H   0  0  0  0  0  0  0  0  0  0  0  0
   17.7662   10.2357    8.5710 H   0  0  0  0  0  0  0  0  0  0  0  0
   17.0483   10.3102    6.2046 H   0  0  0  0  0  0  0  0  0  0  0  0
   15.5208   11.2046    5.8986 H   0  0  0  0  0  0  0  0  0  0  0  0
   16.0083    8.8797    7.8240 H   0  0  0  0  0  0  0  0  0  0  0  0
   14.5632    9.9394    7.9481 H   0  0  0  0  0  0  0  0  0  0  0  0
   11.2612    7.0587    3.6490 H   0  0  0  0  0  0  0  0  0  0  0  0
    8.9443    7.1880    4.5391 H   0  0  0  0  0  0  0  0  0  0  0  0
    7.8973    9.4003    4.9476 H   0  0  0  0  0  0  0  0  0  0  0  0
    9.1505   11.4807    4.4710 H   0  0  0  0  0  0  0  0  0  0  0  0
   11.6065   12.4583    3.5310 H   0  0  0  0  0  0  0  0  0  0  0  0
   10.9156   10.4896   -0.9913 H   0  0  0  0  0  0  0  0  0  0  0  0
   11.9164   11.9581   -1.0616 H   0  0  0  0  0  0  0  0  0  0  0  0
   10.4263   11.9467   -0.0174 H   0  0  0  0  0  0  0  0  0  0  0  0
   13.3429    6.4859   -0.1374 H   0  0  0  0  0  0  0  0  0  0  0  0
   14.5797    7.7233   -0.4773 H   0  0  0  0  0  0  0  0  0  0  0  0
   15.3148    7.4279    5.6035 H   0  0  0  0  0  0  0  0  0  0  0  0
   15.7863    6.1818    4.3988 H   0  0  0  0  0  0  0  0  0  0  0  0
   17.7910    9.7772    4.3676 H   0  0  0  0  0  0  0  0  0  0  0  0
   16.2350    9.6686    5.2351 H   0  0  0  0  0  0  0  0  0  0  0  0
   16.2463    9.7092    3.4247 H   0  0  0  0  0  0  0  0  0  0  0  0
  1  2  1  0  0  0  0
  1 31  1  0  0  0  0
  1 32  1  0  0  0  0
  1 33  1  0  0  0  0
  2  3  1  0  0  0  0
  3  4  1  0  0  0  0
  3 34  1  0  0  0  0
  3 35  1  0  0  0  0
  4  5  1  0  0  0  0
  4 36  1  0  0  0  0
  4 37  1  0  0  0  0
  5  6  1  0  0  0  0
  6  7  2  0  0  0  0
  6  8  1  0  0  0  0
  8 13  1  0  0  0  0
  8  9  2  0  0  0  0
  9 10  1  0  0  0  0
  9 28  1  0  0  0  0
 10 11  1  0  0  0  0
 11 12  2  0  0  0  0
 11 27  1  0  0  0  0
 12 13  1  0  0  0  0
 12 23  1  0  0  0  0
 13 21  1  0  0  0  0
 13 14  1  0  0  0  0
 14 19  2  0  0  0  0
 14 15  1  0  0  0  0
 15 16  2  0  0  0  0
 15 38  1  0  0  0  0
 16 17  1  0  0  0  0
 16 39  1  0  0  0  0
 17 18  2  0  0  0  0
 17 40  1  0  0  0  0
 18 19  1  0  0  0  0
 18 41  1  0  0  0  0
 19 20  1  0  0  0  0
 20 21  1  0  0  0  0
 20 42  1  0  0  0  0
 21 22  2  0  0  0  0
 23 24  2  0  0  0  0
 23 25  1  0  0  0  0
 25 26  1  0  0  0  0
 26 43  1  0  0  0  0
 26 44  1  0  0  0  0
 26 45  1  0  0  0  0
 27 46  1  0  0  0  0
 27 47  1  0  0  0  0
 28 29  1  0  0  0  0
 28 48  1  0  0  0  0
 28 49  1  0  0  0  0
 29 30  1  0  0  0  0
 30 50  1  0  0  0  0
 30 51  1  0  0  0  0
 30 52  1  0  0  0  0
M  END
> <Name>
ZINC04474059

> <reference>
BDB4965

> <quality>
0.689

> <status>
decoy

> <atoms in reference ligand area>
10

> <score>
-8.49636

$$$$
ZINC26641275
      BALL 1.4.0 (Jan  4 2012, 23:22:29)

 60 60  0999  0  0  0  0  0  0999 V2000
   12.7225    5.5149   -3.2959 C   0  0  0  0  0  0  0  0  0  0  0  0
   11.8062    4.4372   -2.7130 C   0  0  0  0  0  0  0  0  0  0  0  0
   10.4122    5.0236   -2.4812 C   0  0  0  0  0  0  0  0  0  0  0  0
   11.7101    3.2654   -3.6922 C   0  0  0  0  0  0  0  0  0  0  0  0
   12.7328    2.1943   -3.3077 C   0  0  0  0  0  0  0  0  0  0  0  0
   14.0470    2.8162   -3.1273 N   0  0  0  0  0  0  0  0  0  0  0  0
   14.5835    2.9124   -1.8947 C   0  0  0  0  0  0  0  0  0  0  0  0
   15.1322    1.9504   -1.3940 O   0  0  0  0  0  0  0  0  0  0  0  0
   14.5114    4.0752   -1.2173 N   0  0  0  0  0  0  0  0  0  0  0  0
   14.6662    4.0859    0.1215 C   0  0  0  0  0  0  0  0  0  0  0  0
   14.8702    3.0494    0.7164 O   0  0  0  0  0  0  0  0  0  0  0  0
   14.5857    5.3862    0.8790 C   0  0  0  0  0  0  0  0  0  0  0  0
   14.6984    6.5553   -0.1014 C   0  0  0  0  0  0  0  0  0  0  0  0
   13.0019    5.4799    1.7501 S   0  0  0  0  0  0  0  0  0  0  0  0
   12.8286    7.2283    1.8830 C   0  0  0  0  0  0  0  0  0  0  0  0
   13.8022    8.1048    1.9695 N   0  0  0  0  0  0  0  0  0  0  0  0
   13.3153    9.2914    2.0524 N   0  0  0  0  0  0  0  0  0  0  0  0
   12.0135    9.2436    2.0240 C   0  0  0  0  0  0  0  0  0  0  0  0
   11.6566    7.9280    1.9151 N   0  0  0  0  0  0  0  0  0  0  0  0
   10.2987    7.3824    1.8474 C   0  0  0  0  0  0  0  0  0  0  0  0
    9.6158    7.5436    3.2070 C   0  0  0  0  0  0  0  0  0  0  0  0
   10.6674    7.8654    4.2708 C   0  0  0  0  0  0  0  0  0  0  0  0
    8.5981    8.6838    3.1347 C   0  0  0  0  0  0  0  0  0  0  0  0
   11.0750   10.4205    2.0968 C   0  0  0  0  0  0  0  0  0  0  0  0
   10.2173   10.4679    0.8307 C   0  0  0  0  0  0  0  0  0  0  0  0
   10.6282   11.6489   -0.0104 C   0  0  0  0  0  0  0  0  0  0  0  0
   11.2350   12.5703    0.4932 O   0  0  0  0  0  0  0  0  0  0  0  0
   10.3213   11.6810   -1.3224 N   0  0  0  0  0  0  0  0  0  0  0  0
   12.3108    5.8698   -4.2521 H   0  0  0  0  0  0  0  0  0  0  0  0
   13.7251    5.0943   -3.4627 H   0  0  0  0  0  0  0  0  0  0  0  0
   12.7920    6.3578   -2.5925 H   0  0  0  0  0  0  0  0  0  0  0  0
   12.2188    4.0831   -1.7568 H   0  0  0  0  0  0  0  0  0  0  0  0
   10.4450    6.1147   -2.6171 H   0  0  0  0  0  0  0  0  0  0  0  0
   10.0814    4.7920   -1.4580 H   0  0  0  0  0  0  0  0  0  0  0  0
    9.7053    4.5865   -3.2017 H   0  0  0  0  0  0  0  0  0  0  0  0
   10.6980    2.8363   -3.6524 H   0  0  0  0  0  0  0  0  0  0  0  0
   11.9181    3.6205   -4.7122 H   0  0  0  0  0  0  0  0  0  0  0  0
   12.4238    1.7124   -2.3684 H   0  0  0  0  0  0  0  0  0  0  0  0
   12.7918    1.4391   -4.1052 H   0  0  0  0  0  0  0  0  0  0  0  0
   14.5609    3.1799   -3.9425 H   0  0  0  0  0  0  0  0  0  0  0  0
   14.3381    4.9558   -1.7227 H   0  0  0  0  0  0  0  0  0  0  0  0
   15.4084    5.4378    1.6073 H   0  0  0  0  0  0  0  0  0  0  0  0
   15.7550    6.7170   -0.3610 H   0  0  0  0  0  0  0  0  0  0  0  0
   14.2922    7.4657    0.3637 H   0  0  0  0  0  0  0  0  0  0  0  0
   14.1287    6.3257   -1.0140 H   0  0  0  0  0  0  0  0  0  0  0  0
   10.3437    6.3151    1.5848 H   0  0  0  0  0  0  0  0  0  0  0  0
    9.7234    7.9242    1.0822 H   0  0  0  0  0  0  0  0  0  0  0  0
    9.1006    6.6085    3.4717 H   0  0  0  0  0  0  0  0  0  0  0  0
   11.6732    7.7289    3.8468 H   0  0  0  0  0  0  0  0  0  0  0  0
   10.5383    7.1920    5.1310 H   0  0  0  0  0  0  0  0  0  0  0  0
   10.5484    8.9077    4.6015 H   0  0  0  0  0  0  0  0  0  0  0  0
    9.0333    9.5935    3.5741 H   0  0  0  0  0  0  0  0  0  0  0  0
    7.6926    8.4044    3.6934 H   0  0  0  0  0  0  0  0  0  0  0  0
    8.3348    8.8751    2.0839 H   0  0  0  0  0  0  0  0  0  0  0  0
   10.4233   10.3161    2.9768 H   0  0  0  0  0  0  0  0  0  0  0  0
   11.6568   11.3503    2.1797 H   0  0  0  0  0  0  0  0  0  0  0  0
    9.1575   10.5671    1.1079 H   0  0  0  0  0  0  0  0  0  0  0  0
   10.3606    9.5411    0.2556 H   0  0  0  0  0  0  0  0  0  0  0  0
   10.4619   12.5463   -1.8633 H   0  0  0  0  0  0  0  0  0  0  0  0
    9.9459   10.8403   -1.7843 H   0  0  0  0  0  0  0  0  0  0  0  0
  1  2  1  0  0  0  0
  1 29  1  0  0  0  0
  1 30  1  0  0  0  0
  1 31  1  0  0  0  0
  2  3  1  0  0  0  0
  2  4  1  0  0  0  0
  2 32  1  0  0  0  0
  3 33  1  0  0  0  0
  3 34  1  0  0  0  0
  3 35  1  0  0  0  0
  4  5  1  0  0  0  0
  4 36  1  0  0  0  0
  4 37  1  0  0  0  0
  5  6  1  0  0  0  0
  5 38  1  0  0  0  0
  5 39  1  0  0  0  0
  6  7  1  0  0  0  0
  6 40  1  0  0  0  0
  7  8  2  0  0  0  0
  7  9  1  0  0  0  0
  9 10  1  0  0  0  0
  9 41  1  0  0  0  0
 10 11  2  0  0  0  0
 10 12  1  0  0  0  0
 12 13  1  0  0  0  0
 12 14  1  0  0  0  0
 12 42  1  0  0  0  0
 13 43  1  0  0  0  0
 13 44  1  0  0  0  0
 13 45  1  0  0  0  0
 14 15  1  0  0  0  0
 15 19  1  0  0  0  0
 15 16  2  0  0  0  0
 16 17  1  0  0  0  0
 17 18  2  0  0  0  0
 18 19  1  0  0  0  0
 18 24  1  0  0  0  0
 19 20  1  0  0  0  0
 20 21  1  0  0  0  0
 20 46  1  0  0  0  0
 20 47  1  0  0  0  0
 21 22  1  0  0  0  0
 21 23  1  0  0  0  0
 21 48  1  0  0  0  0
 22 49  1  0  0  0  0
 22 50  1  0  0  0  0
 22 51  1  0  0  0  0
 23 52  1  0  0  0  0
 23 53  1  0  0  0  0
 23 54  1  0  0  0  0
 24 25  1  0  0  0  0
 24 55  1  0  0  0  0
 24 56  1  0  0  0  0
 25 26  1  0  0  0  0
 25 57  1  0  0  0  0
 25 58  1  0  0  0  0
 26 27  2  0  0  0  0
 26 28  1  0  0  0  0
 28 59  1  0  0  0  0
 28 60  1  0  0  0  0
M  END
> <Name>
ZINC26641275

> <reference>
BDB4948

> <quality>
0.725

> <status>
decoy

> <atoms in reference ligand area>
10

> <score>
-8.35693

$$$$
ZINC06279516
      BALL 1.4.0 (Jan  4 2012, 23:22:29)

 38 39  0999  0  0  0  0  0  0999 V2000
    7.3828   11.7626   -0.0239 C   0  0  0  0  0  0  0  0  0  0  0  0
    8.4280   12.0266    0.9681 N   0  3  0  0  0  0  0  0  0  0  0  0
    8.3772   11.4483    2.1433 C   0  0  0  0  0  0  0  0  0  0  0  0
    7.2270   10.6130    2.5469 C   0  0  0  0  0  0  0  0  0  0  0  0
    7.4470    9.6530    3.5310 C   0  0  0  0  0  0  0  0  0  0  0  0
    8.7214    9.5482    4.1124 C   0  0  0  0  0  0  0  0  0  0  0  0
    9.7035   10.5115    3.8532 C   0  0  0  0  0  0  0  0  0  0  0  0
    9.4016   11.5912    3.0701 N   0  0  0  0  0  0  0  0  0  0  0  0
   10.9540   10.3771    4.3837 N   0  0  0  0  0  0  0  0  0  0  0  0
    9.0209    8.4439    4.9735 C   0  0  0  0  0  0  0  0  0  0  0  0
    9.2585    7.5679    5.6566 N   0  0  0  0  0  0  0  0  0  0  0  0
    6.3302    8.7419    3.9713 C   0  0  0  0  0  0  0  0  0  0  0  0
    5.9184    9.0961    5.3394 C   0  0  0  0  0  0  0  0  0  0  0  0
    5.6007    9.3695    6.3953 N   0  0  0  0  0  0  0  0  0  0  0  0
    5.9371   10.7836    1.9490 C   0  0  0  0  0  0  0  0  0  0  0  0
    4.9138   10.9190    1.4748 N   0  0  0  0  0  0  0  0  0  0  0  0
    9.5298   12.9370    0.6466 C   0  0  0  0  0  0  0  0  0  0  0  0
    9.0565   13.9853   -0.3738 C   0  0  0  0  0  0  0  0  0  0  0  0
   10.2745   14.7414   -0.9573 C   0  0  0  0  0  0  0  0  0  0  0  0
   11.6226   13.4974   -0.8261 S   0  0  0  0  0  0  0  0  0  0  0  0
   12.6224   13.9904    0.0553 O   0  0  0  0  0  0  0  0  0  0  0  0
   11.9884   13.0726   -2.1318 O   0  0  0  0  0  0  0  0  0  0  0  0
   10.7031   12.1378    0.0110 C   0  0  0  0  0  0  0  0  0  0  0  0
    7.8028   12.1016   -0.9824 H   0  0  0  0  0  0  0  0  0  0  0  0
    6.5610   12.4466    0.2342 H   0  0  0  0  0  0  0  0  0  0  0  0
    7.0585   10.7120   -0.0570 H   0  0  0  0  0  0  0  0  0  0  0  0
    9.9156   12.4788    3.1643 H   0  0  0  0  0  0  0  0  0  0  0  0
   11.7135   10.9981    4.0700 H   0  0  0  0  0  0  0  0  0  0  0  0
   11.1381    9.6564    5.0961 H   0  0  0  0  0  0  0  0  0  0  0  0
    5.4740    8.8555    3.2902 H   0  0  0  0  0  0  0  0  0  0  0  0
    6.6778    7.6984    3.9524 H   0  0  0  0  0  0  0  0  0  0  0  0
    9.8617   13.4293    1.5727 H   0  0  0  0  0  0  0  0  0  0  0  0
    8.3853   14.7023    0.1217 H   0  0  0  0  0  0  0  0  0  0  0  0
    8.5138   13.4836   -1.1885 H   0  0  0  0  0  0  0  0  0  0  0  0
   10.1017   14.9950   -2.0136 H   0  0  0  0  0  0  0  0  0  0  0  0
   10.5161   15.6201   -0.3413 H   0  0  0  0  0  0  0  0  0  0  0  0
   11.3331   11.6825    0.7893 H   0  0  0  0  0  0  0  0  0  0  0  0
   10.3304   11.4216   -0.7360 H   0  0  0  0  0  0  0  0  0  0  0  0
  1  2  1  0  0  0  0
  1 24  1  0  0  0  0
  1 25  1  0  0  0  0
  1 26  1  0  0  0  0
  2  3  2  0  0  0  0
  2 17  1  0  0  0  0
  3  8  1  0  0  0  0
  3  4  1  0  0  0  0
  4  5  2  0  0  0  0
  4 15  1  0  0  0  0
  5  6  1  0  0  0  0
  5 12  1  0  0  0  0
  6  7  2  0  0  0  0
  6 10  1  0  0  0  0
  7  8  1  0  0  0  0
  7  9  1  0  0  0  0
  8 27  1  0  0  0  0
  9 28  1  0  0  0  0
  9 29  1  0  0  0  0
 10 11  3  0  0  0  0
 12 13  1  0  0  0  0
 12 30  1  0  0  0  0
 12 31  1  0  0  0  0
 13 14  3  0  0  0  0
 15 16  3  0  0  0  0
 17 23  1  0  0  0  0
 17 18  1  0  0  0  0
 17 32  1  0  0  0  0
 18 19  1  0  0  0  0
 18 33  1  0  0  0  0
 18 34  1  0  0  0  0
 19 20  1  0  0  0  0
 19 35  1  0  0  0  0
 19 36  1  0  0  0  0
 20 21  2  0  0  0  0
 20 22  2  0  0  0  0
 20 23  1  0  0  0  0
 23 37  1  0  0  0  0
 23 38  1  0  0  0  0
M  END
> <Name>
ZINC06279516

> <reference>
BDB4977

> <quality>
0.707

> <status>
decoy

> <atoms in reference ligand area>
25

> <score>
1e+10

$$$$
ZINC25187303
      BALL 1.4.0 (Jan  4 2012, 23:22:29)

 58 59  0999  0  0  0  0  0  0999 V2000
    5.2130    7.8125    1.9176 C   0  0  0  0  0  0  0  0  0  0  0  0
    6.0461    8.8669    1.1860 C   0  0  0  0  0  0  0  0  0  0  0  0
    7.2177    9.2666    2.0455 C   0  0  0  0  0  0  0  0  0  0  0  0
    7.4409    8.6741    3.0800 O   0  0  0  0  0  0  0  0  0  0  0  0
    8.0174   10.2824    1.6646 N   0  0  0  0  0  0  0  0  0  0  0  0
    7.5215   11.3256    0.7566 C   0  0  0  0  0  0  0  0  0  0  0  0
    8.4806   11.4409   -0.4323 C   0  0  0  0  0  0  0  0  0  0  0  0
    9.9012   11.6812    0.0839 C   0  0  0  0  0  0  0  0  0  0  0  0
   10.3395   10.4939    0.9455 C   0  0  0  0  0  0  0  0  0  0  0  0
    9.4015   10.3678    2.1501 C   0  0  0  0  0  0  0  0  0  0  0  0
    9.7421    9.1225    2.9274 C   0  0  0  0  0  0  0  0  0  0  0  0
   10.0798    8.1155    2.3418 O   0  0  0  0  0  0  0  0  0  0  0  0
    9.6714    9.1278    4.2733 N   0  0  0  0  0  0  0  0  0  0  0  0
   10.0025    7.9171    5.0289 C   0  0  0  0  0  0  0  0  0  0  0  0
   10.3301    8.2925    6.4755 C   0  0  0  0  0  0  0  0  0  0  0  0
    9.7276    7.2516    7.4213 C   0  0  0  0  0  0  0  0  0  0  0  0
    9.8344    7.7426    8.8422 C   0  0  0  0  0  0  0  0  0  0  0  0
   10.5978    7.2071    9.6106 O   0  0  0  0  0  0  0  0  0  0  0  0
    9.0816    8.7747    9.2540 O   0  0  0  0  0  0  0  0  0  0  0  0
    9.0666    9.0525   10.6791 C   0  0  0  0  0  0  0  0  0  0  0  0
    9.9273   12.9046    0.8894 N   0  0  0  0  0  0  0  0  0  0  0  0
    9.6760   14.0966    0.3130 C   0  0  0  0  0  0  0  0  0  0  0  0
    9.4278   14.1566   -0.8751 O   0  0  0  0  0  0  0  0  0  0  0  0
    9.7026   15.3338    1.1275 C   0  0  0  0  0  0  0  0  0  0  0  0
    9.7731   15.2740    2.5226 C   0  0  0  0  0  0  0  0  0  0  0  0
    9.8007   16.4526    3.2430 C   0  0  0  0  0  0  0  0  0  0  0  0
    9.7510   17.6199    2.6329 N   0  0  0  0  0  0  0  0  0  0  0  0
    9.6784   17.7209    1.3207 C   0  0  0  0  0  0  0  0  0  0  0  0
    9.6518   16.5934    0.5229 C   0  0  0  0  0  0  0  0  0  0  0  0
    5.2364   10.0141    0.9211 O   0  0  0  0  0  0  0  0  0  0  0  0
    5.8660    7.2179    2.5733 H   0  0  0  0  0  0  0  0  0  0  0  0
    4.7309    7.1504    1.1832 H   0  0  0  0  0  0  0  0  0  0  0  0
    4.4412    8.3097    2.5236 H   0  0  0  0  0  0  0  0  0  0  0  0
    6.4132    8.4501    0.2366 H   0  0  0  0  0  0  0  0  0  0  0  0
    6.5188   11.0536    0.3951 H   0  0  0  0  0  0  0  0  0  0  0  0
    7.4775   12.2878    1.2879 H   0  0  0  0  0  0  0  0  0  0  0  0
    8.1757   12.2831   -1.0708 H   0  0  0  0  0  0  0  0  0  0  0  0
    8.4556   10.5089   -1.0160 H   0  0  0  0  0  0  0  0  0  0  0  0
   10.5877   11.7882   -0.7689 H   0  0  0  0  0  0  0  0  0  0  0  0
   11.3689   10.6553    1.2983 H   0  0  0  0  0  0  0  0  0  0  0  0
   10.2955    9.5711    0.3486 H   0  0  0  0  0  0  0  0  0  0  0  0
    9.5147   11.2435    2.8060 H   0  0  0  0  0  0  0  0  0  0  0  0
    9.3847    9.9829    4.7706 H   0  0  0  0  0  0  0  0  0  0  0  0
    9.1440    7.2294    5.0145 H   0  0  0  0  0  0  0  0  0  0  0  0
   10.8740    7.4253    4.5722 H   0  0  0  0  0  0  0  0  0  0  0  0
   11.4216    8.3203    6.6091 H   0  0  0  0  0  0  0  0  0  0  0  0
    9.9074    9.2821    6.7035 H   0  0  0  0  0  0  0  0  0  0  0  0
   10.2744    6.3025    7.3200 H   0  0  0  0  0  0  0  0  0  0  0  0
    8.6691    7.0940    7.1670 H   0  0  0  0  0  0  0  0  0  0  0  0
    9.7959    9.8591   10.8454 H   0  0  0  0  0  0  0  0  0  0  0  0
    9.4451    8.1468   11.1754 H   0  0  0  0  0  0  0  0  0  0  0  0
    8.0670    9.3281   11.0464 H   0  0  0  0  0  0  0  0  0  0  0  0
   10.1377   12.8537    1.8964 H   0  0  0  0  0  0  0  0  0  0  0  0
    9.8060   14.3032    3.0389 H   0  0  0  0  0  0  0  0  0  0  0  0
    9.8651   16.4162    4.3405 H   0  0  0  0  0  0  0  0  0  0  0  0
    9.6385   18.7164    0.8545 H   0  0  0  0  0  0  0  0  0  0  0  0
    9.5916   16.6852   -0.5717 H   0  0  0  0  0  0  0  0  0  0  0  0
    4.2901    9.8052    1.1234 H   0  0  0  0  0  0  0  0  0  0  0  0
  1  2  1  0  0  0  0
  1 31  1  0  0  0  0
  1 32  1  0  0  0  0
  1 33  1  0  0  0  0
  2  3  1  0  0  0  0
  2 30  1  0  0  0  0
  2 34  1  0  0  0  0
  3  4  2  0  0  0  0
  3  5  1  0  0  0  0
  5 10  1  0  0  0  0
  5  6  1  0  0  0  0
  6  7  1  0  0  0  0
  6 35  1  0  0  0  0
  6 36  1  0  0  0  0
  7  8  1  0  0  0  0
  7 37  1  0  0  0  0
  7 38  1  0  0  0  0
  8  9  1  0  0  0  0
  8 21  1  0  0  0  0
  8 39  1  0  0  0  0
  9 10  1  0  0  0  0
  9 40  1  0  0  0  0
  9 41  1  0  0  0  0
 10 11  1  0  0  0  0
 10 42  1  0  0  0  0
 11 12  2  0  0  0  0
 11 13  1  0  0  0  0
 13 14  1  0  0  0  0
 13 43  1  0  0  0  0
 14 15  1  0  0  0  0
 14 44  1  0  0  0  0
 14 45  1  0  0  0  0
 15 16  1  0  0  0  0
 15 46  1  0  0  0  0
 15 47  1  0  0  0  0
 16 17  1  0  0  0  0
 16 48  1  0  0  0  0
 16 49  1  0  0  0  0
 17 18  2  0  0  0  0
 17 19  1  0  0  0  0
 19 20  1  0  0  0  0
 20 50  1  0  0  0  0
 20 51  1  0  0  0  0
 20 52  1  0  0  0  0
 21 22  1  0  0  0  0
 21 53  1  0  0  0  0
 22 23  2  0  0  0  0
 22 24  1  0  0  0  0
 24 29  2  0  0  0  0
 24 25  1  0  0  0  0
 25 26  2  0  0  0  0
 25 54  1  0  0  0  0
 26 27  1  0  0  0  0
 26 55  1  0  0  0  0
 27 28  2  0  0  0  0
 28 29  1  0  0  0  0
 28 56  1  0  0  0  0
 29 57  1  0  0  0  0
 30 58  1  0  0  0  0
M  END
> <Name>
ZINC25187303

> <reference>
BDB4965

> <quality>
0.663

> <status>
decoy

> <atoms in reference ligand area>
17

> <score>
1e+10

$$$$
ZINC05885721
      BALL 1.4.0 (Jan  4 2012, 23:22:29)

 52 53  0999  0  0  0  0  0  0999 V2000
   19.9129   10.3527   12.1276 C   0  0  0  0  0  0  0  0  0  0  0  0
   18.6222   10.1995   11.4430 N   0  3  0  0  0  0  0  0  0  0  0  0
   18.4127   11.3338   10.5334 C   0  0  0  0  0  0  0  0  0  0  0  0
   18.6216    8.9481   10.6736 C   0  0  0  0  0  0  0  0  0  0  0  0
   17.3887    8.9066    9.7685 C   0  0  0  0  0  0  0  0  0  0  0  0
   17.7269    9.5382    8.4166 C   0  0  0  0  0  0  0  0  0  0  0  0
   16.4978    9.7165    7.6397 N   0  0  0  0  0  0  0  0  0  0  0  0
   16.5189   10.4369    6.5008 C   0  0  0  0  0  0  0  0  0  0  0  0
   17.5590   10.9392    6.1179 O   0  0  0  0  0  0  0  0  0  0  0  0
   15.2872   10.6156    5.7222 C   0  0  0  0  0  0  0  0  0  0  0  0
   14.8564   11.9441    5.2804 C   0  0  0  0  0  0  0  0  0  0  0  0
   15.5184   12.9344    5.5492 O   0  0  0  0  0  0  0  0  0  0  0  0
   13.6507   12.0583    4.5307 C   0  0  0  0  0  0  0  0  0  0  0  0
   12.9454   10.9553    4.2374 C   0  0  0  0  0  0  0  0  0  0  0  0
   13.3614    9.7217    4.6603 N   0  0  0  0  0  0  0  0  0  0  0  0
   14.4875    9.5272    5.3786 C   0  0  0  0  0  0  0  0  0  0  0  0
   14.8375    8.2834    5.7631 O   0  0  0  0  0  0  0  0  0  0  0  0
   11.6723   10.9987    3.4278 C   0  0  0  0  0  0  0  0  0  0  0  0
   11.0937   12.4109    3.4020 C   0  0  0  0  0  0  0  0  0  0  0  0
   12.2069   13.3774    2.9787 C   0  0  0  0  0  0  0  0  0  0  0  0
   13.2334   13.4422    4.1073 C   0  0  0  0  0  0  0  0  0  0  0  0
   17.5417   10.1633   12.4376 C   0  0  0  0  0  0  0  0  0  0  0  0
   17.5423   11.4470   13.2270 C   0  0  0  0  0  0  0  0  0  0  0  0
   16.4105   11.9669   13.6328 C   0  0  0  0  0  0  0  0  0  0  0  0
   20.6181    9.5942   11.7568 H   0  0  0  0  0  0  0  0  0  0  0  0
   19.7723   10.2232   13.2109 H   0  0  0  0  0  0  0  0  0  0  0  0
   20.3174   11.3562   11.9288 H   0  0  0  0  0  0  0  0  0  0  0  0
   17.3355   11.5360   10.4399 H   0  0  0  0  0  0  0  0  0  0  0  0
   18.8271   11.0926    9.5434 H   0  0  0  0  0  0  0  0  0  0  0  0
   18.9184   12.2246   10.9344 H   0  0  0  0  0  0  0  0  0  0  0  0
   19.5307    8.8964   10.0564 H   0  0  0  0  0  0  0  0  0  0  0  0
   18.5978    8.0920   11.3637 H   0  0  0  0  0  0  0  0  0  0  0  0
   17.0796    7.8618    9.6174 H   0  0  0  0  0  0  0  0  0  0  0  0
   16.5679    9.4675   10.2393 H   0  0  0  0  0  0  0  0  0  0  0  0
   18.2034   10.5164    8.5776 H   0  0  0  0  0  0  0  0  0  0  0  0
   18.4158    8.8810    7.8658 H   0  0  0  0  0  0  0  0  0  0  0  0
   15.6174    9.2913    7.9639 H   0  0  0  0  0  0  0  0  0  0  0  0
   12.7869    8.9016    4.4187 H   0  0  0  0  0  0  0  0  0  0  0  0
   14.4571    8.1819    6.6715 H   0  0  0  0  0  0  0  0  0  0  0  0
   10.9352   10.3130    3.8709 H   0  0  0  0  0  0  0  0  0  0  0  0
   11.8852   10.6751    2.3983 H   0  0  0  0  0  0  0  0  0  0  0  0
   10.2677   12.4590    2.6772 H   0  0  0  0  0  0  0  0  0  0  0  0
   10.7316   12.6817    4.4048 H   0  0  0  0  0  0  0  0  0  0  0  0
   11.7838   14.3780    2.8064 H   0  0  0  0  0  0  0  0  0  0  0  0
   12.6890   13.0078    2.0616 H   0  0  0  0  0  0  0  0  0  0  0  0
   14.1168   13.9996    3.7625 H   0  0  0  0  0  0  0  0  0  0  0  0
   12.7940   13.9683    4.9676 H   0  0  0  0  0  0  0  0  0  0  0  0
   17.6976    9.3144   13.1194 H   0  0  0  0  0  0  0  0  0  0  0  0
   16.5751   10.0492   11.9250 H   0  0  0  0  0  0  0  0  0  0  0  0
   18.4931   11.9474   13.4623 H   0  0  0  0  0  0  0  0  0  0  0  0
   15.4596   11.4665   13.3975 H   0  0  0  0  0  0  0  0  0  0  0  0
   16.4110   12.9040   14.2090 H   0  0  0  0  0  0  0  0  0  0  0  0
  1  2  1  0  0  0  0
  1 25  1  0  0  0  0
  1 26  1  0  0  0  0
  1 27  1  0  0  0  0
  2  3  1  0  0  0  0
  2  4  1  0  0  0  0
  2 22  1  0  0  0  0
  3 28  1  0  0  0  0
  3 29  1  0  0  0  0
  3 30  1  0  0  0  0
  4  5  1  0  0  0  0
  4 31  1  0  0  0  0
  4 32  1  0  0  0  0
  5  6  1  0  0  0  0
  5 33  1  0  0  0  0
  5 34  1  0  0  0  0
  6  7  1  0  0  0  0
  6 35  1  0  0  0  0
  6 36  1  0  0  0  0
  7  8  1  0  0  0  0
  7 37  1  0  0  0  0
  8  9  2  0  0  0  0
  8 10  1  0  0  0  0
 10 16  2  0  0  0  0
 10 11  1  0  0  0  0
 11 12  2  0  0  0  0
 11 13  1  0  0  0  0
 13 21  1  0  0  0  0
 13 14  2  0  0  0  0
 14 15  1  0  0  0  0
 14 18  1  0  0  0  0
 15 16  1  0  0  0  0
 15 38  1  0  0  0  0
 16 17  1  0  0  0  0
 17 39  1  0  0  0  0
 18 19  1  0  0  0  0
 18 40  1  0  0  0  0
 18 41  1  0  0  0  0
 19 20  1  0  0  0  0
 19 42  1  0  0  0  0
 19 43  1  0  0  0  0
 20 21  1  0  0  0  0
 20 44  1  0  0  0  0
 20 45  1  0  0  0  0
 21 46  1  0  0  0  0
 21 47  1  0  0  0  0
 22 23  1  0  0  0  0
 22 48  1  0  0  0  0
 22 49  1  0  0  0  0
 23 24  2  0  0  0  0
 23 50  1  0  0  0  0
 24 51  1  0  0  0  0
 24 52  1  0  0  0  0
M  END
> <Name>
ZINC05885721

> <reference>
BDB4934

> <quality>
0.727

> <status>
decoy

> <atoms in reference ligand area>
8

> <score>
2e+10

$$$$
ZINC19848804
      BALL 1.4.0 (Jan  4 2012, 23:22:29)

 60 62  0999  0  0  0  0  0  0999 V2000
   12.7002   13.4400   -0.2202 C   0  0  0  0  0  0  0  0  0  0  0  0
   13.2471   13.2016    1.1887 C   0  0  0  0  0  0  0  0  0  0  0  0
   12.3851   12.1570    1.9005 C   0  0  0  0  0  0  0  0  0  0  0  0
   12.3947   12.4280    3.4063 C   0  0  0  0  0  0  0  0  0  0  0  0
   11.5693   11.4277    4.0877 N   0  0  0  0  0  0  0  0  0  0  0  0
   12.0619   10.2680    4.5380 C   0  0  0  0  0  0  0  0  0  0  0  0
   13.2168    9.9124    4.4406 O   0  0  0  0  0  0  0  0  0  0  0  0
   10.9533    9.4698    5.1863 C   0  0  0  0  0  0  0  0  0  0  0  0
   10.6433    8.2330    4.3174 C   0  0  0  0  0  0  0  0  0  0  0  0
    9.6606    8.7144    3.3131 N   0  3  0  0  0  0  0  0  0  0  0  0
    8.7679    9.6191    4.0814 C   0  0  0  0  0  0  0  0  0  0  0  0
    9.7114   10.3879    5.0296 C   0  0  0  0  0  0  0  0  0  0  0  0
   10.2610   11.5992    4.3103 C   0  0  0  0  0  0  0  0  0  0  0  0
    9.6168   12.5736    3.9860 O   0  0  0  0  0  0  0  0  0  0  0  0
    8.0530   10.5893    3.1387 C   0  0  0  0  0  0  0  0  0  0  0  0
    7.2194    9.7982    2.1288 C   0  0  0  0  0  0  0  0  0  0  0  0
    5.8236   10.4160    2.0244 C   0  0  0  0  0  0  0  0  0  0  0  0
    7.9003    9.8424    0.7594 C   0  0  0  0  0  0  0  0  0  0  0  0
    7.7634    8.8198    4.8707 C   0  0  0  0  0  0  0  0  0  0  0  0
    6.9178    8.1758    4.2960 O   0  0  0  0  0  0  0  0  0  0  0  0
    7.8080    8.8231    6.2123 O   0  5  0  0  0  0  0  0  0  0  0  0
   11.8946    7.7439    3.6348 C   0  0  0  0  0  0  0  0  0  0  0  0
   12.3300    8.3522    2.4728 C   0  0  0  0  0  0  0  0  0  0  0  0
   13.4771    7.9063    1.8450 C   0  0  0  0  0  0  0  0  0  0  0  0
   14.1951    6.8460    2.3803 C   0  0  0  0  0  0  0  0  0  0  0  0
   13.7605    6.2343    3.5457 C   0  0  0  0  0  0  0  0  0  0  0  0
   12.6118    6.6870    4.1767 C   0  0  0  0  0  0  0  0  0  0  0  0
   12.1862    6.0930    5.3226 O   0  0  0  0  0  0  0  0  0  0  0  0
   15.3231    6.4076    1.7619 O   0  0  0  0  0  0  0  0  0  0  0  0
   16.3877    7.3488    1.6109 C   0  0  0  0  0  0  0  0  0  0  0  0
   12.3867   12.4817   -0.6600 H   0  0  0  0  0  0  0  0  0  0  0  0
   13.4832   13.8916   -0.8471 H   0  0  0  0  0  0  0  0  0  0  0  0
   11.8361   14.1187   -0.1689 H   0  0  0  0  0  0  0  0  0  0  0  0
   14.2833   12.8383    1.1233 H   0  0  0  0  0  0  0  0  0  0  0  0
   13.2240   14.1435    1.7564 H   0  0  0  0  0  0  0  0  0  0  0  0
   11.3530   12.2153    1.5246 H   0  0  0  0  0  0  0  0  0  0  0  0
   12.7897   11.1526    1.7069 H   0  0  0  0  0  0  0  0  0  0  0  0
   13.4266   12.3695    3.7829 H   0  0  0  0  0  0  0  0  0  0  0  0
   11.9893   13.4317    3.6020 H   0  0  0  0  0  0  0  0  0  0  0  0
   11.2053    9.1708    6.2145 H   0  0  0  0  0  0  0  0  0  0  0  0
   10.2553    7.3923    4.9113 H   0  0  0  0  0  0  0  0  0  0  0  0
    9.1216    7.9224    2.9348 H   0  0  0  0  0  0  0  0  0  0  0  0
   10.1418    9.2394    2.5690 H   0  0  0  0  0  0  0  0  0  0  0  0
    9.1921   10.6596    5.9605 H   0  0  0  0  0  0  0  0  0  0  0  0
    8.7972   11.1969    2.6028 H   0  0  0  0  0  0  0  0  0  0  0  0
    7.3931   11.2483    3.7219 H   0  0  0  0  0  0  0  0  0  0  0  0
    7.1340    8.7535    2.4624 H   0  0  0  0  0  0  0  0  0  0  0  0
    5.9125   11.5010    1.8667 H   0  0  0  0  0  0  0  0  0  0  0  0
    5.2667   10.2256    2.9537 H   0  0  0  0  0  0  0  0  0  0  0  0
    5.2853    9.9664    1.1770 H   0  0  0  0  0  0  0  0  0  0  0  0
    8.9068   10.2739    0.8630 H   0  0  0  0  0  0  0  0  0  0  0  0
    7.3052   10.4622    0.0727 H   0  0  0  0  0  0  0  0  0  0  0  0
    7.9797    8.8223    0.3555 H   0  0  0  0  0  0  0  0  0  0  0  0
   11.7623    9.1927    2.0469 H   0  0  0  0  0  0  0  0  0  0  0  0
   13.8216    8.3920    0.9201 H   0  0  0  0  0  0  0  0  0  0  0  0
   14.3259    5.3912    3.9693 H   0  0  0  0  0  0  0  0  0  0  0  0
   11.2601    5.8011    5.1295 H   0  0  0  0  0  0  0  0  0  0  0  0
   15.9281    8.3467    1.6646 H   0  0  0  0  0  0  0  0  0  0  0  0
   16.7791    7.2120    0.5920 H   0  0  0  0  0  0  0  0  0  0  0  0
   17.1761    7.2245    2.3679 H   0  0  0  0  0  0  0  0  0  0  0  0
  1  2  1  0  0  0  0
  1 31  1  0  0  0  0
  1 32  1  0  0  0  0
  1 33  1  0  0  0  0
  2  3  1  0  0  0  0
  2 34  1  0  0  0  0
  2 35  1  0  0  0  0
  3  4  1  0  0  0  0
  3 36  1  0  0  0  0
  3 37  1  0  0  0  0
  4  5  1  0  0  0  0
  4 38  1  0  0  0  0
  4 39  1  0  0  0  0
  5 13  1  0  0  0  0
  5  6  1  0  0  0  0
  6  7  2  0  0  0  0
  6  8  1  0  0  0  0
  8 12  1  0  0  0  0
  8  9  1  0  0  0  0
  8 40  1  0  0  0  0
  9 10  1  0  0  0  0
  9 22  1  0  0  0  0
  9 41  1  0  0  0  0
 10 11  1  0  0  0  0
 10 42  1  0  0  0  0
 10 43  1  0  0  0  0
 11 12  1  0  0  0  0
 11 15  1  0  0  0  0
 11 19  1  0  0  0  0
 12 13  1  0  0  0  0
 12 44  1  0  0  0  0
 13 14  2  0  0  0  0
 15 16  1  0  0  0  0
 15 45  1  0  0  0  0
 15 46  1  0  0  0  0
 16 17  1  0  0  0  0
 16 18  1  0  0  0  0
 16 47  1  0  0  0  0
 17 48  1  0  0  0  0
 17 49  1  0  0  0  0
 17 50  1  0  0  0  0
 18 51  1  0  0  0  0
 18 52  1  0  0  0  0
 18 53  1  0  0  0  0
 19 20  2  0  0  0  0
 19 21  1  0  0  0  0
 22 27  2  0  0  0  0
 22 23  1  0  0  0  0
 23 24  2  0  0  0  0
 23 54  1  0  0  0  0
 24 25  1  0  0  0  0
 24 55  1  0  0  0  0
 25 26  2  0  0  0  0
 25 29  1  0  0  0  0
 26 27  1  0  0  0  0
 26 56  1  0  0  0  0
 27 28  1  0  0  0  0
 28 57  1  0  0  0  0
 29 30  1  0  0  0  0
 30 58  1  0  0  0  0
 30 59  1  0  0  0  0
 30 60  1  0  0  0  0
M  END
> <Name>
ZINC19848804

> <reference>
BDB4965

> <quality>
0.672

> <status>
decoy

> <atoms in reference ligand area>
12

> <score>
2e+10

$$$$
ZINC21038636
      BALL 1.4.0 (Jan  4 2012, 23:22:29)

 35 37  0999  0  0  0  0  0  0999 V2000
   22.0754   13.9104  -10.7244 C   0  0  0  0  0  0  0  0  0  0  0  0
   22.1894   12.5605  -10.4433 C   0  0  0  0  0  0  0  0  0  0  0  0
   21.1639   11.9456   -9.7133 C   0  0  0  0  0  0  0  0  0  0  0  0
   20.0795   12.7191   -9.2914 C   0  0  0  0  0  0  0  0  0  0  0  0
   20.0204   14.0022   -9.5800 N   0  0  0  0  0  0  0  0  0  0  0  0
   20.9691   14.6058  -10.2706 C   0  0  0  0  0  0  0  0  0  0  0  0
   21.2308   10.5085   -9.3906 C   0  0  0  0  0  0  0  0  0  0  0  0
   22.3835    9.9302   -9.2384 N   0  0  0  0  0  0  0  0  0  0  0  0
   22.4471    8.5647   -8.9319 N   0  0  0  0  0  0  0  0  0  0  0  0
   21.3007    7.7855   -8.9944 C   0  0  0  0  0  0  0  0  0  0  0  0
   21.1140    6.6932   -9.7954 N   0  0  0  0  0  0  0  0  0  0  0  0
   19.8589    6.2079   -9.5618 C   0  0  0  0  0  0  0  0  0  0  0  0
   19.2908    6.9709   -8.6587 N   0  0  0  0  0  0  0  0  0  0  0  0
   20.2066    7.9669   -8.2953 N   0  0  0  0  0  0  0  0  0  0  0  0
   19.1283    4.8072  -10.3421 S   0  0  0  0  0  0  0  0  0  0  0  0
   17.6105    4.5175   -9.3919 C   0  0  0  0  0  0  0  0  0  0  0  0
   16.4337    5.0925  -10.1375 C   0  0  0  0  0  0  0  0  0  0  0  0
   16.5177    5.3106  -11.3275 O   0  0  0  0  0  0  0  0  0  0  0  0
   15.2881    5.3643   -9.4816 N   0  0  0  0  0  0  0  0  0  0  0  0
   14.2028    5.8946  -10.1693 C   0  0  0  0  0  0  0  0  0  0  0  0
   13.8932    5.6850  -11.4813 N   0  0  0  0  0  0  0  0  0  0  0  0
   12.7535    6.4007  -11.7124 C   0  0  0  0  0  0  0  0  0  0  0  0
   12.4300    6.9869  -10.5937 N   0  0  0  0  0  0  0  0  0  0  0  0
   13.2832    6.6909   -9.6791 N   0  5  0  0  0  0  0  0  0  0  0  0
   22.8566   14.4254  -11.3029 H   0  0  0  0  0  0  0  0  0  0  0  0
   23.0626   11.9849  -10.7842 H   0  0  0  0  0  0  0  0  0  0  0  0
   19.2684   12.2521   -8.7135 H   0  0  0  0  0  0  0  0  0  0  0  0
   20.8786   15.6801  -10.4890 H   0  0  0  0  0  0  0  0  0  0  0  0
   20.3042    9.9262   -9.2787 H   0  0  0  0  0  0  0  0  0  0  0  0
   23.3448    8.1392   -8.6602 H   0  0  0  0  0  0  0  0  0  0  0  0
   20.0482    8.7110   -7.6009 H   0  0  0  0  0  0  0  0  0  0  0  0
   17.6937    5.0036   -8.4087 H   0  0  0  0  0  0  0  0  0  0  0  0
   17.4643    3.4359   -9.2551 H   0  0  0  0  0  0  0  0  0  0  0  0
   15.2169    5.1791   -8.4709 H   0  0  0  0  0  0  0  0  0  0  0  0
   12.2093    6.4700  -12.6658 H   0  0  0  0  0  0  0  0  0  0  0  0
  1  6  2  0  0  0  0
  1  2  1  0  0  0  0
  1 25  1  0  0  0  0
  2  3  2  0  0  0  0
  2 26  1  0  0  0  0
  3  4  1  0  0  0  0
  3  7  1  0  0  0  0
  4  5  2  0  0  0  0
  4 27  1  0  0  0  0
  5  6  1  0  0  0  0
  6 28  1  0  0  0  0
  7  8  2  0  0  0  0
  7 29  1  0  0  0  0
  8  9  1  0  0  0  0
  9 10  1  0  0  0  0
  9 30  1  0  0  0  0
 10 14  1  0  0  0  0
 10 11  2  0  0  0  0
 11 12  1  0  0  0  0
 12 13  2  0  0  0  0
 12 15  1  0  0  0  0
 13 14  1  0  0  0  0
 14 31  1  0  0  0  0
 15 16  1  0  0  0  0
 16 17  1  0  0  0  0
 16 32  1  0  0  0  0
 16 33  1  0  0  0  0
 17 18  2  0  0  0  0
 17 19  1  0  0  0  0
 19 20  1  0  0  0  0
 19 34  1  0  0  0  0
 20 21  2  0  0  0  0
 20 24  1  0  0  0  0
 21 22  1  0  0  0  0
 22 23  2  0  0  0  0
 22 35  1  0  0  0  0
 23 24  1  0  0  0  0
M  END
> <Name>
ZINC21038636

> <reference>
BDB5244

> <quality>
0.692

> <status>
decoy

> <atoms in reference ligand area>
0

> <score>
1e+11

$$$$
ZINC19844140
      BALL 1.4.0 (Jan  4 2012, 23:22:29)

 46 47  0999  0  0  0  0  0  0999 V2000
   12.3920    4.1511  -11.0418 C   0  0  0  0  0  0  0  0  0  0  0  0
   13.2899    3.0394  -11.0409 O   0  0  0  0  0  0  0  0  0  0  0  0
   14.5945    3.2998  -11.3188 C   0  0  0  0  0  0  0  0  0  0  0  0
   15.1483    2.8707  -12.5172 C   0  0  0  0  0  0  0  0  0  0  0  0
   16.4743    3.1355  -12.8016 C   0  0  0  0  0  0  0  0  0  0  0  0
   17.2521    3.8318  -11.8966 C   0  0  0  0  0  0  0  0  0  0  0  0
   16.7046    4.2591  -10.6934 C   0  0  0  0  0  0  0  0  0  0  0  0
   15.3723    3.9944  -10.4063 C   0  0  0  0  0  0  0  0  0  0  0  0
   17.4918    4.9592   -9.7764 N   0  0  0  0  0  0  0  0  0  0  0  0
   18.8999    4.5490   -9.8698 C   0  0  0  0  0  0  0  0  0  0  0  0
   19.7132    5.2787   -8.7982 C   0  0  0  0  0  0  0  0  0  0  0  0
   19.5769    6.7297   -8.9869 N   0  3  0  0  0  0  0  0  0  0  0  0
   18.1689    7.1400   -8.8935 C   0  0  0  0  0  0  0  0  0  0  0  0
   17.3555    6.4103   -9.9651 C   0  0  0  0  0  0  0  0  0  0  0  0
   20.4049    7.4661   -8.0225 C   0  0  0  0  0  0  0  0  0  0  0  0
   20.2370    8.9698   -8.2496 C   0  0  0  0  0  0  0  0  0  0  0  0
   19.2562    9.5346   -7.2201 C   0  0  0  0  0  0  0  0  0  0  0  0
   19.2758   11.0403   -7.2811 C   0  0  0  0  0  0  0  0  0  0  0  0
   19.7250   11.6383   -8.3343 N   0  0  0  0  0  0  0  0  0  0  0  0
   19.7435   13.0531   -8.3916 O   0  0  0  0  0  0  0  0  0  0  0  0
   18.8149   11.7787   -6.2138 N   0  0  0  0  0  0  0  0  0  0  0  0
   11.7792    4.0530  -11.9500 H   0  0  0  0  0  0  0  0  0  0  0  0
   13.0146    5.0514  -11.1505 H   0  0  0  0  0  0  0  0  0  0  0  0
   11.7696    4.1960  -10.1359 H   0  0  0  0  0  0  0  0  0  0  0  0
   14.5308    2.3191  -13.2413 H   0  0  0  0  0  0  0  0  0  0  0  0
   16.9115    2.7912  -13.7505 H   0  0  0  0  0  0  0  0  0  0  0  0
   18.3053    4.0479  -12.1288 H   0  0  0  0  0  0  0  0  0  0  0  0
   14.9350    4.3353   -9.4562 H   0  0  0  0  0  0  0  0  0  0  0  0
   18.9771    3.4630   -9.7121 H   0  0  0  0  0  0  0  0  0  0  0  0
   19.2926    4.8047  -10.8649 H   0  0  0  0  0  0  0  0  0  0  0  0
   20.7728    4.9961   -8.8844 H   0  0  0  0  0  0  0  0  0  0  0  0
   19.3389    5.0020   -7.8015 H   0  0  0  0  0  0  0  0  0  0  0  0
   19.9133    6.9603   -9.9327 H   0  0  0  0  0  0  0  0  0  0  0  0
   18.0907    8.2260   -9.0508 H   0  0  0  0  0  0  0  0  0  0  0  0
   17.7770    6.8836   -7.8982 H   0  0  0  0  0  0  0  0  0  0  0  0
   16.2966    6.6949   -9.8782 H   0  0  0  0  0  0  0  0  0  0  0  0
   17.7301    6.6877  -10.9616 H   0  0  0  0  0  0  0  0  0  0  0  0
   20.0895    7.2128   -6.9997 H   0  0  0  0  0  0  0  0  0  0  0  0
   21.4612    7.1911   -8.1593 H   0  0  0  0  0  0  0  0  0  0  0  0
   21.2112    9.4684   -8.1392 H   0  0  0  0  0  0  0  0  0  0  0  0
   19.8467    9.1474   -9.2626 H   0  0  0  0  0  0  0  0  0  0  0  0
   19.5504    9.2053   -6.2126 H   0  0  0  0  0  0  0  0  0  0  0  0
   18.2416    9.1723   -7.4427 H   0  0  0  0  0  0  0  0  0  0  0  0
   19.9682   13.3470   -7.4733 H   0  0  0  0  0  0  0  0  0  0  0  0
   19.3117   12.6340   -5.9263 H   0  0  0  0  0  0  0  0  0  0  0  0
   17.9733   11.4758   -5.7031 H   0  0  0  0  0  0  0  0  0  0  0  0
  1  2  1  0  0  0  0
  1 22  1  0  0  0  0
  1 23  1  0  0  0  0
  1 24  1  0  0  0  0
  2  3  1  0  0  0  0
  3  8  2  0  0  0  0
  3  4  1  0  0  0  0
  4  5  2  0  0  0  0
  4 25  1  0  0  0  0
  5  6  1  0  0  0  0
  5 26  1  0  0  0  0
  6  7  2  0  0  0  0
  6 27  1  0  0  0  0
  7  8  1  0  0  0  0
  7  9  1  0  0  0  0
  8 28  1  0  0  0  0
  9 14  1  0  0  0  0
  9 10  1  0  0  0  0
 10 11  1  0  0  0  0
 10 29  1  0  0  0  0
 10 30  1  0  0  0  0
 11 12  1  0  0  0  0
 11 31  1  0  0  0  0
 11 32  1  0  0  0  0
 12 13  1  0  0  0  0
 12 15  1  0  0  0  0
 12 33  1  0  0  0  0
 13 14  1  0  0  0  0
 13 34  1  0  0  0  0
 13 35  1  0  0  0  0
 14 36  1  0  0  0  0
 14 37  1  0  0  0  0
 15 16  1  0  0  0  0
 15 38  1  0  0  0  0
 15 39  1  0  0  0  0
 16 17  1  0  0  0  0
 16 40  1  0  0  0  0
 16 41  1  0  0  0  0
 17 18  1  0  0  0  0
 17 42  1  0  0  0  0
 17 43  1  0  0  0  0
 18 19  2  0  0  0  0
 18 21  1  0  0  0  0
 19 20  1  0  0  0  0
 20 44  1  0  0  0  0
 21 45  1  0  0  0  0
 21 46  1  0  0  0  0
M  END
> <Name>
ZINC19844140

> <reference>
BDB5204

> <quality>
0.760

> <status>
decoy

> <atoms in reference ligand area>
0

> <score>
1e+11

$$$$
