ZINC31392821
      BALL 1.4.0 (Jan  4 2012, 23:22:29)

 50 52  0999  0  0  0  0  0  0999 V2000
  -32.0231   14.7131  -21.3505 C   0  0  0  0  0  0  0  0  0  0  0  0
  -31.7978   15.1241  -19.9582 N   0  3  0  0  0  0  0  0  0  0  0  0
  -31.2103   16.4690  -19.8949 C   0  0  0  0  0  0  0  0  0  0  0  0
  -32.3262   17.5151  -19.9284 C   0  0  0  0  0  0  0  0  0  0  0  0
  -31.7142   18.9159  -19.8624 C   0  0  0  0  0  0  0  0  0  0  0  0
  -32.7790   19.9061  -19.6535 N   0  0  0  0  0  0  0  0  0  0  0  0
  -32.4296   21.1821  -20.2566 N   0  0  0  0  0  0  0  0  0  0  0  0
  -30.9575   14.1487  -19.2508 C   0  0  0  0  0  0  0  0  0  0  0  0
  -31.7923   12.9150  -18.9012 C   0  0  0  0  0  0  0  0  0  0  0  0
  -30.8921   11.8347  -18.2710 C   0  0  0  0  0  0  0  0  0  0  0  0
  -31.0594   10.6101  -19.2034 C   0  0  0  0  0  0  0  0  0  0  0  0
  -32.4018   10.9228  -19.9123 C   0  0  0  0  0  0  0  0  0  0  0  0
  -32.3599   12.3542  -20.0969 O   0  0  0  0  0  0  0  0  0  0  0  0
  -32.4742   10.2378  -21.2053 N   0  0  0  0  0  0  0  0  0  0  0  0
  -33.5943    9.7130  -21.7785 C   0  0  0  0  0  0  0  0  0  0  0  0
  -33.2969    9.1775  -22.9267 N   0  0  0  0  0  0  0  0  0  0  0  0
  -31.9709    9.3240  -23.1627 C   0  0  0  0  0  0  0  0  0  0  0  0
  -31.4272   10.0062  -22.0610 C   0  0  0  0  0  0  0  0  0  0  0  0
  -30.1263   10.2769  -22.0469 N   0  0  0  0  0  0  0  0  0  0  0  0
  -29.3542    9.9129  -23.0493 C   0  0  0  0  0  0  0  0  0  0  0  0
  -29.8192    9.2701  -24.1048 N   0  0  0  0  0  0  0  0  0  0  0  0
  -31.1066    8.9560  -24.2075 C   0  0  0  0  0  0  0  0  0  0  0  0
  -31.5847    8.2826  -25.3179 N   0  0  0  0  0  0  0  0  0  0  0  0
  -31.1518    9.4017  -18.4465 O   0  0  0  0  0  0  0  0  0  0  0  0
  -31.3369   11.5215  -16.9496 O   0  0  0  0  0  0  0  0  0  0  0  0
  -32.4524   13.7004  -21.3572 H   0  0  0  0  0  0  0  0  0  0  0  0
  -31.0577   14.6983  -21.8775 H   0  0  0  0  0  0  0  0  0  0  0  0
  -32.7099   15.4144  -21.8469 H   0  0  0  0  0  0  0  0  0  0  0  0
  -32.7124   15.1556  -19.4855 H   0  0  0  0  0  0  0  0  0  0  0  0
  -30.6367   16.5753  -18.9623 H   0  0  0  0  0  0  0  0  0  0  0  0
  -30.5420   16.6193  -20.7556 H   0  0  0  0  0  0  0  0  0  0  0  0
  -32.8999   17.4098  -20.8610 H   0  0  0  0  0  0  0  0  0  0  0  0
  -32.9950   17.3671  -19.0676 H   0  0  0  0  0  0  0  0  0  0  0  0
  -30.9997   18.9651  -19.0275 H   0  0  0  0  0  0  0  0  0  0  0  0
  -31.1918   19.1338  -20.8055 H   0  0  0  0  0  0  0  0  0  0  0  0
  -32.9278   20.0384  -18.6429 H   0  0  0  0  0  0  0  0  0  0  0  0
  -32.7629   21.1921  -21.2311 H   0  0  0  0  0  0  0  0  0  0  0  0
  -31.4046   21.2838  -20.2500 H   0  0  0  0  0  0  0  0  0  0  0  0
  -30.5678   14.6006  -18.3269 H   0  0  0  0  0  0  0  0  0  0  0  0
  -30.1178   13.8516  -19.8962 H   0  0  0  0  0  0  0  0  0  0  0  0
  -32.5829   13.2216  -18.2006 H   0  0  0  0  0  0  0  0  0  0  0  0
  -29.8443   12.1573  -18.1807 H   0  0  0  0  0  0  0  0  0  0  0  0
  -30.2168   10.4596  -19.8944 H   0  0  0  0  0  0  0  0  0  0  0  0
  -33.2790   10.5887  -19.3387 H   0  0  0  0  0  0  0  0  0  0  0  0
  -34.6010    9.7385  -21.3358 H   0  0  0  0  0  0  0  0  0  0  0  0
  -28.2817   10.1533  -23.0059 H   0  0  0  0  0  0  0  0  0  0  0  0
  -31.1227    8.4163  -26.2288 H   0  0  0  0  0  0  0  0  0  0  0  0
  -32.3954    7.6526  -25.2362 H   0  0  0  0  0  0  0  0  0  0  0  0
  -30.3309    8.8681  -18.5937 H   0  0  0  0  0  0  0  0  0  0  0  0
  -30.5983   11.0866  -16.4543 H   0  0  0  0  0  0  0  0  0  0  0  0
  1  2  1  0  0  0  0
  1 26  1  0  0  0  0
  1 27  1  0  0  0  0
  1 28  1  0  0  0  0
  2  3  1  0  0  0  0
  2  8  1  0  0  0  0
  2 29  1  0  0  0  0
  3  4  1  0  0  0  0
  3 30  1  0  0  0  0
  3 31  1  0  0  0  0
  4  5  1  0  0  0  0
  4 32  1  0  0  0  0
  4 33  1  0  0  0  0
  5  6  1  0  0  0  0
  5 34  1  0  0  0  0
  5 35  1  0  0  0  0
  6  7  1  0  0  0  0
  6 36  1  0  0  0  0
  7 37  1  0  0  0  0
  7 38  1  0  0  0  0
  8  9  1  0  0  0  0
  8 39  1  0  0  0  0
  8 40  1  0  0  0  0
  9 13  1  0  0  0  0
  9 10  1  0  0  0  0
  9 41  1  0  0  0  0
 10 11  1  0  0  0  0
 10 25  1  0  0  0  0
 10 42  1  0  0  0  0
 11 12  1  0  0  0  0
 11 24  1  0  0  0  0
 11 43  1  0  0  0  0
 12 13  1  0  0  0  0
 12 14  1  0  0  0  0
 12 44  1  0  0  0  0
 14 18  1  0  0  0  0
 14 15  1  0  0  0  0
 15 16  2  0  0  0  0
 15 45  1  0  0  0  0
 16 17  1  0  0  0  0
 17 22  2  0  0  0  0
 17 18  1  0  0  0  0
 18 19  2  0  0  0  0
 19 20  1  0  0  0  0
 20 21  2  0  0  0  0
 20 46  1  0  0  0  0
 21 22  1  0  0  0  0
 22 23  1  0  0  0  0
 23 47  1  0  0  0  0
 23 48  1  0  0  0  0
 24 49  1  0  0  0  0
 25 50  1  0  0  0  0
M  END
> <Name>
ZINC31392821

> <reference>
BDB4942

> <quality>
0.783

> <status>
decoy

> <atoms in reference ligand area>
17

> <score>
-40.8337

$$$$
ZINC01818846
      BALL 1.4.0 (Jan  4 2012, 23:22:29)

 34 34  0999  0  0  0  0  0  0999 V2000
  -35.7597    7.5438  -26.9831 C   0  0  0  0  0  0  0  0  0  0  0  0
  -35.0640    8.3137  -25.8588 C   0  0  0  0  0  0  0  0  0  0  0  0
  -34.2555    7.3404  -24.9985 C   0  0  0  0  0  0  0  0  0  0  0  0
  -33.5703    8.0988  -23.8911 C   0  0  0  0  0  0  0  0  0  0  0  0
  -33.8087    7.8283  -22.7331 O   0  0  0  0  0  0  0  0  0  0  0  0
  -32.6927    9.0777  -24.1876 N   0  0  0  0  0  0  0  0  0  0  0  0
  -32.0556    9.7828  -23.1581 N   0  0  0  0  0  0  0  0  0  0  0  0
  -30.8900   10.4714  -23.4136 C   0  0  0  0  0  0  0  0  0  0  0  0
  -30.0981   11.0300  -22.2919 C   0  0  0  0  0  0  0  0  0  0  0  0
  -28.8309   11.7945  -22.3425 C   0  0  0  0  0  0  0  0  0  0  0  0
  -28.5863   12.0256  -21.0736 N   0  0  0  0  0  0  0  0  0  0  0  0
  -29.4669   11.5452  -20.3999 O   0  0  0  0  0  0  0  0  0  0  0  0
  -30.3441   10.9714  -21.0016 N   0  0  0  0  0  0  0  0  0  0  0  0
  -28.0855   12.1679  -23.4530 N   0  0  0  0  0  0  0  0  0  0  0  0
  -34.8435    7.4902  -28.2073 C   0  0  0  0  0  0  0  0  0  0  0  0
  -35.4241    6.5181  -29.2364 C   0  0  0  0  0  0  0  0  0  0  0  0
  -34.5683    6.4680  -30.3798 O   0  0  0  0  0  0  0  0  0  0  0  0
  -30.4238   10.6681  -24.6361 N   0  0  0  0  0  0  0  0  0  0  0  0
  -35.9797    6.5203  -26.6453 H   0  0  0  0  0  0  0  0  0  0  0  0
  -36.6983    8.0514  -27.2505 H   0  0  0  0  0  0  0  0  0  0  0  0
  -34.3893    9.0664  -26.2926 H   0  0  0  0  0  0  0  0  0  0  0  0
  -35.8186    8.8141  -25.2341 H   0  0  0  0  0  0  0  0  0  0  0  0
  -33.4996    6.8397  -25.6213 H   0  0  0  0  0  0  0  0  0  0  0  0
  -34.9298    6.5876  -24.5640 H   0  0  0  0  0  0  0  0  0  0  0  0
  -32.4904    9.3075  -25.1710 H   0  0  0  0  0  0  0  0  0  0  0  0
  -32.4586    9.7863  -22.2102 H   0  0  0  0  0  0  0  0  0  0  0  0
  -28.6612   12.4739  -24.2504 H   0  0  0  0  0  0  0  0  0  0  0  0
  -27.0568   12.1506  -23.5022 H   0  0  0  0  0  0  0  0  0  0  0  0
  -34.7676    8.4930  -28.6529 H   0  0  0  0  0  0  0  0  0  0  0  0
  -33.8435    7.1473  -27.9035 H   0  0  0  0  0  0  0  0  0  0  0  0
  -36.4238    6.8602  -29.5423 H   0  0  0  0  0  0  0  0  0  0  0  0
  -35.4999    5.5150  -28.7915 H   0  0  0  0  0  0  0  0  0  0  0  0
  -34.7427    7.2522  -30.9585 H   0  0  0  0  0  0  0  0  0  0  0  0
  -30.9645   10.2849  -25.4245 H   0  0  0  0  0  0  0  0  0  0  0  0
  1  2  1  0  0  0  0
  1 15  1  0  0  0  0
  1 19  1  0  0  0  0
  1 20  1  0  0  0  0
  2  3  1  0  0  0  0
  2 21  1  0  0  0  0
  2 22  1  0  0  0  0
  3  4  1  0  0  0  0
  3 23  1  0  0  0  0
  3 24  1  0  0  0  0
  4  5  2  0  0  0  0
  4  6  1  0  0  0  0
  6  7  1  0  0  0  0
  6 25  1  0  0  0  0
  7  8  1  0  0  0  0
  7 26  1  0  0  0  0
  8  9  1  0  0  0  0
  8 18  2  0  0  0  0
  9 13  2  0  0  0  0
  9 10  1  0  0  0  0
 10 11  2  0  0  0  0
 10 14  1  0  0  0  0
 11 12  1  0  0  0  0
 12 13  1  0  0  0  0
 14 27  1  0  0  0  0
 14 28  1  0  0  0  0
 15 16  1  0  0  0  0
 15 29  1  0  0  0  0
 15 30  1  0  0  0  0
 16 17  1  0  0  0  0
 16 31  1  0  0  0  0
 16 32  1  0  0  0  0
 17 33  1  0  0  0  0
 18 34  1  0  0  0  0
M  END
> <Name>
ZINC01818846

> <reference>
BDB5021

> <quality>
0.695

> <status>
decoy

> <atoms in reference ligand area>
10

> <score>
-39.2766

$$$$
ZINC06178420
      BALL 1.4.0 (Jan  4 2012, 23:22:29)

 41 41  0999  0  0  0  0  0  0999 V2000
  -32.7063   11.7616  -19.7217 C   0  0  0  0  0  0  0  0  0  0  0  0
  -31.3165   11.9189  -20.1572 N   0  0  0  0  0  0  0  0  0  0  0  0
  -30.3850   12.5218  -19.3122 C   0  0  0  0  0  0  0  0  0  0  0  0
  -30.7448   13.6325  -18.5578 C   0  0  0  0  0  0  0  0  0  0  0  0
  -29.8215   14.2231  -17.7179 C   0  0  0  0  0  0  0  0  0  0  0  0
  -28.5366   13.7179  -17.6355 C   0  0  0  0  0  0  0  0  0  0  0  0
  -28.1733   12.6163  -18.3888 C   0  0  0  0  0  0  0  0  0  0  0  0
  -29.0926   12.0169  -19.2265 C   0  0  0  0  0  0  0  0  0  0  0  0
  -30.9231   11.4638  -21.4225 N   0  0  0  0  0  0  0  0  0  0  0  0
  -31.6430   10.5779  -22.0486 C   0  0  0  0  0  0  0  0  0  0  0  0
  -31.2323   10.1029  -23.3692 C   0  0  0  0  0  0  0  0  0  0  0  0
  -30.2644   10.6989  -24.0031 N   0  0  0  0  0  0  0  0  0  0  0  0
  -29.7855   10.1689  -25.2083 N   0  0  0  0  0  0  0  0  0  0  0  0
  -31.9298    8.9233  -23.9962 C   0  0  0  0  0  0  0  0  0  0  0  0
  -31.3005    7.6267  -23.4824 C   0  0  0  0  0  0  0  0  0  0  0  0
  -29.7908    7.6602  -23.7280 C   0  0  0  0  0  0  0  0  0  0  0  0
  -29.1018    6.6505  -22.8079 C   0  0  0  0  0  0  0  0  0  0  0  0
  -27.8319    7.1650  -22.4020 O   0  0  0  0  0  0  0  0  0  0  0  0
  -29.5222    7.3236  -25.0906 O   0  0  0  0  0  0  0  0  0  0  0  0
  -31.5526    7.4972  -22.0818 O   0  0  0  0  0  0  0  0  0  0  0  0
  -33.3158    8.9501  -23.6496 O   0  0  0  0  0  0  0  0  0  0  0  0
  -33.0428   12.7783  -19.4704 H   0  0  0  0  0  0  0  0  0  0  0  0
  -32.6472   11.1978  -18.7790 H   0  0  0  0  0  0  0  0  0  0  0  0
  -33.3565   11.2744  -20.4633 H   0  0  0  0  0  0  0  0  0  0  0  0
  -31.7638   14.0404  -18.6299 H   0  0  0  0  0  0  0  0  0  0  0  0
  -30.1082   15.0963  -17.1137 H   0  0  0  0  0  0  0  0  0  0  0  0
  -27.8019   14.1934  -16.9692 H   0  0  0  0  0  0  0  0  0  0  0  0
  -27.1505   12.2173  -18.3205 H   0  0  0  0  0  0  0  0  0  0  0  0
  -28.8028   11.1409  -19.8253 H   0  0  0  0  0  0  0  0  0  0  0  0
  -32.5602   10.1867  -21.5841 H   0  0  0  0  0  0  0  0  0  0  0  0
  -28.7988    9.8852  -25.2902 H   0  0  0  0  0  0  0  0  0  0  0  0
  -30.4202   10.0630  -26.0126 H   0  0  0  0  0  0  0  0  0  0  0  0
  -31.8243    8.9738  -25.0900 H   0  0  0  0  0  0  0  0  0  0  0  0
  -31.7397    6.7700  -24.0147 H   0  0  0  0  0  0  0  0  0  0  0  0
  -29.4074    8.6694  -23.5173 H   0  0  0  0  0  0  0  0  0  0  0  0
  -29.7274    6.4770  -21.9199 H   0  0  0  0  0  0  0  0  0  0  0  0
  -28.9574    5.7018  -23.3457 H   0  0  0  0  0  0  0  0  0  0  0  0
  -27.9580    7.8142  -21.6654 H   0  0  0  0  0  0  0  0  0  0  0  0
  -29.8272    8.0587  -25.6794 H   0  0  0  0  0  0  0  0  0  0  0  0
  -30.8192    7.9249  -21.5726 H   0  0  0  0  0  0  0  0  0  0  0  0
  -33.6861    9.8491  -23.8356 H   0  0  0  0  0  0  0  0  0  0  0  0
  1  2  1  0  0  0  0
  1 22  1  0  0  0  0
  1 23  1  0  0  0  0
  1 24  1  0  0  0  0
  2  3  1  0  0  0  0
  2  9  1  0  0  0  0
  3  8  2  0  0  0  0
  3  4  1  0  0  0  0
  4  5  2  0  0  0  0
  4 25  1  0  0  0  0
  5  6  1  0  0  0  0
  5 26  1  0  0  0  0
  6  7  2  0  0  0  0
  6 27  1  0  0  0  0
  7  8  1  0  0  0  0
  7 28  1  0  0  0  0
  8 29  1  0  0  0  0
  9 10  2  0  0  0  0
 10 11  1  0  0  0  0
 10 30  1  0  0  0  0
 11 12  2  0  0  0  0
 11 14  1  0  0  0  0
 12 13  1  0  0  0  0
 13 31  1  0  0  0  0
 13 32  1  0  0  0  0
 14 15  1  0  0  0  0
 14 21  1  0  0  0  0
 14 33  1  0  0  0  0
 15 16  1  0  0  0  0
 15 20  1  0  0  0  0
 15 34  1  0  0  0  0
 16 17  1  0  0  0  0
 16 19  1  0  0  0  0
 16 35  1  0  0  0  0
 17 18  1  0  0  0  0
 17 36  1  0  0  0  0
 17 37  1  0  0  0  0
 18 38  1  0  0  0  0
 19 39  1  0  0  0  0
 20 40  1  0  0  0  0
 21 41  1  0  0  0  0
M  END
> <Name>
ZINC06178420

> <reference>
BDB5009

> <quality>
0.754

> <status>
decoy

> <atoms in reference ligand area>
19

> <score>
-39.2542

$$$$
ZINC26540596
      BALL 1.4.0 (Jan  4 2012, 23:22:29)

 37 38  0999  0  0  0  0  0  0999 V2000
  -31.6039    9.1627  -15.9425 C   0  0  0  0  0  0  0  0  0  0  0  0
  -31.9765    9.6038  -17.2888 N   0  0  0  0  0  0  0  0  0  0  0  0
  -31.7798    8.9222  -18.4394 C   0  0  0  0  0  0  0  0  0  0  0  0
  -32.2414    9.6332  -19.4312 N   0  0  0  0  0  0  0  0  0  0  0  0
  -32.7444   10.7825  -18.9557 C   0  0  0  0  0  0  0  0  0  0  0  0
  -32.5838   10.7857  -17.6173 C   0  0  0  0  0  0  0  0  0  0  0  0
  -33.0587   12.0452  -16.5210 Cl  0  0  0  0  0  0  0  0  0  0  0  0
  -33.4793   12.0660  -19.9135 S   0  0  0  0  0  0  0  0  0  0  0  0
  -34.3408   12.7824  -19.0397 O   0  0  0  0  0  0  0  0  0  0  0  0
  -33.9421   11.4626  -21.1140 O   0  0  0  0  0  0  0  0  0  0  0  0
  -32.2681   13.1097  -20.3448 N   0  5  0  0  0  0  0  0  0  0  0  0
  -31.2080   12.6610  -21.1420 C   0  0  0  0  0  0  0  0  0  0  0  0
  -31.4368   11.7290  -22.1428 C   0  0  0  0  0  0  0  0  0  0  0  0
  -30.3885   11.2877  -22.9292 C   0  0  0  0  0  0  0  0  0  0  0  0
  -29.1099   11.7688  -22.7173 C   0  0  0  0  0  0  0  0  0  0  0  0
  -28.8738   12.7025  -21.7253 C   0  0  0  0  0  0  0  0  0  0  0  0
  -29.9190   13.1506  -20.9319 C   0  0  0  0  0  0  0  0  0  0  0  0
  -29.6813   14.0923  -19.9233 N   0  0  0  0  0  0  0  0  0  0  0  0
  -29.7793   15.5236  -20.2197 C   0  0  0  0  0  0  0  0  0  0  0  0
  -29.7230   16.3198  -18.9144 C   0  0  0  0  0  0  0  0  0  0  0  0
  -28.3803   16.3389  -18.4257 O   0  0  0  0  0  0  0  0  0  0  0  0
  -30.6351   10.2928  -23.9969 N   0  0  0  0  0  0  0  0  0  0  0  0
  -31.7766    9.9999  -24.3046 O   0  0  0  0  0  0  0  0  0  0  0  0
  -29.6966    9.7706  -24.5712 O   0  0  0  0  0  0  0  0  0  0  0  0
  -31.3060   10.1055  -15.4604 H   0  0  0  0  0  0  0  0  0  0  0  0
  -30.6684    8.6137  -16.1255 H   0  0  0  0  0  0  0  0  0  0  0  0
  -32.3572    8.5905  -15.3813 H   0  0  0  0  0  0  0  0  0  0  0  0
  -31.3086    7.9319  -18.5252 H   0  0  0  0  0  0  0  0  0  0  0  0
  -32.4521   11.3407  -22.3112 H   0  0  0  0  0  0  0  0  0  0  0  0
  -28.2779   11.4077  -23.3397 H   0  0  0  0  0  0  0  0  0  0  0  0
  -27.8567   13.0898  -21.5654 H   0  0  0  0  0  0  0  0  0  0  0  0
  -29.4376   13.7786  -18.9730 H   0  0  0  0  0  0  0  0  0  0  0  0
  -30.7304   15.7287  -20.7327 H   0  0  0  0  0  0  0  0  0  0  0  0
  -28.9416   15.8223  -20.8671 H   0  0  0  0  0  0  0  0  0  0  0  0
  -30.0604   17.3504  -19.0986 H   0  0  0  0  0  0  0  0  0  0  0  0
  -30.3778   15.8476  -18.1671 H   0  0  0  0  0  0  0  0  0  0  0  0
  -27.8596   17.0238  -18.9154 H   0  0  0  0  0  0  0  0  0  0  0  0
  1  2  1  0  0  0  0
  1 25  1  0  0  0  0
  1 26  1  0  0  0  0
  1 27  1  0  0  0  0
  2  6  1  0  0  0  0
  2  3  1  0  0  0  0
  3  4  2  0  0  0  0
  3 28  1  0  0  0  0
  4  5  1  0  0  0  0
  5  6  2  0  0  0  0
  5  8  1  0  0  0  0
  6  7  1  0  0  0  0
  8  9  2  0  0  0  0
  8 10  2  0  0  0  0
  8 11  1  0  0  0  0
 11 12  1  0  0  0  0
 12 17  2  0  0  0  0
 12 13  1  0  0  0  0
 13 14  2  0  0  0  0
 13 29  1  0  0  0  0
 14 15  1  0  0  0  0
 14 22  1  0  0  0  0
 15 16  2  0  0  0  0
 15 30  1  0  0  0  0
 16 17  1  0  0  0  0
 16 31  1  0  0  0  0
 17 18  1  0  0  0  0
 18 19  1  0  0  0  0
 18 32  1  0  0  0  0
 19 20  1  0  0  0  0
 19 33  1  0  0  0  0
 19 34  1  0  0  0  0
 20 21  1  0  0  0  0
 20 35  1  0  0  0  0
 20 36  1  0  0  0  0
 21 37  1  0  0  0  0
 22 23  2  0  0  0  0
 22 24  2  0  0  0  0
M  END
> <Name>
ZINC26540596

> <reference>
BDB4952

> <quality>
0.738

> <status>
decoy

> <atoms in reference ligand area>
18

> <score>
-38.6924

$$$$
ZINC19639944
      BALL 1.4.0 (Jan  4 2012, 23:22:29)

 64 66  0999  0  0  0  0  0  0999 V2000
  -35.8188    8.4083  -28.2014 C   0  0  0  0  0  0  0  0  0  0  0  0
  -35.2185    7.1767  -27.5204 C   0  0  0  0  0  0  0  0  0  0  0  0
  -36.2353    6.5903  -26.5390 C   0  0  0  0  0  0  0  0  0  0  0  0
  -35.4963    5.9163  -25.3811 C   0  0  0  0  0  0  0  0  0  0  0  0
  -35.4807    6.8535  -24.1717 C   0  0  0  0  0  0  0  0  0  0  0  0
  -34.1151    6.7781  -23.4858 C   0  0  0  0  0  0  0  0  0  0  0  0
  -33.7537    8.1516  -22.9169 C   0  0  0  0  0  0  0  0  0  0  0  0
  -32.5851    8.0431  -21.9013 C   0  0  0  0  0  0  0  0  0  0  0  0
  -31.3434    8.0121  -22.8148 C   0  0  0  0  0  0  0  0  0  0  0  0
  -30.3263    9.1139  -22.5296 C   0  0  0  0  0  0  0  0  0  0  0  0
  -30.7711    9.6012  -23.8827 C   0  0  0  0  0  0  0  0  0  0  0  0
  -30.4025   10.5317  -24.5677 O   0  0  0  0  0  0  0  0  0  0  0  0
  -31.7153    8.6586  -24.0801 N   0  0  0  0  0  0  0  0  0  0  0  0
  -33.1346    9.0588  -24.0085 C   0  0  0  0  0  0  0  0  0  0  0  0
  -30.6989   10.0239  -21.3875 C   0  0  0  0  0  0  0  0  0  0  0  0
  -30.9619    9.4932  -20.1383 C   0  0  0  0  0  0  0  0  0  0  0  0
  -31.3037   10.3277  -19.0909 C   0  0  0  0  0  0  0  0  0  0  0  0
  -31.3821   11.6933  -19.2923 C   0  0  0  0  0  0  0  0  0  0  0  0
  -31.1180   12.2240  -20.5408 C   0  0  0  0  0  0  0  0  0  0  0  0
  -30.7723   11.3895  -21.5876 C   0  0  0  0  0  0  0  0  0  0  0  0
  -31.2030   13.7125  -20.7603 C   0  0  0  0  0  0  0  0  0  0  0  0
  -30.3139   14.4180  -19.7689 C   0  0  0  0  0  0  0  0  0  0  0  0
  -30.1678   15.6156  -19.8338 O   0  0  0  0  0  0  0  0  0  0  0  0
  -32.5534   14.1441  -20.5802 O   0  0  0  0  0  0  0  0  0  0  0  0
  -31.7553   12.6032  -18.1504 C   0  0  0  0  0  0  0  0  0  0  0  0
  -31.5912    9.7491  -17.7294 C   0  0  0  0  0  0  0  0  0  0  0  0
  -28.9701    8.6664  -22.4803 O   0  0  0  0  0  0  0  0  0  0  0  0
  -34.9751    8.8161  -22.2784 C   0  0  0  0  0  0  0  0  0  0  0  0
  -29.6842   13.7158  -18.8139 O   0  5  0  0  0  0  0  0  0  0  0  0
  -35.9603    9.1170  -23.3321 N   0  3  0  0  0  0  0  0  0  0  0  0
  -36.4896    8.0896  -29.0129 H   0  0  0  0  0  0  0  0  0  0  0  0
  -35.0112    9.0291  -28.6166 H   0  0  0  0  0  0  0  0  0  0  0  0
  -36.3886    8.9941  -27.4651 H   0  0  0  0  0  0  0  0  0  0  0  0
  -34.9671    6.4230  -28.2810 H   0  0  0  0  0  0  0  0  0  0  0  0
  -34.3079    7.4652  -26.9749 H   0  0  0  0  0  0  0  0  0  0  0  0
  -36.8732    7.3960  -26.1467 H   0  0  0  0  0  0  0  0  0  0  0  0
  -36.8597    5.8472  -27.0566 H   0  0  0  0  0  0  0  0  0  0  0  0
  -36.0098    4.9812  -25.1131 H   0  0  0  0  0  0  0  0  0  0  0  0
  -34.4628    5.6932  -25.6846 H   0  0  0  0  0  0  0  0  0  0  0  0
  -36.2642    6.5505  -23.4615 H   0  0  0  0  0  0  0  0  0  0  0  0
  -35.6667    7.8852  -24.5047 H   0  0  0  0  0  0  0  0  0  0  0  0
  -33.3525    6.4727  -24.2173 H   0  0  0  0  0  0  0  0  0  0  0  0
  -34.1551    6.0425  -22.6689 H   0  0  0  0  0  0  0  0  0  0  0  0
  -32.6611    7.1062  -21.3300 H   0  0  0  0  0  0  0  0  0  0  0  0
  -32.5594    8.9317  -21.2534 H   0  0  0  0  0  0  0  0  0  0  0  0
  -30.9978    6.9704  -22.7425 H   0  0  0  0  0  0  0  0  0  0  0  0
  -33.6278    8.8751  -24.9743 H   0  0  0  0  0  0  0  0  0  0  0  0
  -33.2141   10.1148  -23.7107 H   0  0  0  0  0  0  0  0  0  0  0  0
  -30.8990    8.4068  -19.9780 H   0  0  0  0  0  0  0  0  0  0  0  0
  -30.5556   11.8124  -22.5797 H   0  0  0  0  0  0  0  0  0  0  0  0
  -30.8747   13.9518  -21.7825 H   0  0  0  0  0  0  0  0  0  0  0  0
  -32.8826   14.5588  -21.4168 H   0  0  0  0  0  0  0  0  0  0  0  0
  -32.3695   13.3946  -18.6046 H   0  0  0  0  0  0  0  0  0  0  0  0
  -30.8095   13.0670  -17.8337 H   0  0  0  0  0  0  0  0  0  0  0  0
  -32.2710   12.0919  -17.3242 H   0  0  0  0  0  0  0  0  0  0  0  0
  -32.1151   10.5480  -17.1842 H   0  0  0  0  0  0  0  0  0  0  0  0
  -30.6054    9.6255  -17.2573 H   0  0  0  0  0  0  0  0  0  0  0  0
  -32.1655    8.8114  -17.7566 H   0  0  0  0  0  0  0  0  0  0  0  0
  -28.6135    8.9055  -21.5883 H   0  0  0  0  0  0  0  0  0  0  0  0
  -34.6705    9.7496  -21.7828 H   0  0  0  0  0  0  0  0  0  0  0  0
  -35.4223    8.1331  -21.5411 H   0  0  0  0  0  0  0  0  0  0  0  0
  -36.1370   10.1312  -23.3648 H   0  0  0  0  0  0  0  0  0  0  0  0
  -36.8410    8.6194  -23.1383 H   0  0  0  0  0  0  0  0  0  0  0  0
  -35.5893    8.8079  -24.2419 H   0  0  0  0  0  0  0  0  0  0  0  0
  1  2  1  0  0  0  0
  1 31  1  0  0  0  0
  1 32  1  0  0  0  0
  1 33  1  0  0  0  0
  2  3  1  0  0  0  0
  2 34  1  0  0  0  0
  2 35  1  0  0  0  0
  3  4  1  0  0  0  0
  3 36  1  0  0  0  0
  3 37  1  0  0  0  0
  4  5  1  0  0  0  0
  4 38  1  0  0  0  0
  4 39  1  0  0  0  0
  5  6  1  0  0  0  0
  5 40  1  0  0  0  0
  5 41  1  0  0  0  0
  6  7  1  0  0  0  0
  6 42  1  0  0  0  0
  6 43  1  0  0  0  0
  7 14  1  0  0  0  0
  7  8  1  0  0  0  0
  7 28  1  0  0  0  0
  8  9  1  0  0  0  0
  8 44  1  0  0  0  0
  8 45  1  0  0  0  0
  9 13  1  0  0  0  0
  9 10  1  0  0  0  0
  9 46  1  0  0  0  0
 10 11  1  0  0  0  0
 10 15  1  0  0  0  0
 10 27  1  0  0  0  0
 11 12  2  0  0  0  0
 11 13  1  0  0  0  0
 13 14  1  0  0  0  0
 14 47  1  0  0  0  0
 14 48  1  0  0  0  0
 15 20  2  0  0  0  0
 15 16  1  0  0  0  0
 16 17  2  0  0  0  0
 16 49  1  0  0  0  0
 17 18  1  0  0  0  0
 17 26  1  0  0  0  0
 18 19  2  0  0  0  0
 18 25  1  0  0  0  0
 19 20  1  0  0  0  0
 19 21  1  0  0  0  0
 20 50  1  0  0  0  0
 21 22  1  0  0  0  0
 21 24  1  0  0  0  0
 21 51  1  0  0  0  0
 22 23  2  0  0  0  0
 22 29  1  0  0  0  0
 24 52  1  0  0  0  0
 25 53  1  0  0  0  0
 25 54  1  0  0  0  0
 25 55  1  0  0  0  0
 26 56  1  0  0  0  0
 26 57  1  0  0  0  0
 26 58  1  0  0  0  0
 27 59  1  0  0  0  0
 28 30  1  0  0  0  0
 28 60  1  0  0  0  0
 28 61  1  0  0  0  0
 30 62  1  0  0  0  0
 30 63  1  0  0  0  0
 30 64  1  0  0  0  0
M  END
> <Name>
ZINC19639944

> <reference>
BDB4965

> <quality>
0.776

> <status>
decoy

> <atoms in reference ligand area>
16

> <score>
-38.1931

$$$$
ZINC05974537
      BALL 1.4.0 (Jan  4 2012, 23:22:29)

 35 36  0999  0  0  0  0  0  0999 V2000
  -33.3193   13.0202  -18.1624 C   0  0  0  0  0  0  0  0  0  0  0  0
  -33.2788   13.6585  -19.3879 C   0  0  0  0  0  0  0  0  0  0  0  0
  -33.0588   12.9281  -20.5407 C   0  0  0  0  0  0  0  0  0  0  0  0
  -32.8797   11.5594  -20.4681 C   0  0  0  0  0  0  0  0  0  0  0  0
  -32.9259   10.9202  -19.2432 C   0  0  0  0  0  0  0  0  0  0  0  0
  -33.1402   11.6514  -18.0897 C   0  0  0  0  0  0  0  0  0  0  0  0
  -32.6402   10.7630  -21.7249 C   0  0  0  0  0  0  0  0  0  0  0  0
  -30.3102   10.8349  -22.3795 C   0  0  0  0  0  0  0  0  0  0  0  0
  -30.4469   12.3260  -22.0654 C   0  0  0  0  0  0  0  0  0  0  0  0
  -29.2100   12.8040  -21.3494 C   0  0  0  0  0  0  0  0  0  0  0  0
  -28.3095   13.7061  -21.8126 C   0  0  0  0  0  0  0  0  0  0  0  0
  -27.3619   13.8629  -20.8921 N   0  0  0  0  0  0  0  0  0  0  0  0
  -27.6314   13.0903  -19.8606 C   0  0  0  0  0  0  0  0  0  0  0  0
  -28.7928   12.4177  -20.1210 N   0  0  0  0  0  0  0  0  0  0  0  0
  -26.8240   12.9752  -18.6344 C   0  0  0  0  0  0  0  0  0  0  0  0
  -25.6109   12.9656  -18.7043 O   0  0  0  0  0  0  0  0  0  0  0  0
  -30.5093   10.6125  -23.8567 C   0  0  0  0  0  0  0  0  0  0  0  0
  -29.5524   10.4704  -24.5805 O   0  0  0  0  0  0  0  0  0  0  0  0
  -31.3336   10.0857  -21.6263 N   0  3  0  0  0  0  0  0  0  0  0  0
  -27.4308   12.8807  -17.4344 O   0  5  0  0  0  0  0  0  0  0  0  0
  -31.7496   10.5723  -24.3682 O   0  5  0  0  0  0  0  0  0  0  0  0
  -33.4941   13.6015  -17.2450 H   0  0  0  0  0  0  0  0  0  0  0  0
  -33.4217   14.7477  -19.4457 H   0  0  0  0  0  0  0  0  0  0  0  0
  -33.0262   13.4360  -21.5158 H   0  0  0  0  0  0  0  0  0  0  0  0
  -32.7920    9.8299  -19.1863 H   0  0  0  0  0  0  0  0  0  0  0  0
  -33.1683   11.1441  -17.1141 H   0  0  0  0  0  0  0  0  0  0  0  0
  -33.4352   10.0117  -21.8411 H   0  0  0  0  0  0  0  0  0  0  0  0
  -32.6392   11.4374  -22.5939 H   0  0  0  0  0  0  0  0  0  0  0  0
  -29.3081   10.4855  -22.0901 H   0  0  0  0  0  0  0  0  0  0  0  0
  -30.5679   12.8888  -23.0028 H   0  0  0  0  0  0  0  0  0  0  0  0
  -31.3262   12.4878  -21.4245 H   0  0  0  0  0  0  0  0  0  0  0  0
  -28.3549   14.2205  -22.7839 H   0  0  0  0  0  0  0  0  0  0  0  0
  -29.2621   11.7438  -19.4994 H   0  0  0  0  0  0  0  0  0  0  0  0
  -31.0534   10.0265  -20.6370 H   0  0  0  0  0  0  0  0  0  0  0  0
  -31.4114    9.1338  -22.0121 H   0  0  0  0  0  0  0  0  0  0  0  0
  1  6  2  0  0  0  0
  1  2  1  0  0  0  0
  1 22  1  0  0  0  0
  2  3  2  0  0  0  0
  2 23  1  0  0  0  0
  3  4  1  0  0  0  0
  3 24  1  0  0  0  0
  4  5  2  0  0  0  0
  4  7  1  0  0  0  0
  5  6  1  0  0  0  0
  5 25  1  0  0  0  0
  6 26  1  0  0  0  0
  7 19  1  0  0  0  0
  7 27  1  0  0  0  0
  7 28  1  0  0  0  0
  8  9  1  0  0  0  0
  8 17  1  0  0  0  0
  8 19  1  0  0  0  0
  8 29  1  0  0  0  0
  9 10  1  0  0  0  0
  9 30  1  0  0  0  0
  9 31  1  0  0  0  0
 10 14  1  0  0  0  0
 10 11  2  0  0  0  0
 11 12  1  0  0  0  0
 11 32  1  0  0  0  0
 12 13  2  0  0  0  0
 13 14  1  0  0  0  0
 13 15  1  0  0  0  0
 14 33  1  0  0  0  0
 15 16  2  0  0  0  0
 15 20  1  0  0  0  0
 17 18  2  0  0  0  0
 17 21  1  0  0  0  0
 19 34  1  0  0  0  0
 19 35  1  0  0  0  0
M  END
> <Name>
ZINC05974537

> <reference>
BDB5009

> <quality>
0.774

> <status>
decoy

> <atoms in reference ligand area>
26

> <score>
-37.6309

$$$$
ZINC05637890
      BALL 1.4.0 (Jan  4 2012, 23:22:29)

 41 42  0999  0  0  0  0  0  0999 V2000
  -30.4401    9.2838  -21.4257 C   0  0  0  0  0  0  0  0  0  0  0  0
  -30.8884    9.4455  -20.1293 C   0  0  0  0  0  0  0  0  0  0  0  0
  -32.1806    9.8975  -19.8943 C   0  0  0  0  0  0  0  0  0  0  0  0
  -33.0160   10.1908  -20.9649 C   0  0  0  0  0  0  0  0  0  0  0  0
  -32.5595   10.0323  -22.2584 C   0  0  0  0  0  0  0  0  0  0  0  0
  -31.2723    9.5820  -22.4889 C   0  0  0  0  0  0  0  0  0  0  0  0
  -30.6939    9.3811  -24.1410 S   0  0  0  0  0  0  0  0  0  0  0  0
  -30.8585   10.6374  -24.7845 O   0  0  0  0  0  0  0  0  0  0  0  0
  -31.2859    8.1881  -24.6364 O   0  0  0  0  0  0  0  0  0  0  0  0
  -29.0637    9.1017  -24.0585 N   0  0  0  0  0  0  0  0  0  0  0  0
  -34.3935   10.6731  -20.7192 N   0  0  0  0  0  0  0  0  0  0  0  0
  -34.5794   11.8116  -20.3285 O   0  0  0  0  0  0  0  0  0  0  0  0
  -35.3411    9.9314  -20.9078 O   0  0  0  0  0  0  0  0  0  0  0  0
  -32.6388   10.0571  -18.5845 N   0  0  0  0  0  0  0  0  0  0  0  0
  -32.5749   11.3718  -17.9412 C   0  0  0  0  0  0  0  0  0  0  0  0
  -31.3888   12.1577  -18.5038 C   0  0  0  0  0  0  0  0  0  0  0  0
  -30.4216   12.5028  -17.3698 C   0  0  0  0  0  0  0  0  0  0  0  0
  -29.5682   13.6210  -17.7790 N   0  0  0  0  0  0  0  0  0  0  0  0
  -30.0676   14.9471  -18.1613 C   0  0  0  0  0  0  0  0  0  0  0  0
  -28.8420   15.8868  -18.0780 C   0  0  0  0  0  0  0  0  0  0  0  0
  -27.6740   14.8986  -18.3027 C   0  0  0  0  0  0  0  0  0  0  0  0
  -28.2277   13.5627  -17.8581 C   0  0  0  0  0  0  0  0  0  0  0  0
  -27.5592   12.5816  -17.6098 O   0  0  0  0  0  0  0  0  0  0  0  0
  -29.4199    8.9173  -21.6125 H   0  0  0  0  0  0  0  0  0  0  0  0
  -30.2229    9.2166  -19.2839 H   0  0  0  0  0  0  0  0  0  0  0  0
  -33.2204   10.2643  -23.1066 H   0  0  0  0  0  0  0  0  0  0  0  0
  -28.4457    9.4317  -24.8136 H   0  0  0  0  0  0  0  0  0  0  0  0
  -28.6677    8.5979  -23.2521 H   0  0  0  0  0  0  0  0  0  0  0  0
  -33.0218    9.2505  -18.0710 H   0  0  0  0  0  0  0  0  0  0  0  0
  -33.5061   11.9227  -18.1392 H   0  0  0  0  0  0  0  0  0  0  0  0
  -32.4477   11.2444  -16.8560 H   0  0  0  0  0  0  0  0  0  0  0  0
  -30.8679   11.5472  -19.2562 H   0  0  0  0  0  0  0  0  0  0  0  0
  -31.7508   13.0854  -18.9712 H   0  0  0  0  0  0  0  0  0  0  0  0
  -29.7946   11.6282  -17.1422 H   0  0  0  0  0  0  0  0  0  0  0  0
  -30.9933   12.7873  -16.4740 H   0  0  0  0  0  0  0  0  0  0  0  0
  -30.8421   15.2783  -17.4538 H   0  0  0  0  0  0  0  0  0  0  0  0
  -30.4520   14.9231  -19.1917 H   0  0  0  0  0  0  0  0  0  0  0  0
  -28.8742   16.6315  -18.8869 H   0  0  0  0  0  0  0  0  0  0  0  0
  -28.7726   16.3401  -17.0783 H   0  0  0  0  0  0  0  0  0  0  0  0
  -26.8142   15.1792  -17.6765 H   0  0  0  0  0  0  0  0  0  0  0  0
  -27.4091   14.8625  -19.3697 H   0  0  0  0  0  0  0  0  0  0  0  0
  1  6  2  0  0  0  0
  1  2  1  0  0  0  0
  1 24  1  0  0  0  0
  2  3  2  0  0  0  0
  2 25  1  0  0  0  0
  3  4  1  0  0  0  0
  3 14  1  0  0  0  0
  4  5  2  0  0  0  0
  4 11  1  0  0  0  0
  5  6  1  0  0  0  0
  5 26  1  0  0  0  0
  6  7  1  0  0  0  0
  7  8  2  0  0  0  0
  7  9  2  0  0  0  0
  7 10  1  0  0  0  0
 10 27  1  0  0  0  0
 10 28  1  0  0  0  0
 11 12  2  0  0  0  0
 11 13  2  0  0  0  0
 14 15  1  0  0  0  0
 14 29  1  0  0  0  0
 15 16  1  0  0  0  0
 15 30  1  0  0  0  0
 15 31  1  0  0  0  0
 16 17  1  0  0  0  0
 16 32  1  0  0  0  0
 16 33  1  0  0  0  0
 17 18  1  0  0  0  0
 17 34  1  0  0  0  0
 17 35  1  0  0  0  0
 18 22  1  0  0  0  0
 18 19  1  0  0  0  0
 19 20  1  0  0  0  0
 19 36  1  0  0  0  0
 19 37  1  0  0  0  0
 20 21  1  0  0  0  0
 20 38  1  0  0  0  0
 20 39  1  0  0  0  0
 21 22  1  0  0  0  0
 21 40  1  0  0  0  0
 21 41  1  0  0  0  0
 22 23  2  0  0  0  0
M  END
> <Name>
ZINC05637890

> <reference>
BDB5244

> <quality>
0.665

> <status>
decoy

> <atoms in reference ligand area>
11

> <score>
-37.1227

$$$$
ZINC00531613
      BALL 1.4.0 (Jan  4 2012, 23:22:29)

 36 37  0999  0  0  0  0  0  0999 V2000
  -30.0031   16.2122  -20.2694 C   0  0  0  0  0  0  0  0  0  0  0  0
  -30.6523   15.0249  -19.8104 O   0  0  0  0  0  0  0  0  0  0  0  0
  -30.5814   13.9319  -20.6159 C   0  0  0  0  0  0  0  0  0  0  0  0
  -31.7445   13.3561  -21.1050 C   0  0  0  0  0  0  0  0  0  0  0  0
  -31.6778   12.2470  -21.9225 C   0  0  0  0  0  0  0  0  0  0  0  0
  -30.4378   11.7017  -22.2593 C   0  0  0  0  0  0  0  0  0  0  0  0
  -29.2673   12.2776  -21.7623 C   0  0  0  0  0  0  0  0  0  0  0  0
  -29.3408   13.3929  -20.9483 C   0  0  0  0  0  0  0  0  0  0  0  0
  -28.2021   13.9601  -20.4674 O   0  0  0  0  0  0  0  0  0  0  0  0
  -27.2645   14.4484  -21.4288 C   0  0  0  0  0  0  0  0  0  0  0  0
  -30.3645   10.5133  -23.1353 C   0  0  0  0  0  0  0  0  0  0  0  0
  -29.3517   10.1647  -23.8943 N   0  0  0  0  0  0  0  0  0  0  0  0
  -29.6274    9.0778  -24.5219 N   0  0  0  0  0  0  0  0  0  0  0  0
  -30.8311    8.6622  -24.1978 C   0  0  0  0  0  0  0  0  0  0  0  0
  -31.3448    9.5638  -23.3091 N   0  0  0  0  0  0  0  0  0  0  0  0
  -32.5734    9.5270  -22.7128 N   0  0  0  0  0  0  0  0  0  0  0  0
  -31.6347    7.2145  -24.8004 S   0  0  0  0  0  0  0  0  0  0  0  0
  -33.3570    7.6374  -24.4385 C   0  0  0  0  0  0  0  0  0  0  0  0
  -34.0929    7.8941  -25.7284 C   0  0  0  0  0  0  0  0  0  0  0  0
  -35.1256    8.5299  -25.7213 O   0  0  0  0  0  0  0  0  0  0  0  0
  -33.6034    7.4169  -26.8899 N   0  0  0  0  0  0  0  0  0  0  0  0
  -28.9226   16.0327  -20.1681 H   0  0  0  0  0  0  0  0  0  0  0  0
  -30.2805   17.0089  -19.5635 H   0  0  0  0  0  0  0  0  0  0  0  0
  -30.2753   16.4736  -21.3027 H   0  0  0  0  0  0  0  0  0  0  0  0
  -32.7224   13.7849  -20.8405 H   0  0  0  0  0  0  0  0  0  0  0  0
  -32.6019   11.7923  -22.3090 H   0  0  0  0  0  0  0  0  0  0  0  0
  -28.2886   11.8451  -22.0178 H   0  0  0  0  0  0  0  0  0  0  0  0
  -26.5418   15.0627  -20.8717 H   0  0  0  0  0  0  0  0  0  0  0  0
  -27.8275   15.1146  -22.0992 H   0  0  0  0  0  0  0  0  0  0  0  0
  -26.7659   13.6410  -21.9852 H   0  0  0  0  0  0  0  0  0  0  0  0
  -33.2803   10.1430  -23.1391 H   0  0  0  0  0  0  0  0  0  0  0  0
  -32.7958    8.9360  -21.8992 H   0  0  0  0  0  0  0  0  0  0  0  0
  -33.3900    8.5411  -23.8123 H   0  0  0  0  0  0  0  0  0  0  0  0
  -33.8350    6.8032  -23.9041 H   0  0  0  0  0  0  0  0  0  0  0  0
  -32.9529    7.9881  -27.4481 H   0  0  0  0  0  0  0  0  0  0  0  0
  -33.8797    6.4810  -27.2192 H   0  0  0  0  0  0  0  0  0  0  0  0
  1  2  1  0  0  0  0
  1 22  1  0  0  0  0
  1 23  1  0  0  0  0
  1 24  1  0  0  0  0
  2  3  1  0  0  0  0
  3  8  2  0  0  0  0
  3  4  1  0  0  0  0
  4  5  2  0  0  0  0
  4 25  1  0  0  0  0
  5  6  1  0  0  0  0
  5 26  1  0  0  0  0
  6  7  2  0  0  0  0
  6 11  1  0  0  0  0
  7  8  1  0  0  0  0
  7 27  1  0  0  0  0
  8  9  1  0  0  0  0
  9 10  1  0  0  0  0
 10 28  1  0  0  0  0
 10 29  1  0  0  0  0
 10 30  1  0  0  0  0
 11 15  1  0  0  0  0
 11 12  2  0  0  0  0
 12 13  1  0  0  0  0
 13 14  2  0  0  0  0
 14 15  1  0  0  0  0
 14 17  1  0  0  0  0
 15 16  1  0  0  0  0
 16 31  1  0  0  0  0
 16 32  1  0  0  0  0
 17 18  1  0  0  0  0
 18 19  1  0  0  0  0
 18 33  1  0  0  0  0
 18 34  1  0  0  0  0
 19 20  2  0  0  0  0
 19 21  1  0  0  0  0
 21 35  1  0  0  0  0
 21 36  1  0  0  0  0
M  END
> <Name>
ZINC00531613

> <reference>
BDB5199

> <quality>
0.762

> <status>
decoy

> <atoms in reference ligand area>
15

> <score>
-36.7818

$$$$
ZINC05521415
      BALL 1.4.0 (Jan  4 2012, 23:22:29)

 30 31  0999  0  0  0  0  0  0999 V2000
  -26.6630   13.2585  -18.5334 C   0  0  0  0  0  0  0  0  0  0  0  0
  -27.2487   13.5716  -19.7128 C   0  0  0  0  0  0  0  0  0  0  0  0
  -28.5468   13.2076  -19.5974 N   0  0  0  0  0  0  0  0  0  0  0  0
  -28.7216   12.7023  -18.4266 N   0  0  0  0  0  0  0  0  0  0  0  0
  -27.6172   12.7181  -17.7671 N   0  0  0  0  0  0  0  0  0  0  0  0
  -29.5752   13.3572  -20.6300 C   0  0  0  0  0  0  0  0  0  0  0  0
  -30.9834   13.3503  -19.9949 C   0  0  0  0  0  0  0  0  0  0  0  0
  -31.8519   12.5813  -21.0155 C   0  0  0  0  0  0  0  0  0  0  0  0
  -30.8657   12.2146  -22.1466 C   0  0  0  0  0  0  0  0  0  0  0  0
  -29.5654   12.2182  -21.5180 O   0  0  0  0  0  0  0  0  0  0  0  0
  -31.1838   10.8258  -22.7044 C   0  0  0  0  0  0  0  0  0  0  0  0
  -31.5678   10.9399  -24.0760 O   0  0  0  0  0  0  0  0  0  0  0  0
  -32.3946   11.4001  -20.4219 O   0  0  0  0  0  0  0  0  0  0  0  0
  -30.9633   12.6675  -18.7397 O   0  0  0  0  0  0  0  0  0  0  0  0
  -26.5885   14.2015  -20.9121 C   0  0  0  0  0  0  0  0  0  0  0  0
  -27.4566   14.0509  -22.0826 N   0  0  0  0  0  0  0  0  0  0  0  0
  -27.7458   13.0250  -22.4394 N   0  3  0  0  0  0  0  0  0  0  0  0
  -28.0351   11.9992  -22.7961 N   0  5  0  0  0  0  0  0  0  0  0  0
  -25.6097   13.4172  -18.2590 H   0  0  0  0  0  0  0  0  0  0  0  0
  -29.3620   14.2988  -21.1571 H   0  0  0  0  0  0  0  0  0  0  0  0
  -31.3626   14.3630  -19.7932 H   0  0  0  0  0  0  0  0  0  0  0  0
  -32.7078   13.1720  -21.3740 H   0  0  0  0  0  0  0  0  0  0  0  0
  -30.9225   12.9170  -22.9912 H   0  0  0  0  0  0  0  0  0  0  0  0
  -30.2924   10.1859  -22.6257 H   0  0  0  0  0  0  0  0  0  0  0  0
  -32.0081   10.3785  -22.1295 H   0  0  0  0  0  0  0  0  0  0  0  0
  -32.2640   11.6378  -24.1678 H   0  0  0  0  0  0  0  0  0  0  0  0
  -33.0749   11.0161  -21.0300 H   0  0  0  0  0  0  0  0  0  0  0  0
  -31.8936   12.5396  -18.4264 H   0  0  0  0  0  0  0  0  0  0  0  0
  -25.6255   13.7059  -21.1045 H   0  0  0  0  0  0  0  0  0  0  0  0
  -26.4182   15.2708  -20.7177 H   0  0  0  0  0  0  0  0  0  0  0  0
  1  5  1  0  0  0  0
  1  2  2  0  0  0  0
  1 19  1  0  0  0  0
  2  3  1  0  0  0  0
  2 15  1  0  0  0  0
  3  4  1  0  0  0  0
  3  6  1  0  0  0  0
  4  5  2  0  0  0  0
  6 10  1  0  0  0  0
  6  7  1  0  0  0  0
  6 20  1  0  0  0  0
  7  8  1  0  0  0  0
  7 14  1  0  0  0  0
  7 21  1  0  0  0  0
  8  9  1  0  0  0  0
  8 13  1  0  0  0  0
  8 22  1  0  0  0  0
  9 10  1  0  0  0  0
  9 11  1  0  0  0  0
  9 23  1  0  0  0  0
 11 12  1  0  0  0  0
 11 24  1  0  0  0  0
 11 25  1  0  0  0  0
 12 26  1  0  0  0  0
 13 27  1  0  0  0  0
 14 28  1  0  0  0  0
 15 16  1  0  0  0  0
 15 29  1  0  0  0  0
 15 30  1  0  0  0  0
 16 17  2  0  0  0  0
 17 18  2  0  0  0  0
M  END
> <Name>
ZINC05521415

> <reference>
BDB5233

> <quality>
0.733

> <status>
decoy

> <atoms in reference ligand area>
29

> <score>
-36.6511

$$$$
ZINC19751955
      BALL 1.4.0 (Jan  4 2012, 23:22:29)

 34 35  0999  0  0  0  0  0  0999 V2000
  -25.0045   13.4839  -20.5141 C   0  0  0  0  0  0  0  0  0  0  0  0
  -26.1021   14.1678  -19.9061 O   0  0  0  0  0  0  0  0  0  0  0  0
  -27.3382   13.6259  -20.0765 C   0  0  0  0  0  0  0  0  0  0  0  0
  -27.6213   12.9102  -21.2209 C   0  0  0  0  0  0  0  0  0  0  0  0
  -28.8917   12.3530  -21.3954 C   0  0  0  0  0  0  0  0  0  0  0  0
  -29.8687   12.5283  -20.4017 C   0  0  0  0  0  0  0  0  0  0  0  0
  -29.5718   13.2509  -19.2542 C   0  0  0  0  0  0  0  0  0  0  0  0
  -28.3113   13.7928  -19.0894 C   0  0  0  0  0  0  0  0  0  0  0  0
  -28.0189   14.4961  -17.9624 O   0  0  0  0  0  0  0  0  0  0  0  0
  -28.0598   15.9212  -18.0581 C   0  0  0  0  0  0  0  0  0  0  0  0
  -30.9972   11.8727  -20.8571 N   0  0  0  0  0  0  0  0  0  0  0  0
  -30.6910   11.3354  -22.0696 C   0  0  0  0  0  0  0  0  0  0  0  0
  -29.4606   11.6158  -22.3848 N   0  0  0  0  0  0  0  0  0  0  0  0
  -31.6393   10.5327  -22.9226 C   0  0  0  0  0  0  0  0  0  0  0  0
  -31.4620   10.9027  -24.3331 N   0  3  0  0  0  0  0  0  0  0  0  0
  -32.2839   11.7743  -20.1636 C   0  0  0  0  0  0  0  0  0  0  0  0
  -33.3126   12.5983  -20.8941 C   0  0  0  0  0  0  0  0  0  0  0  0
  -32.9740   13.5840  -21.5053 O   0  0  0  0  0  0  0  0  0  0  0  0
  -34.6052   12.2372  -20.8658 O   0  5  0  0  0  0  0  0  0  0  0  0
  -24.1610   13.5682  -19.8130 H   0  0  0  0  0  0  0  0  0  0  0  0
  -24.7486   14.0535  -21.4197 H   0  0  0  0  0  0  0  0  0  0  0  0
  -25.2340   12.4337  -20.7474 H   0  0  0  0  0  0  0  0  0  0  0  0
  -26.8499   12.7780  -21.9938 H   0  0  0  0  0  0  0  0  0  0  0  0
  -30.3382   13.3918  -18.4777 H   0  0  0  0  0  0  0  0  0  0  0  0
  -28.2919   16.1541  -19.1078 H   0  0  0  0  0  0  0  0  0  0  0  0
  -27.0386   16.2744  -17.8520 H   0  0  0  0  0  0  0  0  0  0  0  0
  -28.7910   16.3730  -17.3717 H   0  0  0  0  0  0  0  0  0  0  0  0
  -31.4285    9.4606  -22.7960 H   0  0  0  0  0  0  0  0  0  0  0  0
  -32.6752   10.7413  -22.6170 H   0  0  0  0  0  0  0  0  0  0  0  0
  -31.3480   10.0508  -24.9008 H   0  0  0  0  0  0  0  0  0  0  0  0
  -30.6248   11.4945  -24.4312 H   0  0  0  0  0  0  0  0  0  0  0  0
  -32.2892   11.4229  -24.6588 H   0  0  0  0  0  0  0  0  0  0  0  0
  -32.1771   12.1500  -19.1353 H   0  0  0  0  0  0  0  0  0  0  0  0
  -32.6075   10.7232  -20.1382 H   0  0  0  0  0  0  0  0  0  0  0  0
  1  2  1  0  0  0  0
  1 20  1  0  0  0  0
  1 21  1  0  0  0  0
  1 22  1  0  0  0  0
  2  3  1  0  0  0  0
  3  8  2  0  0  0  0
  3  4  1  0  0  0  0
  4  5  2  0  0  0  0
  4 23  1  0  0  0  0
  5 13  1  0  0  0  0
  5  6  1  0  0  0  0
  6  7  2  0  0  0  0
  6 11  1  0  0  0  0
  7  8  1  0  0  0  0
  7 24  1  0  0  0  0
  8  9  1  0  0  0  0
  9 10  1  0  0  0  0
 10 25  1  0  0  0  0
 10 26  1  0  0  0  0
 10 27  1  0  0  0  0
 11 12  1  0  0  0  0
 11 16  1  0  0  0  0
 12 13  2  0  0  0  0
 12 14  1  0  0  0  0
 14 15  1  0  0  0  0
 14 28  1  0  0  0  0
 14 29  1  0  0  0  0
 15 30  1  0  0  0  0
 15 31  1  0  0  0  0
 15 32  1  0  0  0  0
 16 17  1  0  0  0  0
 16 33  1  0  0  0  0
 16 34  1  0  0  0  0
 17 18  2  0  0  0  0
 17 19  1  0  0  0  0
M  END
> <Name>
ZINC19751955

> <reference>
BDB5242

> <quality>
0.756

> <status>
decoy

> <atoms in reference ligand area>
24

> <score>
-36.1071

$$$$
ZINC05192440
      BALL 1.4.0 (Jan  4 2012, 23:22:29)

 43 44  0999  0  0  0  0  0  0999 V2000
  -32.7894   14.0291  -21.0581 C   0  0  0  0  0  0  0  0  0  0  0  0
  -33.7557   13.3719  -20.0493 C   0  0  0  0  0  0  0  0  0  0  0  0
  -33.5386   11.8650  -19.8814 C   0  0  0  0  0  0  0  0  0  0  0  0
  -32.3966   11.3020  -20.7544 C   0  0  0  0  0  0  0  0  0  0  0  0
  -31.3952   12.8201  -21.0680 S   0  0  0  0  0  0  0  0  0  0  0  0
  -31.5839   10.2564  -19.9882 C   0  0  0  0  0  0  0  0  0  0  0  0
  -31.5467    8.9527  -20.7882 C   0  0  0  0  0  0  0  0  0  0  0  0
  -31.4410    7.7673  -19.8267 C   0  0  0  0  0  0  0  0  0  0  0  0
  -30.4793    6.7267  -20.4040 C   0  0  0  0  0  0  0  0  0  0  0  0
  -30.3750    5.5591  -19.4571 C   0  0  0  0  0  0  0  0  0  0  0  0
  -31.3171    4.8090  -19.3131 O   0  0  0  0  0  0  0  0  0  0  0  0
  -29.2347    5.3481  -18.7702 N   0  0  0  0  0  0  0  0  0  0  0  0
  -29.0574    5.9338  -17.5100 N   0  0  0  0  0  0  0  0  0  0  0  0
  -27.8177    6.0736  -17.0002 C   0  0  0  0  0  0  0  0  0  0  0  0
  -26.8555    5.6924  -17.6325 O   0  0  0  0  0  0  0  0  0  0  0  0
  -27.6270    6.7036  -15.6445 C   0  0  0  0  0  0  0  0  0  0  0  0
  -26.2800    7.1637  -15.5183 O   0  0  0  0  0  0  0  0  0  0  0  0
  -26.1287    8.3299  -14.6480 N   0  0  0  0  0  0  0  0  0  0  0  0
  -33.1798   11.7116  -18.4626 N   0  0  0  0  0  0  0  0  0  0  0  0
  -33.1812   12.9180  -17.8791 C   0  0  0  0  0  0  0  0  0  0  0  0
  -32.9190   13.0867  -16.7038 O   0  0  0  0  0  0  0  0  0  0  0  0
  -33.4982   13.9215  -18.7088 N   0  0  0  0  0  0  0  0  0  0  0  0
  -33.2475   14.0829  -22.0567 H   0  0  0  0  0  0  0  0  0  0  0  0
  -32.4393   15.0023  -20.6838 H   0  0  0  0  0  0  0  0  0  0  0  0
  -34.7641   13.5694  -20.4420 H   0  0  0  0  0  0  0  0  0  0  0  0
  -34.4392   11.3143  -20.1906 H   0  0  0  0  0  0  0  0  0  0  0  0
  -32.7366   10.7893  -21.6664 H   0  0  0  0  0  0  0  0  0  0  0  0
  -30.5580   10.6249  -19.8410 H   0  0  0  0  0  0  0  0  0  0  0  0
  -32.0512   10.0720  -19.0096 H   0  0  0  0  0  0  0  0  0  0  0  0
  -32.4675    8.8609  -21.3828 H   0  0  0  0  0  0  0  0  0  0  0  0
  -30.6755    8.9580  -21.4598 H   0  0  0  0  0  0  0  0  0  0  0  0
  -31.0625    8.1161  -18.8546 H   0  0  0  0  0  0  0  0  0  0  0  0
  -32.4338    7.3132  -19.6922 H   0  0  0  0  0  0  0  0  0  0  0  0
  -29.4855    7.1789  -20.5382 H   0  0  0  0  0  0  0  0  0  0  0  0
  -30.8574    6.3772  -21.3761 H   0  0  0  0  0  0  0  0  0  0  0  0
  -28.4936    4.7562  -19.1719 H   0  0  0  0  0  0  0  0  0  0  0  0
  -29.8746    6.2576  -16.9730 H   0  0  0  0  0  0  0  0  0  0  0  0
  -28.3162    7.5539  -15.5350 H   0  0  0  0  0  0  0  0  0  0  0  0
  -27.8347    5.9600  -14.8610 H   0  0  0  0  0  0  0  0  0  0  0  0
  -27.0709    8.7000  -14.4579 H   0  0  0  0  0  0  0  0  0  0  0  0
  -25.5985    9.0413  -15.1712 H   0  0  0  0  0  0  0  0  0  0  0  0
  -32.9625   10.8207  -17.9937 H   0  0  0  0  0  0  0  0  0  0  0  0
  -33.5529   14.9170  -18.4499 H   0  0  0  0  0  0  0  0  0  0  0  0
  1  5  1  0  0  0  0
  1  2  1  0  0  0  0
  1 23  1  0  0  0  0
  1 24  1  0  0  0  0
  2 22  1  0  0  0  0
  2  3  1  0  0  0  0
  2 25  1  0  0  0  0
  3  4  1  0  0  0  0
  3 19  1  0  0  0  0
  3 26  1  0  0  0  0
  4  5  1  0  0  0  0
  4  6  1  0  0  0  0
  4 27  1  0  0  0  0
  6  7  1  0  0  0  0
  6 28  1  0  0  0  0
  6 29  1  0  0  0  0
  7  8  1  0  0  0  0
  7 30  1  0  0  0  0
  7 31  1  0  0  0  0
  8  9  1  0  0  0  0
  8 32  1  0  0  0  0
  8 33  1  0  0  0  0
  9 10  1  0  0  0  0
  9 34  1  0  0  0  0
  9 35  1  0  0  0  0
 10 11  2  0  0  0  0
 10 12  1  0  0  0  0
 12 13  1  0  0  0  0
 12 36  1  0  0  0  0
 13 14  1  0  0  0  0
 13 37  1  0  0  0  0
 14 15  2  0  0  0  0
 14 16  1  0  0  0  0
 16 17  1  0  0  0  0
 16 38  1  0  0  0  0
 16 39  1  0  0  0  0
 17 18  1  0  0  0  0
 18 40  1  0  0  0  0
 18 41  1  0  0  0  0
 19 20  1  0  0  0  0
 19 42  1  0  0  0  0
 20 21  2  0  0  0  0
 20 22  1  0  0  0  0
 22 43  1  0  0  0  0
M  END
> <Name>
ZINC05192440

> <reference>
BDB5013

> <quality>
0.720

> <status>
decoy

> <atoms in reference ligand area>
13

> <score>
-35.38

$$$$
ZINC22047827
      BALL 1.4.0 (Jan  4 2012, 23:22:29)

 41 42  0999  0  0  0  0  0  0999 V2000
  -28.3587   11.4931  -23.3838 C   0  0  0  0  0  0  0  0  0  0  0  0
  -29.2767   10.5490  -23.8378 C   0  0  0  0  0  0  0  0  0  0  0  0
  -30.2596   10.0735  -23.0204 C   0  0  0  0  0  0  0  0  0  0  0  0
  -30.3522   10.5500  -21.7088 C   0  0  0  0  0  0  0  0  0  0  0  0
  -29.4174   11.5120  -21.2452 C   0  0  0  0  0  0  0  0  0  0  0  0
  -28.4172   11.9750  -22.1098 C   0  0  0  0  0  0  0  0  0  0  0  0
  -29.5428   11.9608  -19.9174 C   0  0  0  0  0  0  0  0  0  0  0  0
  -30.5076   11.4780  -19.1684 N   0  0  0  0  0  0  0  0  0  0  0  0
  -31.3550   10.6098  -19.5792 N   0  0  0  0  0  0  0  0  0  0  0  0
  -31.3445   10.1098  -20.8031 C   0  0  0  0  0  0  0  0  0  0  0  0
  -32.2873    9.1722  -21.1904 N   0  0  0  0  0  0  0  0  0  0  0  0
  -32.5449    8.9584  -22.5508 N   0  0  0  0  0  0  0  0  0  0  0  0
  -33.7521    8.8694  -22.9674 C   0  0  0  0  0  0  0  0  0  0  0  0
  -34.8968    9.1137  -22.0181 C   0  0  0  0  0  0  0  0  0  0  0  0
  -36.1078    9.2658  -22.7613 O   0  0  0  0  0  0  0  0  0  0  0  0
  -34.0285    8.5201  -24.4071 C   0  0  0  0  0  0  0  0  0  0  0  0
  -34.5034    7.0685  -24.4976 C   0  0  0  0  0  0  0  0  0  0  0  0
  -35.1334    6.8227  -25.8701 C   0  0  0  0  0  0  0  0  0  0  0  0
  -34.0557    6.3520  -26.8490 C   0  0  0  0  0  0  0  0  0  0  0  0
  -33.8863    7.3298  -27.8772 O   0  0  0  0  0  0  0  0  0  0  0  0
  -35.7164    8.0356  -26.3507 O   0  0  0  0  0  0  0  0  0  0  0  0
  -35.4725    6.8198  -23.4773 O   0  0  0  0  0  0  0  0  0  0  0  0
  -35.0425    9.3860  -24.9210 O   0  0  0  0  0  0  0  0  0  0  0  0
  -27.5740   11.8556  -24.0640 H   0  0  0  0  0  0  0  0  0  0  0  0
  -29.2079   10.1811  -24.8721 H   0  0  0  0  0  0  0  0  0  0  0  0
  -30.9729    9.3219  -23.3895 H   0  0  0  0  0  0  0  0  0  0  0  0
  -27.6859   12.7204  -21.7641 H   0  0  0  0  0  0  0  0  0  0  0  0
  -28.8423   12.7059  -19.5123 H   0  0  0  0  0  0  0  0  0  0  0  0
  -32.7991    8.6321  -20.4782 H   0  0  0  0  0  0  0  0  0  0  0  0
  -34.7054   10.0291  -21.4390 H   0  0  0  0  0  0  0  0  0  0  0  0
  -34.9930    8.2592  -21.3320 H   0  0  0  0  0  0  0  0  0  0  0  0
  -36.4944   10.1598  -22.5845 H   0  0  0  0  0  0  0  0  0  0  0  0
  -33.1083    8.6423  -24.9973 H   0  0  0  0  0  0  0  0  0  0  0  0
  -33.6459    6.3930  -24.3615 H   0  0  0  0  0  0  0  0  0  0  0  0
  -35.9122    6.0508  -25.7832 H   0  0  0  0  0  0  0  0  0  0  0  0
  -34.3606    5.3961  -27.2997 H   0  0  0  0  0  0  0  0  0  0  0  0
  -33.1055    6.2175  -26.3114 H   0  0  0  0  0  0  0  0  0  0  0  0
  -33.1946    7.9826  -27.6024 H   0  0  0  0  0  0  0  0  0  0  0  0
  -35.0161    8.7308  -26.4295 H   0  0  0  0  0  0  0  0  0  0  0  0
  -36.3081    7.3069  -23.6886 H   0  0  0  0  0  0  0  0  0  0  0  0
  -34.7417    9.7744  -25.7805 H   0  0  0  0  0  0  0  0  0  0  0  0
  1  6  1  0  0  0  0
  1  2  2  0  0  0  0
  1 24  1  0  0  0  0
  2  3  1  0  0  0  0
  2 25  1  0  0  0  0
  3  4  2  0  0  0  0
  3 26  1  0  0  0  0
  4 10  1  0  0  0  0
  4  5  1  0  0  0  0
  5  6  2  0  0  0  0
  5  7  1  0  0  0  0
  6 27  1  0  0  0  0
  7  8  2  0  0  0  0
  7 28  1  0  0  0  0
  8  9  1  0  0  0  0
  9 10  2  0  0  0  0
 10 11  1  0  0  0  0
 11 12  1  0  0  0  0
 11 29  1  0  0  0  0
 12 13  2  0  0  0  0
 13 14  1  0  0  0  0
 13 16  1  0  0  0  0
 14 15  1  0  0  0  0
 14 30  1  0  0  0  0
 14 31  1  0  0  0  0
 15 32  1  0  0  0  0
 16 17  1  0  0  0  0
 16 23  1  0  0  0  0
 16 33  1  0  0  0  0
 17 18  1  0  0  0  0
 17 22  1  0  0  0  0
 17 34  1  0  0  0  0
 18 19  1  0  0  0  0
 18 21  1  0  0  0  0
 18 35  1  0  0  0  0
 19 20  1  0  0  0  0
 19 36  1  0  0  0  0
 19 37  1  0  0  0  0
 20 38  1  0  0  0  0
 21 39  1  0  0  0  0
 22 40  1  0  0  0  0
 23 41  1  0  0  0  0
M  END
> <Name>
ZINC22047827

> <reference>
BDB5013

> <quality>
0.688

> <status>
decoy

> <atoms in reference ligand area>
13

> <score>
-35.2766

$$$$
ZINC15771728
      BALL 1.4.0 (Jan  4 2012, 23:22:29)

 52 52  0999  0  0  0  0  0  0999 V2000
  -32.6196   17.9195  -20.1115 C   0  0  0  0  0  0  0  0  0  0  0  0
  -33.1276   16.6409  -20.4976 O   0  0  0  0  0  0  0  0  0  0  0  0
  -32.2230   15.6363  -20.6459 C   0  0  0  0  0  0  0  0  0  0  0  0
  -32.6088   14.4328  -21.2141 C   0  0  0  0  0  0  0  0  0  0  0  0
  -31.6869   13.4145  -21.3689 C   0  0  0  0  0  0  0  0  0  0  0  0
  -30.3818   13.5895  -20.9474 C   0  0  0  0  0  0  0  0  0  0  0  0
  -29.9903   14.7877  -20.3798 C   0  0  0  0  0  0  0  0  0  0  0  0
  -30.9080   15.8144  -20.2270 C   0  0  0  0  0  0  0  0  0  0  0  0
  -30.5246   16.9936  -19.6683 O   0  0  0  0  0  0  0  0  0  0  0  0
  -29.4846   17.7169  -20.3296 C   0  0  0  0  0  0  0  0  0  0  0  0
  -29.3823   12.4738  -21.1129 C   0  0  0  0  0  0  0  0  0  0  0  0
  -29.7203   11.3386  -20.1444 C   0  0  0  0  0  0  0  0  0  0  0  0
  -31.4292    9.7407  -19.5206 C   0  0  0  0  0  0  0  0  0  0  0  0
  -32.3866    8.7806  -20.2294 C   0  0  0  0  0  0  0  0  0  0  0  0
  -32.4588    9.1372  -21.7156 C   0  0  0  0  0  0  0  0  0  0  0  0
  -31.0482    9.1406  -22.3084 C   0  0  0  0  0  0  0  0  0  0  0  0
  -31.0887    9.7345  -23.7178 C   0  0  0  0  0  0  0  0  0  0  0  0
  -29.6783    9.7379  -24.3105 C   0  0  0  0  0  0  0  0  0  0  0  0
  -29.5817   10.7599  -25.3047 O   0  0  0  0  0  0  0  0  0  0  0  0
  -31.5826   11.0741  -23.6561 O   0  0  0  0  0  0  0  0  0  0  0  0
  -30.5543    7.8011  -22.3700 O   0  0  0  0  0  0  0  0  0  0  0  0
  -33.0420   10.4330  -21.8668 O   0  0  0  0  0  0  0  0  0  0  0  0
  -31.9121    7.4406  -20.0836 O   0  0  0  0  0  0  0  0  0  0  0  0
  -31.0760   10.8380  -20.4408 N   0  3  0  0  0  0  0  0  0  0  0  0
  -33.4962   18.5536  -19.9135 H   0  0  0  0  0  0  0  0  0  0  0  0
  -32.1018   18.3256  -20.9930 H   0  0  0  0  0  0  0  0  0  0  0  0
  -31.9523   17.8663  -19.2386 H   0  0  0  0  0  0  0  0  0  0  0  0
  -33.6487   14.2878  -21.5420 H   0  0  0  0  0  0  0  0  0  0  0  0
  -31.9923   12.4629  -21.8284 H   0  0  0  0  0  0  0  0  0  0  0  0
  -28.9502   14.9259  -20.0494 H   0  0  0  0  0  0  0  0  0  0  0  0
  -29.9779   18.3472  -21.0842 H   0  0  0  0  0  0  0  0  0  0  0  0
  -28.8766   16.9690  -20.8598 H   0  0  0  0  0  0  0  0  0  0  0  0
  -28.8760   18.3162  -19.6364 H   0  0  0  0  0  0  0  0  0  0  0  0
  -29.4203   12.0974  -22.1458 H   0  0  0  0  0  0  0  0  0  0  0  0
  -28.3716   12.8503  -20.8967 H   0  0  0  0  0  0  0  0  0  0  0  0
  -28.9929   10.5224  -20.2664 H   0  0  0  0  0  0  0  0  0  0  0  0
  -29.6854   11.7132  -19.1108 H   0  0  0  0  0  0  0  0  0  0  0  0
  -31.9186   10.1545  -18.6266 H   0  0  0  0  0  0  0  0  0  0  0  0
  -30.5170    9.2010  -19.2261 H   0  0  0  0  0  0  0  0  0  0  0  0
  -33.3882    8.8655  -19.7829 H   0  0  0  0  0  0  0  0  0  0  0  0
  -33.0757    8.3938  -22.2415 H   0  0  0  0  0  0  0  0  0  0  0  0
  -30.3853    9.7471  -21.6737 H   0  0  0  0  0  0  0  0  0  0  0  0
  -31.7517    9.1281  -24.3523 H   0  0  0  0  0  0  0  0  0  0  0  0
  -29.4699    8.7601  -24.7694 H   0  0  0  0  0  0  0  0  0  0  0  0
  -28.9458    9.9322  -23.5133 H   0  0  0  0  0  0  0  0  0  0  0  0
  -30.1202   10.5045  -26.0951 H   0  0  0  0  0  0  0  0  0  0  0  0
  -32.5682   11.0680  -23.7498 H   0  0  0  0  0  0  0  0  0  0  0  0
  -30.2247    7.5285  -21.4772 H   0  0  0  0  0  0  0  0  0  0  0  0
  -33.5247   10.4800  -22.7298 H   0  0  0  0  0  0  0  0  0  0  0  0
  -32.6558    6.8070  -20.2434 H   0  0  0  0  0  0  0  0  0  0  0  0
  -31.7545   11.6053  -20.3325 H   0  0  0  0  0  0  0  0  0  0  0  0
  -31.1091   10.4931  -21.4108 H   0  0  0  0  0  0  0  0  0  0  0  0
  1  2  1  0  0  0  0
  1 25  1  0  0  0  0
  1 26  1  0  0  0  0
  1 27  1  0  0  0  0
  2  3  1  0  0  0  0
  3  8  2  0  0  0  0
  3  4  1  0  0  0  0
  4  5  2  0  0  0  0
  4 28  1  0  0  0  0
  5  6  1  0  0  0  0
  5 29  1  0  0  0  0
  6  7  2  0  0  0  0
  6 11  1  0  0  0  0
  7  8  1  0  0  0  0
  7 30  1  0  0  0  0
  8  9  1  0  0  0  0
  9 10  1  0  0  0  0
 10 31  1  0  0  0  0
 10 32  1  0  0  0  0
 10 33  1  0  0  0  0
 11 12  1  0  0  0  0
 11 34  1  0  0  0  0
 11 35  1  0  0  0  0
 12 24  1  0  0  0  0
 12 36  1  0  0  0  0
 12 37  1  0  0  0  0
 13 14  1  0  0  0  0
 13 24  1  0  0  0  0
 13 38  1  0  0  0  0
 13 39  1  0  0  0  0
 14 15  1  0  0  0  0
 14 23  1  0  0  0  0
 14 40  1  0  0  0  0
 15 16  1  0  0  0  0
 15 22  1  0  0  0  0
 15 41  1  0  0  0  0
 16 17  1  0  0  0  0
 16 21  1  0  0  0  0
 16 42  1  0  0  0  0
 17 18  1  0  0  0  0
 17 20  1  0  0  0  0
 17 43  1  0  0  0  0
 18 19  1  0  0  0  0
 18 44  1  0  0  0  0
 18 45  1  0  0  0  0
 19 46  1  0  0  0  0
 20 47  1  0  0  0  0
 21 48  1  0  0  0  0
 22 49  1  0  0  0  0
 23 50  1  0  0  0  0
 24 51  1  0  0  0  0
 24 52  1  0  0  0  0
M  END
> <Name>
ZINC15771728

> <reference>
BDB4997

> <quality>
0.657

> <status>
decoy

> <atoms in reference ligand area>
19

> <score>
-34.1368

$$$$
ZINC15690560
      BALL 1.4.0 (Jan  4 2012, 23:22:29)

 30 31  0999  0  0  0  0  0  0999 V2000
  -34.3362    9.3617  -22.2873 C   0  0  0  0  0  0  0  0  0  0  0  0
  -35.6493    9.0525  -23.0458 C   0  0  0  0  0  0  0  0  0  0  0  0
  -35.0546    8.1349  -24.5246 S   0  0  0  0  0  0  0  0  0  0  0  0
  -35.3760    8.8801  -25.6911 O   0  0  0  0  0  0  0  0  0  0  0  0
  -35.4674    6.7789  -24.4254 O   0  0  0  0  0  0  0  0  0  0  0  0
  -33.2378    8.2313  -24.2335 C   0  0  0  0  0  0  0  0  0  0  0  0
  -33.1669    9.4591  -23.2811 C   0  0  0  0  0  0  0  0  0  0  0  0
  -31.9073    9.4476  -22.5590 O   0  0  0  0  0  0  0  0  0  0  0  0
  -31.1935   10.5843  -22.5606 C   0  0  0  0  0  0  0  0  0  0  0  0
  -31.3939   11.4224  -23.4076 O   0  0  0  0  0  0  0  0  0  0  0  0
  -30.1420   10.8153  -21.5060 C   0  0  0  0  0  0  0  0  0  0  0  0
  -30.1959   12.5467  -20.9675 S   0  0  0  0  0  0  0  0  0  0  0  0
  -28.5002   12.9903  -20.7879 C   0  0  0  0  0  0  0  0  0  0  0  0
  -27.4275   12.1761  -21.0214 N   0  0  0  0  0  0  0  0  0  0  0  0
  -26.2916   12.8904  -20.7650 C   0  0  0  0  0  0  0  0  0  0  0  0
  -26.6459   14.0972  -20.3979 N   0  0  0  0  0  0  0  0  0  0  0  0
  -28.0454   14.1610  -20.4122 N   0  0  0  0  0  0  0  0  0  0  0  0
  -24.9892   12.4213  -20.8792 N   0  0  0  0  0  0  0  0  0  0  0  0
  -34.4413   10.3160  -21.7502 H   0  0  0  0  0  0  0  0  0  0  0  0
  -34.1349    8.5582  -21.5635 H   0  0  0  0  0  0  0  0  0  0  0  0
  -36.3011    8.4046  -22.4413 H   0  0  0  0  0  0  0  0  0  0  0  0
  -36.1444    9.9837  -23.3584 H   0  0  0  0  0  0  0  0  0  0  0  0
  -32.7152    8.4398  -25.1787 H   0  0  0  0  0  0  0  0  0  0  0  0
  -32.8900    7.3209  -23.7235 H   0  0  0  0  0  0  0  0  0  0  0  0
  -33.2337   10.3933  -23.8580 H   0  0  0  0  0  0  0  0  0  0  0  0
  -30.3351   10.1581  -20.6453 H   0  0  0  0  0  0  0  0  0  0  0  0
  -29.1485   10.5924  -21.9221 H   0  0  0  0  0  0  0  0  0  0  0  0
  -27.4683   11.1960  -21.3355 H   0  0  0  0  0  0  0  0  0  0  0  0
  -24.6024   12.4025  -21.8336 H   0  0  0  0  0  0  0  0  0  0  0  0
  -24.4328   12.1087  -20.0708 H   0  0  0  0  0  0  0  0  0  0  0  0
  1  7  1  0  0  0  0
  1  2  1  0  0  0  0
  1 19  1  0  0  0  0
  1 20  1  0  0  0  0
  2  3  1  0  0  0  0
  2 21  1  0  0  0  0
  2 22  1  0  0  0  0
  3  4  2  0  0  0  0
  3  5  2  0  0  0  0
  3  6  1  0  0  0  0
  6  7  1  0  0  0  0
  6 23  1  0  0  0  0
  6 24  1  0  0  0  0
  7  8  1  0  0  0  0
  7 25  1  0  0  0  0
  8  9  1  0  0  0  0
  9 10  2  0  0  0  0
  9 11  1  0  0  0  0
 11 12  1  0  0  0  0
 11 26  1  0  0  0  0
 11 27  1  0  0  0  0
 12 13  1  0  0  0  0
 13 17  2  0  0  0  0
 13 14  1  0  0  0  0
 14 15  1  0  0  0  0
 14 28  1  0  0  0  0
 15 16  2  0  0  0  0
 15 18  1  0  0  0  0
 16 17  1  0  0  0  0
 18 29  1  0  0  0  0
 18 30  1  0  0  0  0
M  END
> <Name>
ZINC15690560

> <reference>
BDB4937

> <quality>
0.737

> <status>
decoy

> <atoms in reference ligand area>
13

> <score>
-34.0863

$$$$
ZINC15939612
      BALL 1.4.0 (Jan  4 2012, 23:22:29)

 54 56  0999  0  0  0  0  0  0999 V2000
  -30.5097   10.7569  -23.7279 C   0  0  0  0  0  0  0  0  0  0  0  0
  -30.5087    9.8061  -22.5291 C   0  0  0  0  0  0  0  0  0  0  0  0
  -30.2004   10.5576  -21.3100 N   0  0  0  0  0  0  0  0  0  0  0  0
  -29.4113   11.6467  -21.4137 C   0  0  0  0  0  0  0  0  0  0  0  0
  -28.9674   11.9937  -22.4929 O   0  0  0  0  0  0  0  0  0  0  0  0
  -29.0996   12.4041  -20.1937 C   0  0  0  0  0  0  0  0  0  0  0  0
  -28.2966   13.5404  -20.1939 C   0  0  0  0  0  0  0  0  0  0  0  0
  -28.0521   14.1950  -19.0055 C   0  0  0  0  0  0  0  0  0  0  0  0
  -28.5979   13.7328  -17.8151 C   0  0  0  0  0  0  0  0  0  0  0  0
  -29.3962   12.6087  -17.7941 C   0  0  0  0  0  0  0  0  0  0  0  0
  -29.6600   11.9365  -18.9824 C   0  0  0  0  0  0  0  0  0  0  0  0
  -30.4961   10.7270  -19.0457 C   0  0  0  0  0  0  0  0  0  0  0  0
  -30.6944   10.1460  -20.2039 N   0  0  0  0  0  0  0  0  0  0  0  0
  -31.1092   10.1779  -17.8199 C   0  0  0  0  0  0  0  0  0  0  0  0
  -31.7294   10.9077  -17.0709 O   0  0  0  0  0  0  0  0  0  0  0  0
  -30.9812    8.8676  -17.5312 N   0  0  0  0  0  0  0  0  0  0  0  0
  -30.3563    8.4703  -16.3419 N   0  0  0  0  0  0  0  0  0  0  0  0
  -30.2283    7.1600  -16.0532 C   0  0  0  0  0  0  0  0  0  0  0  0
  -30.7318    6.7088  -15.0463 O   0  0  0  0  0  0  0  0  0  0  0  0
  -29.4594    6.2555  -16.9815 C   0  0  0  0  0  0  0  0  0  0  0  0
  -30.2369    6.2692  -18.6205 S   0  0  0  0  0  0  0  0  0  0  0  0
  -28.9301    5.6781  -19.7311 C   0  0  0  0  0  0  0  0  0  0  0  0
  -28.7601    4.1672  -19.5600 C   0  0  0  0  0  0  0  0  0  0  0  0
  -29.3077    5.9826  -21.1578 C   0  0  0  0  0  0  0  0  0  0  0  0
  -30.4658    6.1986  -21.4458 O   0  0  0  0  0  0  0  0  0  0  0  0
  -28.3583    6.0151  -22.1139 N   0  0  0  0  0  0  0  0  0  0  0  0
  -28.7078    6.2972  -23.4347 C   0  0  0  0  0  0  0  0  0  0  0  0
  -27.8333    6.3686  -24.5514 C   0  0  0  0  0  0  0  0  0  0  0  0
  -28.6503    6.6669  -25.5871 C   0  0  0  0  0  0  0  0  0  0  0  0
  -29.8901    6.7551  -25.0841 O   0  0  0  0  0  0  0  0  0  0  0  0
  -29.9068    6.5431  -23.8937 N   0  0  0  0  0  0  0  0  0  0  0  0
  -28.2464    6.8612  -27.0259 C   0  0  0  0  0  0  0  0  0  0  0  0
  -31.5453   11.0261  -23.9829 H   0  0  0  0  0  0  0  0  0  0  0  0
  -30.0372   10.2626  -24.5896 H   0  0  0  0  0  0  0  0  0  0  0  0
  -29.9470   11.6676  -23.4749 H   0  0  0  0  0  0  0  0  0  0  0  0
  -31.4998    9.3391  -22.4306 H   0  0  0  0  0  0  0  0  0  0  0  0
  -29.7488    9.0252  -22.6797 H   0  0  0  0  0  0  0  0  0  0  0  0
  -27.8611   13.9127  -21.1330 H   0  0  0  0  0  0  0  0  0  0  0  0
  -27.4176   15.0935  -19.0001 H   0  0  0  0  0  0  0  0  0  0  0  0
  -28.3910   14.2699  -16.8777 H   0  0  0  0  0  0  0  0  0  0  0  0
  -29.8205   12.2470  -16.8458 H   0  0  0  0  0  0  0  0  0  0  0  0
  -31.3428    8.1585  -18.1849 H   0  0  0  0  0  0  0  0  0  0  0  0
  -29.9946    9.1794  -15.6883 H   0  0  0  0  0  0  0  0  0  0  0  0
  -28.4222    6.6120  -17.0655 H   0  0  0  0  0  0  0  0  0  0  0  0
  -29.4636    5.2302  -16.5832 H   0  0  0  0  0  0  0  0  0  0  0  0
  -27.9844    6.1836  -19.4861 H   0  0  0  0  0  0  0  0  0  0  0  0
  -28.1559    3.9642  -18.6634 H   0  0  0  0  0  0  0  0  0  0  0  0
  -28.2545    3.7515  -20.4440 H   0  0  0  0  0  0  0  0  0  0  0  0
  -29.7481    3.6965  -19.4490 H   0  0  0  0  0  0  0  0  0  0  0  0
  -27.3747    5.8318  -21.8695 H   0  0  0  0  0  0  0  0  0  0  0  0
  -26.7440    6.2167  -24.5698 H   0  0  0  0  0  0  0  0  0  0  0  0
  -28.4857    7.9212  -27.1961 H   0  0  0  0  0  0  0  0  0  0  0  0
  -29.0169    6.2909  -27.5654 H   0  0  0  0  0  0  0  0  0  0  0  0
  -27.2148    6.5848  -27.2895 H   0  0  0  0  0  0  0  0  0  0  0  0
  1  2  1  0  0  0  0
  1 33  1  0  0  0  0
  1 34  1  0  0  0  0
  1 35  1  0  0  0  0
  2  3  1  0  0  0  0
  2 36  1  0  0  0  0
  2 37  1  0  0  0  0
  3 13  1  0  0  0  0
  3  4  1  0  0  0  0
  4  5  2  0  0  0  0
  4  6  1  0  0  0  0
  6 11  2  0  0  0  0
  6  7  1  0  0  0  0
  7  8  2  0  0  0  0
  7 38  1  0  0  0  0
  8  9  1  0  0  0  0
  8 39  1  0  0  0  0
  9 10  2  0  0  0  0
  9 40  1  0  0  0  0
 10 11  1  0  0  0  0
 10 41  1  0  0  0  0
 11 12  1  0  0  0  0
 12 13  2  0  0  0  0
 12 14  1  0  0  0  0
 14 15  2  0  0  0  0
 14 16  1  0  0  0  0
 16 17  1  0  0  0  0
 16 42  1  0  0  0  0
 17 18  1  0  0  0  0
 17 43  1  0  0  0  0
 18 19  2  0  0  0  0
 18 20  1  0  0  0  0
 20 21  1  0  0  0  0
 20 44  1  0  0  0  0
 20 45  1  0  0  0  0
 21 22  1  0  0  0  0
 22 23  1  0  0  0  0
 22 24  1  0  0  0  0
 22 46  1  0  0  0  0
 23 47  1  0  0  0  0
 23 48  1  0  0  0  0
 23 49  1  0  0  0  0
 24 25  2  0  0  0  0
 24 26  1  0  0  0  0
 26 27  1  0  0  0  0
 26 50  1  0  0  0  0
 27 31  2  0  0  0  0
 27 28  1  0  0  0  0
 28 29  2  0  0  0  0
 28 51  1  0  0  0  0
 29 30  1  0  0  0  0
 29 32  1  0  0  0  0
 30 31  1  0  0  0  0
 32 52  1  0  0  0  0
 32 53  1  0  0  0  0
 32 54  1  0  0  0  0
M  END
> <Name>
ZINC15939612

> <reference>
BDB4968

> <quality>
0.764

> <status>
decoy

> <atoms in reference ligand area>
17

> <score>
-33.3963

$$$$
ZINC19328598
      BALL 1.4.0 (Jan  4 2012, 23:22:29)

 39 39  0999  0  0  0  0  0  0999 V2000
  -25.8992    6.5360  -27.3693 C   0  0  0  0  0  0  0  0  0  0  0  0
  -27.1945    6.8092  -26.6023 C   0  0  0  0  0  0  0  0  0  0  0  0
  -28.3260    6.8169  -27.5390 N   0  3  0  0  0  0  0  0  0  0  0  0
  -27.3987    5.7583  -25.5964 N   0  0  0  0  0  0  0  0  0  0  0  0
  -28.6926    5.9213  -24.9200 C   0  0  0  0  0  0  0  0  0  0  0  0
  -28.5155    6.8108  -23.6878 C   0  0  0  0  0  0  0  0  0  0  0  0
  -29.5697    7.9196  -23.7034 C   0  0  0  0  0  0  0  0  0  0  0  0
  -29.0123    9.1630  -23.0077 C   0  0  0  0  0  0  0  0  0  0  0  0
  -29.4441   10.4138  -23.7757 C   0  0  0  0  0  0  0  0  0  0  0  0
  -30.8167   10.8353  -23.3182 C   0  0  0  0  0  0  0  0  0  0  0  0
  -31.6854   11.0603  -24.1341 O   0  0  0  0  0  0  0  0  0  0  0  0
  -31.0790   10.9623  -22.0023 N   0  0  0  0  0  0  0  0  0  0  0  0
  -32.3532   11.3535  -21.5776 C   0  0  0  0  0  0  0  0  0  0  0  0
  -32.8903   12.5467  -21.7234 N   0  5  0  0  0  0  0  0  0  0  0  0
  -34.1722   12.4647  -21.1549 N   0  0  0  0  0  0  0  0  0  0  0  0
  -34.3106   11.2639  -20.7061 N   0  0  0  0  0  0  0  0  0  0  0  0
  -33.2459   10.5860  -20.9509 N   0  0  0  0  0  0  0  0  0  0  0  0
  -29.4769   10.1182  -25.2143 N   0  3  0  0  0  0  0  0  0  0  0  0
  -25.3412    5.7284  -26.8728 H   0  0  0  0  0  0  0  0  0  0  0  0
  -25.2840    7.4478  -27.3886 H   0  0  0  0  0  0  0  0  0  0  0  0
  -26.1390    6.2349  -28.3998 H   0  0  0  0  0  0  0  0  0  0  0  0
  -27.1256    7.7867  -26.1026 H   0  0  0  0  0  0  0  0  0  0  0  0
  -28.0140    6.4736  -28.4587 H   0  0  0  0  0  0  0  0  0  0  0  0
  -28.6864    7.7769  -27.6358 H   0  0  0  0  0  0  0  0  0  0  0  0
  -29.0733    6.2053  -27.1808 H   0  0  0  0  0  0  0  0  0  0  0  0
  -27.3703    4.8373  -26.0566 H   0  0  0  0  0  0  0  0  0  0  0  0
  -29.4105    6.3896  -25.6095 H   0  0  0  0  0  0  0  0  0  0  0  0
  -29.0717    4.9366  -24.6091 H   0  0  0  0  0  0  0  0  0  0  0  0
  -28.6351    6.2047  -22.7776 H   0  0  0  0  0  0  0  0  0  0  0  0
  -27.5116    7.2602  -23.6998 H   0  0  0  0  0  0  0  0  0  0  0  0
  -29.8268    8.1666  -24.7441 H   0  0  0  0  0  0  0  0  0  0  0  0
  -30.4713    7.5774  -23.1743 H   0  0  0  0  0  0  0  0  0  0  0  0
  -29.3999    9.2127  -21.9794 H   0  0  0  0  0  0  0  0  0  0  0  0
  -27.9139    9.1096  -22.9834 H   0  0  0  0  0  0  0  0  0  0  0  0
  -28.7282   11.2268  -23.5847 H   0  0  0  0  0  0  0  0  0  0  0  0
  -30.3413   10.7713  -21.3093 H   0  0  0  0  0  0  0  0  0  0  0  0
  -28.5211   10.1594  -25.5960 H   0  0  0  0  0  0  0  0  0  0  0  0
  -30.0682   10.8113  -25.6948 H   0  0  0  0  0  0  0  0  0  0  0  0
  -29.8645    9.1756  -25.3631 H   0  0  0  0  0  0  0  0  0  0  0  0
  1  2  1  0  0  0  0
  1 19  1  0  0  0  0
  1 20  1  0  0  0  0
  1 21  1  0  0  0  0
  2  3  1  0  0  0  0
  2  4  1  0  0  0  0
  2 22  1  0  0  0  0
  3 23  1  0  0  0  0
  3 24  1  0  0  0  0
  3 25  1  0  0  0  0
  4  5  1  0  0  0  0
  4 26  1  0  0  0  0
  5  6  1  0  0  0  0
  5 27  1  0  0  0  0
  5 28  1  0  0  0  0
  6  7  1  0  0  0  0
  6 29  1  0  0  0  0
  6 30  1  0  0  0  0
  7  8  1  0  0  0  0
  7 31  1  0  0  0  0
  7 32  1  0  0  0  0
  8  9  1  0  0  0  0
  8 33  1  0  0  0  0
  8 34  1  0  0  0  0
  9 10  1  0  0  0  0
  9 18  1  0  0  0  0
  9 35  1  0  0  0  0
 10 11  2  0  0  0  0
 10 12  1  0  0  0  0
 12 13  1  0  0  0  0
 12 36  1  0  0  0  0
 13 14  1  0  0  0  0
 13 17  2  0  0  0  0
 14 15  1  0  0  0  0
 15 16  2  0  0  0  0
 16 17  1  0  0  0  0
 18 37  1  0  0  0  0
 18 38  1  0  0  0  0
 18 39  1  0  0  0  0
M  END
> <Name>
ZINC19328598

> <reference>
BDB4986

> <quality>
0.714

> <status>
decoy

> <atoms in reference ligand area>
11

> <score>
-32.8005

$$$$
ZINC04777692
      BALL 1.4.0 (Jan  4 2012, 23:22:29)

 41 42  0999  0  0  0  0  0  0999 V2000
  -33.8783    9.3060  -22.2750 C   0  0  0  0  0  0  0  0  0  0  0  0
  -34.5190    8.6475  -23.4291 C   0  0  0  0  0  0  0  0  0  0  0  0
  -35.7074    7.9458  -23.5880 C   0  0  0  0  0  0  0  0  0  0  0  0
  -35.7968    7.5751  -24.8421 N   0  0  0  0  0  0  0  0  0  0  0  0
  -34.6657    8.0234  -25.5443 N   0  0  0  0  0  0  0  0  0  0  0  0
  -33.8689    8.6825  -24.6825 C   0  0  0  0  0  0  0  0  0  0  0  0
  -32.6791    9.3002  -24.8164 N   0  0  0  0  0  0  0  0  0  0  0  0
  -32.0635    9.7428  -23.7499 C   0  0  0  0  0  0  0  0  0  0  0  0
  -32.5161    9.5451  -22.4793 N   0  0  0  0  0  0  0  0  0  0  0  0
  -31.5892    9.5823  -21.3454 C   0  0  0  0  0  0  0  0  0  0  0  0
  -31.3007   11.0373  -20.9701 C   0  0  0  0  0  0  0  0  0  0  0  0
  -29.9424   11.1239  -20.2710 C   0  0  0  0  0  0  0  0  0  0  0  0
  -29.5396   12.5922  -20.1195 C   0  0  0  0  0  0  0  0  0  0  0  0
  -28.3149   12.6935  -19.2079 C   0  0  0  0  0  0  0  0  0  0  0  0
  -27.6161   14.0347  -19.4399 C   0  0  0  0  0  0  0  0  0  0  0  0
  -27.0762   14.5102  -18.2052 O   0  0  0  0  0  0  0  0  0  0  0  0
  -28.7281   12.6013  -17.8430 O   0  0  0  0  0  0  0  0  0  0  0  0
  -29.2241   13.1345  -21.4032 O   0  0  0  0  0  0  0  0  0  0  0  0
  -30.0318   10.5186  -18.9797 O   0  0  0  0  0  0  0  0  0  0  0  0
  -31.2797   11.8391  -22.1528 O   0  0  0  0  0  0  0  0  0  0  0  0
  -34.3995    7.8109  -26.9691 C   0  0  0  0  0  0  0  0  0  0  0  0
  -34.4688    9.6619  -21.1350 N   0  0  0  0  0  0  0  0  0  0  0  0
  -36.4448    7.7376  -22.7988 H   0  0  0  0  0  0  0  0  0  0  0  0
  -31.1285   10.3060  -23.8863 H   0  0  0  0  0  0  0  0  0  0  0  0
  -30.6492    9.0825  -21.6222 H   0  0  0  0  0  0  0  0  0  0  0  0
  -32.0403    9.0650  -20.4858 H   0  0  0  0  0  0  0  0  0  0  0  0
  -32.0859   11.4038  -20.2925 H   0  0  0  0  0  0  0  0  0  0  0  0
  -29.1866   10.5965  -20.8715 H   0  0  0  0  0  0  0  0  0  0  0  0
  -30.3734   13.1574  -19.6776 H   0  0  0  0  0  0  0  0  0  0  0  0
  -27.6188   11.8730  -19.4364 H   0  0  0  0  0  0  0  0  0  0  0  0
  -26.8027   13.9032  -20.1687 H   0  0  0  0  0  0  0  0  0  0  0  0
  -28.3415   14.7651  -19.8276 H   0  0  0  0  0  0  0  0  0  0  0  0
  -26.1284   14.7651  -18.3347 H   0  0  0  0  0  0  0  0  0  0  0  0
  -28.5704   11.6822  -17.5108 H   0  0  0  0  0  0  0  0  0  0  0  0
  -29.9235   13.7827  -21.6696 H   0  0  0  0  0  0  0  0  0  0  0  0
  -29.5172    9.6729  -18.9742 H   0  0  0  0  0  0  0  0  0  0  0  0
  -31.9763   12.5398  -22.0899 H   0  0  0  0  0  0  0  0  0  0  0  0
  -33.3408    7.5122  -26.9701 H   0  0  0  0  0  0  0  0  0  0  0  0
  -34.4193    8.8355  -27.3690 H   0  0  0  0  0  0  0  0  0  0  0  0
  -35.0624    7.1109  -27.4988 H   0  0  0  0  0  0  0  0  0  0  0  0
  -33.9128   10.1182  -20.3978 H   0  0  0  0  0  0  0  0  0  0  0  0
  1  9  1  0  0  0  0
  1  2  1  0  0  0  0
  1 22  2  0  0  0  0
  2  6  2  0  0  0  0
  2  3  1  0  0  0  0
  3  4  2  0  0  0  0
  3 23  1  0  0  0  0
  4  5  1  0  0  0  0
  5  6  1  0  0  0  0
  5 21  1  0  0  0  0
  6  7  1  0  0  0  0
  7  8  2  0  0  0  0
  8  9  1  0  0  0  0
  8 24  1  0  0  0  0
  9 10  1  0  0  0  0
 10 11  1  0  0  0  0
 10 25  1  0  0  0  0
 10 26  1  0  0  0  0
 11 12  1  0  0  0  0
 11 20  1  0  0  0  0
 11 27  1  0  0  0  0
 12 13  1  0  0  0  0
 12 19  1  0  0  0  0
 12 28  1  0  0  0  0
 13 14  1  0  0  0  0
 13 18  1  0  0  0  0
 13 29  1  0  0  0  0
 14 15  1  0  0  0  0
 14 17  1  0  0  0  0
 14 30  1  0  0  0  0
 15 16  1  0  0  0  0
 15 31  1  0  0  0  0
 15 32  1  0  0  0  0
 16 33  1  0  0  0  0
 17 34  1  0  0  0  0
 18 35  1  0  0  0  0
 19 36  1  0  0  0  0
 20 37  1  0  0  0  0
 21 38  1  0  0  0  0
 21 39  1  0  0  0  0
 21 40  1  0  0  0  0
 22 41  1  0  0  0  0
M  END
> <Name>
ZINC04777692

> <reference>
BDB4934

> <quality>
0.663

> <status>
decoy

> <atoms in reference ligand area>
19

> <score>
-32.2792

$$$$
ZINC20261639
      BALL 1.4.0 (Jan  4 2012, 23:22:29)

 36 36  0999  0  0  0  0  0  0999 V2000
  -26.8203    6.4478  -25.3226 C   0  0  0  0  0  0  0  0  0  0  0  0
  -27.3425    6.7393  -23.9144 C   0  0  0  0  0  0  0  0  0  0  0  0
  -28.5386    7.5165  -24.0012 O   0  0  0  0  0  0  0  0  0  0  0  0
  -29.6466    6.8928  -24.4839 C   0  0  0  0  0  0  0  0  0  0  0  0
  -29.5202    5.7373  -25.2372 C   0  0  0  0  0  0  0  0  0  0  0  0
  -30.6477    5.1037  -25.7264 C   0  0  0  0  0  0  0  0  0  0  0  0
  -31.9034    5.6202  -25.4661 C   0  0  0  0  0  0  0  0  0  0  0  0
  -32.0385    6.7702  -24.7113 C   0  0  0  0  0  0  0  0  0  0  0  0
  -30.9115    7.4143  -24.2215 C   0  0  0  0  0  0  0  0  0  0  0  0
  -31.0453    8.5816  -23.4610 N   0  0  0  0  0  0  0  0  0  0  0  0
  -31.7099    8.5337  -22.1563 C   0  0  0  0  0  0  0  0  0  0  0  0
  -30.4526   10.0170  -24.0361 S   0  0  0  0  0  0  0  0  0  0  0  0
  -31.6024   10.8234  -24.2528 O   0  0  0  0  0  0  0  0  0  0  0  0
  -29.6086    9.6525  -25.1197 O   0  0  0  0  0  0  0  0  0  0  0  0
  -29.4635   10.6923  -22.6736 C   0  0  0  0  0  0  0  0  0  0  0  0
  -28.0842   11.0980  -23.1970 C   0  0  0  0  0  0  0  0  0  0  0  0
  -27.8785   12.5350  -22.9721 N   0  3  0  0  0  0  0  0  0  0  0  0
  -26.1314    7.2476  -25.6322 H   0  0  0  0  0  0  0  0  0  0  0  0
  -27.6652    6.4000  -26.0255 H   0  0  0  0  0  0  0  0  0  0  0  0
  -26.2878    5.4853  -25.3251 H   0  0  0  0  0  0  0  0  0  0  0  0
  -27.5583    5.7914  -23.3998 H   0  0  0  0  0  0  0  0  0  0  0  0
  -26.5828    7.2988  -23.3490 H   0  0  0  0  0  0  0  0  0  0  0  0
  -28.5226    5.3236  -25.4462 H   0  0  0  0  0  0  0  0  0  0  0  0
  -30.5452    4.1861  -26.3244 H   0  0  0  0  0  0  0  0  0  0  0  0
  -32.7972    5.1149  -25.8607 H   0  0  0  0  0  0  0  0  0  0  0  0
  -33.0391    7.1746  -24.4989 H   0  0  0  0  0  0  0  0  0  0  0  0
  -32.3603    7.6477  -22.2008 H   0  0  0  0  0  0  0  0  0  0  0  0
  -32.3661    9.4163  -22.1387 H   0  0  0  0  0  0  0  0  0  0  0  0
  -31.0188    8.5060  -21.3010 H   0  0  0  0  0  0  0  0  0  0  0  0
  -29.9701   11.5742  -22.2547 H   0  0  0  0  0  0  0  0  0  0  0  0
  -29.3477    9.9291  -21.8898 H   0  0  0  0  0  0  0  0  0  0  0  0
  -27.3079   10.5292  -22.6643 H   0  0  0  0  0  0  0  0  0  0  0  0
  -28.0219   10.8835  -24.2741 H   0  0  0  0  0  0  0  0  0  0  0  0
  -26.8965   12.7769  -23.1672 H   0  0  0  0  0  0  0  0  0  0  0  0
  -28.1003   12.7655  -21.9930 H   0  0  0  0  0  0  0  0  0  0  0  0
  -28.4945   13.0728  -23.5983 H   0  0  0  0  0  0  0  0  0  0  0  0
  1  2  1  0  0  0  0
  1 18  1  0  0  0  0
  1 19  1  0  0  0  0
  1 20  1  0  0  0  0
  2  3  1  0  0  0  0
  2 21  1  0  0  0  0
  2 22  1  0  0  0  0
  3  4  1  0  0  0  0
  4  9  2  0  0  0  0
  4  5  1  0  0  0  0
  5  6  2  0  0  0  0
  5 23  1  0  0  0  0
  6  7  1  0  0  0  0
  6 24  1  0  0  0  0
  7  8  2  0  0  0  0
  7 25  1  0  0  0  0
  8  9  1  0  0  0  0
  8 26  1  0  0  0  0
  9 10  1  0  0  0  0
 10 11  1  0  0  0  0
 10 12  1  0  0  0  0
 11 27  1  0  0  0  0
 11 28  1  0  0  0  0
 11 29  1  0  0  0  0
 12 13  2  0  0  0  0
 12 14  2  0  0  0  0
 12 15  1  0  0  0  0
 15 16  1  0  0  0  0
 15 30  1  0  0  0  0
 15 31  1  0  0  0  0
 16 17  1  0  0  0  0
 16 32  1  0  0  0  0
 16 33  1  0  0  0  0
 17 34  1  0  0  0  0
 17 35  1  0  0  0  0
 17 36  1  0  0  0  0
M  END
> <Name>
ZINC20261639

> <reference>
BDB5204

> <quality>
0.750

> <status>
decoy

> <atoms in reference ligand area>
10

> <score>
-32.2721

$$$$
ZINC11661273
      BALL 1.4.0 (Jan  4 2012, 23:22:29)

 41 42  0999  0  0  0  0  0  0999 V2000
  -27.1212   12.6695  -21.2154 C   0  0  0  0  0  0  0  0  0  0  0  0
  -27.3825   12.6883  -19.7314 C   0  0  0  0  0  0  0  0  0  0  0  0
  -28.6609   12.7255  -19.1260 C   0  0  0  0  0  0  0  0  0  0  0  0
  -28.5216   12.7269  -17.8298 N   0  0  0  0  0  0  0  0  0  0  0  0
  -27.1306   12.6965  -17.5530 O   0  0  0  0  0  0  0  0  0  0  0  0
  -26.4699   12.6771  -18.8080 N   0  0  0  0  0  0  0  0  0  0  0  0
  -29.8444   12.7498  -19.7895 O   0  0  0  0  0  0  0  0  0  0  0  0
  -29.8155   13.1793  -21.1521 C   0  0  0  0  0  0  0  0  0  0  0  0
  -30.7629   12.3097  -21.9812 C   0  0  0  0  0  0  0  0  0  0  0  0
  -30.8064   10.2268  -23.2150 C   0  0  0  0  0  0  0  0  0  0  0  0
  -29.9889    9.3208  -24.1379 C   0  0  0  0  0  0  0  0  0  0  0  0
  -28.7121    8.8806  -23.4176 C   0  0  0  0  0  0  0  0  0  0  0  0
  -28.0509    7.7678  -24.2397 C   0  0  0  0  0  0  0  0  0  0  0  0
  -28.9467    6.5291  -24.1964 C   0  0  0  0  0  0  0  0  0  0  0  0
  -30.3172    6.8780  -24.5491 N   0  0  0  0  0  0  0  0  0  0  0  0
  -30.8073    8.1174  -24.5085 C   0  0  0  0  0  0  0  0  0  0  0  0
  -31.9765    8.2818  -24.7860 O   0  0  0  0  0  0  0  0  0  0  0  0
  -31.2123    5.7994  -24.9753 C   0  0  0  0  0  0  0  0  0  0  0  0
  -29.6399   10.0406  -25.3220 O   0  0  0  0  0  0  0  0  0  0  0  0
  -29.9691   11.3638  -22.7880 N   0  3  0  0  0  0  0  0  0  0  0  0
  -27.7052   11.8035  -21.5604 H   0  0  0  0  0  0  0  0  0  0  0  0
  -26.0637   12.3734  -21.2786 H   0  0  0  0  0  0  0  0  0  0  0  0
  -27.3525   13.6013  -21.7523 H   0  0  0  0  0  0  0  0  0  0  0  0
  -28.7929   13.0845  -21.5461 H   0  0  0  0  0  0  0  0  0  0  0  0
  -30.1358   14.2299  -21.2124 H   0  0  0  0  0  0  0  0  0  0  0  0
  -31.4301   11.7494  -21.3096 H   0  0  0  0  0  0  0  0  0  0  0  0
  -31.3611   12.9484  -22.6478 H   0  0  0  0  0  0  0  0  0  0  0  0
  -31.6878   10.6027  -23.7552 H   0  0  0  0  0  0  0  0  0  0  0  0
  -31.1299    9.6572  -22.3314 H   0  0  0  0  0  0  0  0  0  0  0  0
  -28.0235    9.7341  -23.3316 H   0  0  0  0  0  0  0  0  0  0  0  0
  -28.9640    8.4994  -22.4169 H   0  0  0  0  0  0  0  0  0  0  0  0
  -27.0674    7.5257  -23.8108 H   0  0  0  0  0  0  0  0  0  0  0  0
  -27.9323    8.0999  -25.2817 H   0  0  0  0  0  0  0  0  0  0  0  0
  -28.5679    5.7804  -24.9077 H   0  0  0  0  0  0  0  0  0  0  0  0
  -28.9302    6.1015  -23.1831 H   0  0  0  0  0  0  0  0  0  0  0  0
  -31.9070    5.6387  -24.1378 H   0  0  0  0  0  0  0  0  0  0  0  0
  -30.5813    4.9021  -25.0577 H   0  0  0  0  0  0  0  0  0  0  0  0
  -31.7422    6.0179  -25.9142 H   0  0  0  0  0  0  0  0  0  0  0  0
  -30.4108   10.0509  -25.9431 H   0  0  0  0  0  0  0  0  0  0  0  0
  -29.6025   11.8484  -23.6197 H   0  0  0  0  0  0  0  0  0  0  0  0
  -29.1797   11.0136  -22.2266 H   0  0  0  0  0  0  0  0  0  0  0  0
  1  2  1  0  0  0  0
  1 21  1  0  0  0  0
  1 22  1  0  0  0  0
  1 23  1  0  0  0  0
  2  6  2  0  0  0  0
  2  3  1  0  0  0  0
  3  4  2  0  0  0  0
  3  7  1  0  0  0  0
  4  5  1  0  0  0  0
  5  6  1  0  0  0  0
  7  8  1  0  0  0  0
  8  9  1  0  0  0  0
  8 24  1  0  0  0  0
  8 25  1  0  0  0  0
  9 20  1  0  0  0  0
  9 26  1  0  0  0  0
  9 27  1  0  0  0  0
 10 11  1  0  0  0  0
 10 20  1  0  0  0  0
 10 28  1  0  0  0  0
 10 29  1  0  0  0  0
 11 16  1  0  0  0  0
 11 12  1  0  0  0  0
 11 19  1  0  0  0  0
 12 13  1  0  0  0  0
 12 30  1  0  0  0  0
 12 31  1  0  0  0  0
 13 14  1  0  0  0  0
 13 32  1  0  0  0  0
 13 33  1  0  0  0  0
 14 15  1  0  0  0  0
 14 34  1  0  0  0  0
 14 35  1  0  0  0  0
 15 16  1  0  0  0  0
 15 18  1  0  0  0  0
 16 17  2  0  0  0  0
 18 36  1  0  0  0  0
 18 37  1  0  0  0  0
 18 38  1  0  0  0  0
 19 39  1  0  0  0  0
 20 40  1  0  0  0  0
 20 41  1  0  0  0  0
M  END
> <Name>
ZINC11661273

> <reference>
BDB5232

> <quality>
0.754

> <status>
decoy

> <atoms in reference ligand area>
21

> <score>
-32.264

$$$$
ZINC25049844
      BALL 1.4.0 (Jan  4 2012, 23:22:29)

 59 61  0999  0  0  0  0  0  0999 V2000
  -32.1831    9.6499  -17.9945 C   0  0  0  0  0  0  0  0  0  0  0  0
  -31.3046   10.4853  -18.8895 C   0  0  0  0  0  0  0  0  0  0  0  0
  -31.0915   10.1343  -20.2147 C   0  0  0  0  0  0  0  0  0  0  0  0
  -30.0139   11.4611  -20.7369 S   0  0  0  0  0  0  0  0  0  0  0  0
  -29.9461   12.3080  -19.2226 C   0  0  0  0  0  0  0  0  0  0  0  0
  -30.7146   11.5631  -18.4419 N   0  0  0  0  0  0  0  0  0  0  0  0
  -29.2645   13.4650  -18.9113 N   0  0  0  0  0  0  0  0  0  0  0  0
  -28.7945   13.4410  -17.5186 C   0  0  0  0  0  0  0  0  0  0  0  0
  -27.9939   14.7146  -17.2338 C   0  0  0  0  0  0  0  0  0  0  0  0
  -28.8096   15.8563  -17.5104 O   0  0  0  0  0  0  0  0  0  0  0  0
  -29.2842   15.9118  -18.8583 C   0  0  0  0  0  0  0  0  0  0  0  0
  -30.0980   14.6504  -19.1595 C   0  0  0  0  0  0  0  0  0  0  0  0
  -31.6097    8.9978  -20.9749 C   0  0  0  0  0  0  0  0  0  0  0  0
  -31.0880    7.9032  -20.8651 O   0  0  0  0  0  0  0  0  0  0  0  0
  -32.6651    9.1620  -21.7970 N   0  0  0  0  0  0  0  0  0  0  0  0
  -32.9073    8.2352  -22.8195 N   0  0  0  0  0  0  0  0  0  0  0  0
  -32.7214    8.5883  -24.1068 C   0  0  0  0  0  0  0  0  0  0  0  0
  -32.0208    9.5399  -24.3795 O   0  0  0  0  0  0  0  0  0  0  0  0
  -33.3842    7.8006  -25.2075 C   0  0  0  0  0  0  0  0  0  0  0  0
  -34.4854    8.6473  -25.8486 C   0  0  0  0  0  0  0  0  0  0  0  0
  -34.9882    7.9547  -27.1169 C   0  0  0  0  0  0  0  0  0  0  0  0
  -34.4331    6.6008  -27.1866 N   0  0  0  0  0  0  0  0  0  0  0  0
  -34.0167    6.1032  -28.3679 C   0  0  0  0  0  0  0  0  0  0  0  0
  -34.1017    6.7780  -29.3758 O   0  0  0  0  0  0  0  0  0  0  0  0
  -33.4574    4.7391  -28.4382 C   0  0  0  0  0  0  0  0  0  0  0  0
  -32.1504    4.5403  -28.8907 C   0  0  0  0  0  0  0  0  0  0  0  0
  -31.6321    3.2661  -28.9544 C   0  0  0  0  0  0  0  0  0  0  0  0
  -32.4073    2.1785  -28.5693 C   0  0  0  0  0  0  0  0  0  0  0  0
  -33.7078    2.3720  -28.1187 C   0  0  0  0  0  0  0  0  0  0  0  0
  -34.2334    3.6430  -28.0520 C   0  0  0  0  0  0  0  0  0  0  0  0
  -31.8928    0.9243  -28.6335 O   0  0  0  0  0  0  0  0  0  0  0  0
  -32.0223    0.1096  -27.4667 C   0  0  0  0  0  0  0  0  0  0  0  0
  -33.1226   10.2165  -17.9153 H   0  0  0  0  0  0  0  0  0  0  0  0
  -31.6968    9.6885  -17.0086 H   0  0  0  0  0  0  0  0  0  0  0  0
  -32.3369    8.6209  -18.3518 H   0  0  0  0  0  0  0  0  0  0  0  0
  -28.1523   12.5618  -17.3616 H   0  0  0  0  0  0  0  0  0  0  0  0
  -29.6588   13.3919  -16.8399 H   0  0  0  0  0  0  0  0  0  0  0  0
  -27.6897   14.7285  -16.1768 H   0  0  0  0  0  0  0  0  0  0  0  0
  -27.1001   14.7387  -17.8746 H   0  0  0  0  0  0  0  0  0  0  0  0
  -29.9219   16.7988  -18.9871 H   0  0  0  0  0  0  0  0  0  0  0  0
  -28.4291   15.9695  -19.5479 H   0  0  0  0  0  0  0  0  0  0  0  0
  -30.4160   14.6620  -20.2124 H   0  0  0  0  0  0  0  0  0  0  0  0
  -30.9835   14.6212  -18.5074 H   0  0  0  0  0  0  0  0  0  0  0  0
  -33.2935    9.9687  -21.6736 H   0  0  0  0  0  0  0  0  0  0  0  0
  -33.2275    7.2842  -22.5874 H   0  0  0  0  0  0  0  0  0  0  0  0
  -32.6367    7.5343  -25.9693 H   0  0  0  0  0  0  0  0  0  0  0  0
  -33.8245    6.8833  -24.7895 H   0  0  0  0  0  0  0  0  0  0  0  0
  -35.3187    8.7631  -25.1398 H   0  0  0  0  0  0  0  0  0  0  0  0
  -34.0839    9.6382  -26.1074 H   0  0  0  0  0  0  0  0  0  0  0  0
  -36.0865    7.8994  -27.0938 H   0  0  0  0  0  0  0  0  0  0  0  0
  -34.6683    8.5271  -28.0001 H   0  0  0  0  0  0  0  0  0  0  0  0
  -34.3611    6.0291  -26.3328 H   0  0  0  0  0  0  0  0  0  0  0  0
  -31.5363    5.4005  -29.1956 H   0  0  0  0  0  0  0  0  0  0  0  0
  -30.6032    3.1088  -29.3105 H   0  0  0  0  0  0  0  0  0  0  0  0
  -34.3180    1.5087  -27.8149 H   0  0  0  0  0  0  0  0  0  0  0  0
  -35.2627    3.7954  -27.6952 H   0  0  0  0  0  0  0  0  0  0  0  0
  -31.7897    0.7581  -26.6092 H   0  0  0  0  0  0  0  0  0  0  0  0
  -31.2347   -0.6554  -27.5346 H   0  0  0  0  0  0  0  0  0  0  0  0
  -33.0201   -0.3436  -27.3729 H   0  0  0  0  0  0  0  0  0  0  0  0
  1  2  1  0  0  0  0
  1 33  1  0  0  0  0
  1 34  1  0  0  0  0
  1 35  1  0  0  0  0
  2  6  1  0  0  0  0
  2  3  2  0  0  0  0
  3  4  1  0  0  0  0
  3 13  1  0  0  0  0
  4  5  1  0  0  0  0
  5  6  2  0  0  0  0
  5  7  1  0  0  0  0
  7 12  1  0  0  0  0
  7  8  1  0  0  0  0
  8  9  1  0  0  0  0
  8 36  1  0  0  0  0
  8 37  1  0  0  0  0
  9 10  1  0  0  0  0
  9 38  1  0  0  0  0
  9 39  1  0  0  0  0
 10 11  1  0  0  0  0
 11 12  1  0  0  0  0
 11 40  1  0  0  0  0
 11 41  1  0  0  0  0
 12 42  1  0  0  0  0
 12 43  1  0  0  0  0
 13 14  2  0  0  0  0
 13 15  1  0  0  0  0
 15 16  1  0  0  0  0
 15 44  1  0  0  0  0
 16 17  1  0  0  0  0
 16 45  1  0  0  0  0
 17 18  2  0  0  0  0
 17 19  1  0  0  0  0
 19 20  1  0  0  0  0
 19 46  1  0  0  0  0
 19 47  1  0  0  0  0
 20 21  1  0  0  0  0
 20 48  1  0  0  0  0
 20 49  1  0  0  0  0
 21 22  1  0  0  0  0
 21 50  1  0  0  0  0
 21 51  1  0  0  0  0
 22 23  1  0  0  0  0
 22 52  1  0  0  0  0
 23 24  2  0  0  0  0
 23 25  1  0  0  0  0
 25 30  2  0  0  0  0
 25 26  1  0  0  0  0
 26 27  2  0  0  0  0
 26 53  1  0  0  0  0
 27 28  1  0  0  0  0
 27 54  1  0  0  0  0
 28 29  2  0  0  0  0
 28 31  1  0  0  0  0
 29 30  1  0  0  0  0
 29 55  1  0  0  0  0
 30 56  1  0  0  0  0
 31 32  1  0  0  0  0
 32 57  1  0  0  0  0
 32 58  1  0  0  0  0
 32 59  1  0  0  0  0
M  END
> <Name>
ZINC25049844

> <reference>
BDB4972

> <quality>
0.668

> <status>
decoy

> <atoms in reference ligand area>
10

> <score>
-32.1187

$$$$
ZINC30516950
      BALL 1.4.0 (Jan  4 2012, 23:22:29)

 34 36  0999  0  0  0  0  0  0999 V2000
  -32.8286   15.9604  -20.8795 C   0  0  0  0  0  0  0  0  0  0  0  0
  -32.7920   14.5587  -21.0154 C   0  0  0  0  0  0  0  0  0  0  0  0
  -31.8138   14.1095  -20.1819 C   0  0  0  0  0  0  0  0  0  0  0  0
  -31.2746   15.1745  -19.5571 O   0  0  0  0  0  0  0  0  0  0  0  0
  -31.8823   16.2952  -19.9803 C   0  0  0  0  0  0  0  0  0  0  0  0
  -31.4181   12.7032  -19.9914 C   0  0  0  0  0  0  0  0  0  0  0  0
  -31.7908   11.8815  -18.9604 C   0  0  0  0  0  0  0  0  0  0  0  0
  -31.1626   10.6449  -19.2203 C   0  0  0  0  0  0  0  0  0  0  0  0
  -30.4734   10.7797  -20.3362 N   0  0  0  0  0  0  0  0  0  0  0  0
  -30.6091   11.9665  -20.8084 N   0  0  0  0  0  0  0  0  0  0  0  0
  -31.2552    9.4255  -18.3912 C   0  0  0  0  0  0  0  0  0  0  0  0
  -31.1682    8.3296  -18.9101 O   0  0  0  0  0  0  0  0  0  0  0  0
  -31.4360    9.5282  -17.0595 N   0  0  0  0  0  0  0  0  0  0  0  0
  -32.6597    9.1557  -16.4880 N   0  0  0  0  0  0  0  0  0  0  0  0
  -32.7308    8.8743  -15.1718 C   0  0  0  0  0  0  0  0  0  0  0  0
  -31.8369    8.2474  -14.6344 O   0  0  0  0  0  0  0  0  0  0  0  0
  -33.8858    9.3237  -14.3872 C   0  0  0  0  0  0  0  0  0  0  0  0
  -35.1175    9.6901  -14.8869 C   0  0  0  0  0  0  0  0  0  0  0  0
  -35.9155   10.0432  -13.7942 C   0  0  0  0  0  0  0  0  0  0  0  0
  -35.1709    9.8989  -12.6719 C   0  0  0  0  0  0  0  0  0  0  0  0
  -33.9356    9.4622  -13.0186 N   0  0  0  0  0  0  0  0  0  0  0  0
  -37.3221   10.5003  -13.8540 N   0  0  0  0  0  0  0  0  0  0  0  0
  -37.6997   11.4051  -13.1312 O   0  0  0  0  0  0  0  0  0  0  0  0
  -38.1019    9.9717  -14.6259 O   0  0  0  0  0  0  0  0  0  0  0  0
  -33.5024   16.6512  -21.4076 H   0  0  0  0  0  0  0  0  0  0  0  0
  -33.4304   13.9457  -21.6688 H   0  0  0  0  0  0  0  0  0  0  0  0
  -31.6467   17.3170  -19.6479 H   0  0  0  0  0  0  0  0  0  0  0  0
  -32.4418   12.1326  -18.1101 H   0  0  0  0  0  0  0  0  0  0  0  0
  -30.1724   12.3114  -21.6751 H   0  0  0  0  0  0  0  0  0  0  0  0
  -30.6745    9.8805  -16.4621 H   0  0  0  0  0  0  0  0  0  0  0  0
  -33.5051    9.0970  -17.0735 H   0  0  0  0  0  0  0  0  0  0  0  0
  -35.4162    9.7022  -15.9454 H   0  0  0  0  0  0  0  0  0  0  0  0
  -35.5130   10.1027  -11.6465 H   0  0  0  0  0  0  0  0  0  0  0  0
  -33.1627    9.2666  -12.3666 H   0  0  0  0  0  0  0  0  0  0  0  0
  1  5  2  0  0  0  0
  1  2  1  0  0  0  0
  1 25  1  0  0  0  0
  2  3  2  0  0  0  0
  2 26  1  0  0  0  0
  3  4  1  0  0  0  0
  3  6  1  0  0  0  0
  4  5  1  0  0  0  0
  5 27  1  0  0  0  0
  6 10  1  0  0  0  0
  6  7  2  0  0  0  0
  7  8  1  0  0  0  0
  7 28  1  0  0  0  0
  8  9  2  0  0  0  0
  8 11  1  0  0  0  0
  9 10  1  0  0  0  0
 10 29  1  0  0  0  0
 11 12  2  0  0  0  0
 11 13  1  0  0  0  0
 13 14  1  0  0  0  0
 13 30  1  0  0  0  0
 14 15  1  0  0  0  0
 14 31  1  0  0  0  0
 15 16  2  0  0  0  0
 15 17  1  0  0  0  0
 17 21  1  0  0  0  0
 17 18  2  0  0  0  0
 18 19  1  0  0  0  0
 18 32  1  0  0  0  0
 19 20  2  0  0  0  0
 19 22  1  0  0  0  0
 20 21  1  0  0  0  0
 20 33  1  0  0  0  0
 21 34  1  0  0  0  0
 22 23  2  0  0  0  0
 22 24  2  0  0  0  0
M  END
> <Name>
ZINC30516950

> <reference>
BDB4932

> <quality>
0.683

> <status>
decoy

> <atoms in reference ligand area>
10

> <score>
-31.9233

$$$$
ZINC08642818
      BALL 1.4.0 (Jan  4 2012, 23:22:29)

 51 53  0999  0  0  0  0  0  0999 V2000
  -32.2904    7.4379  -11.4480 C   0  0  0  0  0  0  0  0  0  0  0  0
  -32.7084    8.0714  -12.7011 N   0  0  0  0  0  0  0  0  0  0  0  0
  -31.9293    7.9356  -13.8389 C   0  0  0  0  0  0  0  0  0  0  0  0
  -32.3519    8.5426  -15.0166 C   0  0  0  0  0  0  0  0  0  0  0  0
  -33.5477    9.2821  -15.0171 C   0  0  0  0  0  0  0  0  0  0  0  0
  -33.9356    9.8253  -16.0368 O   0  0  0  0  0  0  0  0  0  0  0  0
  -34.2644    9.3793  -13.8782 N   0  0  0  0  0  0  0  0  0  0  0  0
  -33.8494    8.7847  -12.7463 C   0  0  0  0  0  0  0  0  0  0  0  0
  -34.5213    8.8934  -11.7385 O   0  0  0  0  0  0  0  0  0  0  0  0
  -35.5140   10.1440  -13.8751 C   0  0  0  0  0  0  0  0  0  0  0  0
  -31.3971    8.2381  -15.9777 N   0  0  0  0  0  0  0  0  0  0  0  0
  -30.4554    7.4728  -15.3651 C   0  0  0  0  0  0  0  0  0  0  0  0
  -30.7811    7.3083  -14.0990 N   0  0  0  0  0  0  0  0  0  0  0  0
  -29.3321    6.9581  -15.9706 N   0  0  0  0  0  0  0  0  0  0  0  0
  -28.1900    6.5351  -15.1565 C   0  0  0  0  0  0  0  0  0  0  0  0
  -26.8894    6.9478  -15.8490 C   0  0  0  0  0  0  0  0  0  0  0  0
  -26.1003    7.7319  -14.9521 O   0  0  0  0  0  0  0  0  0  0  0  0
  -31.4032    8.6603  -17.3805 C   0  0  0  0  0  0  0  0  0  0  0  0
  -31.6389   10.1701  -17.4577 C   0  0  0  0  0  0  0  0  0  0  0  0
  -30.6600   10.7887  -18.4576 C   0  0  0  0  0  0  0  0  0  0  0  0
  -30.8003   12.2107  -18.4442 O   0  0  0  0  0  0  0  0  0  0  0  0
  -29.7014   12.9359  -18.1078 C   0  0  0  0  0  0  0  0  0  0  0  0
  -29.8295   14.0596  -17.3043 C   0  0  0  0  0  0  0  0  0  0  0  0
  -28.7100   14.7915  -16.9586 C   0  0  0  0  0  0  0  0  0  0  0  0
  -27.4642   14.4121  -17.4229 C   0  0  0  0  0  0  0  0  0  0  0  0
  -27.3345   13.2959  -18.2285 C   0  0  0  0  0  0  0  0  0  0  0  0
  -28.4500   12.5571  -18.5719 C   0  0  0  0  0  0  0  0  0  0  0  0
  -31.4333   10.7508  -16.1683 O   0  0  0  0  0  0  0  0  0  0  0  0
  -32.7869    8.0160  -10.6547 H   0  0  0  0  0  0  0  0  0  0  0  0
  -31.2115    7.6382  -11.3711 H   0  0  0  0  0  0  0  0  0  0  0  0
  -32.5228    6.3642  -11.3926 H   0  0  0  0  0  0  0  0  0  0  0  0
  -35.6893   10.4182  -14.9258 H   0  0  0  0  0  0  0  0  0  0  0  0
  -35.2860   11.0707  -13.3278 H   0  0  0  0  0  0  0  0  0  0  0  0
  -36.3642    9.5998  -13.4383 H   0  0  0  0  0  0  0  0  0  0  0  0
  -29.2943    6.8702  -16.9962 H   0  0  0  0  0  0  0  0  0  0  0  0
  -28.2092    5.4420  -15.0355 H   0  0  0  0  0  0  0  0  0  0  0  0
  -28.2465    7.0145  -14.1681 H   0  0  0  0  0  0  0  0  0  0  0  0
  -26.3275    6.0481  -16.1402 H   0  0  0  0  0  0  0  0  0  0  0  0
  -27.1224    7.5409  -16.7456 H   0  0  0  0  0  0  0  0  0  0  0  0
  -25.5040    7.1382  -14.4304 H   0  0  0  0  0  0  0  0  0  0  0  0
  -30.4344    8.4169  -17.8410 H   0  0  0  0  0  0  0  0  0  0  0  0
  -32.2070    8.1365  -17.9187 H   0  0  0  0  0  0  0  0  0  0  0  0
  -32.6705   10.3638  -17.7869 H   0  0  0  0  0  0  0  0  0  0  0  0
  -29.6308   10.5196  -18.1776 H   0  0  0  0  0  0  0  0  0  0  0  0
  -30.8764   10.4091  -19.4671 H   0  0  0  0  0  0  0  0  0  0  0  0
  -30.8217   14.3676  -16.9427 H   0  0  0  0  0  0  0  0  0  0  0  0
  -28.8099   15.6768  -16.3134 H   0  0  0  0  0  0  0  0  0  0  0  0
  -26.5747   14.9993  -17.1510 H   0  0  0  0  0  0  0  0  0  0  0  0
  -26.3421   12.9959  -18.5962 H   0  0  0  0  0  0  0  0  0  0  0  0
  -28.3463   11.6692  -19.2128 H   0  0  0  0  0  0  0  0  0  0  0  0
  -30.4702   10.7199  -15.9412 H   0  0  0  0  0  0  0  0  0  0  0  0
  1  2  1  0  0  0  0
  1 29  1  0  0  0  0
  1 30  1  0  0  0  0
  1 31  1  0  0  0  0
  2  8  1  0  0  0  0
  2  3  1  0  0  0  0
  3 13  1  0  0  0  0
  3  4  2  0  0  0  0
  4  5  1  0  0  0  0
  4 11  1  0  0  0  0
  5  6  2  0  0  0  0
  5  7  1  0  0  0  0
  7  8  1  0  0  0  0
  7 10  1  0  0  0  0
  8  9  2  0  0  0  0
 10 32  1  0  0  0  0
 10 33  1  0  0  0  0
 10 34  1  0  0  0  0
 11 12  1  0  0  0  0
 11 18  1  0  0  0  0
 12 13  2  0  0  0  0
 12 14  1  0  0  0  0
 14 15  1  0  0  0  0
 14 35  1  0  0  0  0
 15 16  1  0  0  0  0
 15 36  1  0  0  0  0
 15 37  1  0  0  0  0
 16 17  1  0  0  0  0
 16 38  1  0  0  0  0
 16 39  1  0  0  0  0
 17 40  1  0  0  0  0
 18 19  1  0  0  0  0
 18 41  1  0  0  0  0
 18 42  1  0  0  0  0
 19 20  1  0  0  0  0
 19 28  1  0  0  0  0
 19 43  1  0  0  0  0
 20 21  1  0  0  0  0
 20 44  1  0  0  0  0
 20 45  1  0  0  0  0
 21 22  1  0  0  0  0
 22 27  2  0  0  0  0
 22 23  1  0  0  0  0
 23 24  2  0  0  0  0
 23 46  1  0  0  0  0
 24 25  1  0  0  0  0
 24 47  1  0  0  0  0
 25 26  2  0  0  0  0
 25 48  1  0  0  0  0
 26 27  1  0  0  0  0
 26 49  1  0  0  0  0
 27 50  1  0  0  0  0
 28 51  1  0  0  0  0
M  END
> <Name>
ZINC08642818

> <reference>
BDB4945

> <quality>
0.773

> <status>
decoy

> <atoms in reference ligand area>
10

> <score>
-31.9145

$$$$
ZINC24331310
      BALL 1.4.0 (Jan  4 2012, 23:22:29)

 36 36  0999  0  0  0  0  0  0999 V2000
  -29.3255   13.2884  -17.7252 C   0  0  0  0  0  0  0  0  0  0  0  0
  -30.1265   13.0518  -18.8533 C   0  0  0  0  0  0  0  0  0  0  0  0
  -29.3693   12.3257  -19.7272 C   0  0  0  0  0  0  0  0  0  0  0  0
  -28.1616   12.1200  -19.1622 O   0  0  0  0  0  0  0  0  0  0  0  0
  -28.1295   12.7036  -17.9570 C   0  0  0  0  0  0  0  0  0  0  0  0
  -29.7961   11.8476  -21.0463 C   0  0  0  0  0  0  0  0  0  0  0  0
  -30.4713   12.5624  -21.7634 O   0  0  0  0  0  0  0  0  0  0  0  0
  -29.4406   10.6167  -21.4645 N   0  0  0  0  0  0  0  0  0  0  0  0
  -29.8670   10.1392  -22.7823 C   0  0  0  0  0  0  0  0  0  0  0  0
  -31.2153    9.4273  -22.6548 C   0  0  0  0  0  0  0  0  0  0  0  0
  -32.1000    9.7930  -23.8484 C   0  0  0  0  0  0  0  0  0  0  0  0
  -32.8530    8.5714  -24.3086 C   0  0  0  0  0  0  0  0  0  0  0  0
  -33.9377    8.3184  -23.8403 O   0  0  0  0  0  0  0  0  0  0  0  0
  -32.3186    7.7646  -25.2387 O   0  0  0  0  0  0  0  0  0  0  0  0
  -33.1000    6.6063  -25.6341 C   0  0  0  0  0  0  0  0  0  0  0  0
  -34.3036    7.0571  -26.4208 C   0  0  0  0  0  0  0  0  0  0  0  0
  -35.4124    6.9633  -25.9395 O   0  0  0  0  0  0  0  0  0  0  0  0
  -34.1474    7.5648  -27.6595 N   0  0  0  0  0  0  0  0  0  0  0  0
  -35.2238    7.9681  -28.3632 C   0  0  0  0  0  0  0  0  0  0  0  0
  -36.2991    7.4281  -28.1917 O   0  0  0  0  0  0  0  0  0  0  0  0
  -35.1079    8.9702  -29.2570 N   0  0  0  0  0  0  0  0  0  0  0  0
  -29.6165   13.8451  -16.8222 H   0  0  0  0  0  0  0  0  0  0  0  0
  -31.1634   13.3866  -19.0041 H   0  0  0  0  0  0  0  0  0  0  0  0
  -27.2710   12.7064  -17.2693 H   0  0  0  0  0  0  0  0  0  0  0  0
  -28.8690   10.0117  -20.8576 H   0  0  0  0  0  0  0  0  0  0  0  0
  -29.9676   10.9939  -23.4673 H   0  0  0  0  0  0  0  0  0  0  0  0
  -29.1188    9.4373  -23.1790 H   0  0  0  0  0  0  0  0  0  0  0  0
  -31.0554    8.3391  -22.6375 H   0  0  0  0  0  0  0  0  0  0  0  0
  -31.7098    9.7402  -21.7234 H   0  0  0  0  0  0  0  0  0  0  0  0
  -31.4722   10.1671  -24.6705 H   0  0  0  0  0  0  0  0  0  0  0  0
  -32.8156   10.5730  -23.5492 H   0  0  0  0  0  0  0  0  0  0  0  0
  -33.4317    6.0628  -24.7371 H   0  0  0  0  0  0  0  0  0  0  0  0
  -32.4827    5.9427  -26.2575 H   0  0  0  0  0  0  0  0  0  0  0  0
  -33.2054    7.6445  -28.0684 H   0  0  0  0  0  0  0  0  0  0  0  0
  -35.1765    8.7715  -30.2652 H   0  0  0  0  0  0  0  0  0  0  0  0
  -34.9507    9.9348  -28.9317 H   0  0  0  0  0  0  0  0  0  0  0  0
  1  5  2  0  0  0  0
  1  2  1  0  0  0  0
  1 22  1  0  0  0  0
  2  3  2  0  0  0  0
  2 23  1  0  0  0  0
  3  4  1  0  0  0  0
  3  6  1  0  0  0  0
  4  5  1  0  0  0  0
  5 24  1  0  0  0  0
  6  7  2  0  0  0  0
  6  8  1  0  0  0  0
  8  9  1  0  0  0  0
  8 25  1  0  0  0  0
  9 10  1  0  0  0  0
  9 26  1  0  0  0  0
  9 27  1  0  0  0  0
 10 11  1  0  0  0  0
 10 28  1  0  0  0  0
 10 29  1  0  0  0  0
 11 12  1  0  0  0  0
 11 30  1  0  0  0  0
 11 31  1  0  0  0  0
 12 13  2  0  0  0  0
 12 14  1  0  0  0  0
 14 15  1  0  0  0  0
 15 16  1  0  0  0  0
 15 32  1  0  0  0  0
 15 33  1  0  0  0  0
 16 17  2  0  0  0  0
 16 18  1  0  0  0  0
 18 19  1  0  0  0  0
 18 34  1  0  0  0  0
 19 20  2  0  0  0  0
 19 21  1  0  0  0  0
 21 35  1  0  0  0  0
 21 36  1  0  0  0  0
M  END
> <Name>
ZINC24331310

> <reference>
BDB5021

> <quality>
0.648

> <status>
decoy

> <atoms in reference ligand area>
13

> <score>
-31.627

$$$$
ZINC31561356
      BALL 1.4.0 (Jan  4 2012, 23:22:29)

 37 37  0999  0  0  0  0  0  0999 V2000
  -26.9719    6.2780  -27.2469 C   0  0  0  0  0  0  0  0  0  0  0  0
  -28.3948    5.7183  -27.1447 C   0  0  0  0  0  0  0  0  0  0  0  0
  -29.1595    6.4984  -26.1082 C   0  0  0  0  0  0  0  0  0  0  0  0
  -30.3615    6.6122  -26.2171 O   0  0  0  0  0  0  0  0  0  0  0  0
  -28.5365    7.0694  -25.0664 N   0  0  0  0  0  0  0  0  0  0  0  0
  -27.2085    6.9980  -24.8911 C   0  0  0  0  0  0  0  0  0  0  0  0
  -26.7047    7.5487  -23.9360 O   0  0  0  0  0  0  0  0  0  0  0  0
  -26.3323    6.2422  -25.8548 C   0  0  0  0  0  0  0  0  0  0  0  0
  -29.3374    7.8048  -24.0845 C   0  0  0  0  0  0  0  0  0  0  0  0
  -30.0650    8.9570  -24.7800 C   0  0  0  0  0  0  0  0  0  0  0  0
  -31.2491    9.4050  -23.9208 C   0  0  0  0  0  0  0  0  0  0  0  0
  -31.4965   10.8368  -24.1365 N   0  3  0  0  0  0  0  0  0  0  0  0
  -31.5985   11.5520  -22.8573 C   0  0  0  0  0  0  0  0  0  0  0  0
  -30.1952   11.8241  -22.3120 C   0  0  0  0  0  0  0  0  0  0  0  0
  -30.2685   13.1713  -21.0994 S   0  0  0  0  0  0  0  0  0  0  0  0
  -28.4103   13.0510  -20.0861 P   0  0  0  0  0  0  0  0  0  0  0  0
  -27.3808   12.5163  -21.0053 O   0  0  0  0  0  0  0  0  0  0  0  0
  -27.9746   14.5187  -19.5879 O   0  5  0  0  0  0  0  0  0  0  0  0
  -28.5544   12.0736  -18.8148 O   0  5  0  0  0  0  0  0  0  0  0  0
  -26.3824    5.6607  -27.9409 H   0  0  0  0  0  0  0  0  0  0  0  0
  -27.0095    7.3160  -27.6091 H   0  0  0  0  0  0  0  0  0  0  0  0
  -28.3539    4.6592  -26.8503 H   0  0  0  0  0  0  0  0  0  0  0  0
  -28.8973    5.8116  -28.1187 H   0  0  0  0  0  0  0  0  0  0  0  0
  -25.3386    6.7124  -25.8934 H   0  0  0  0  0  0  0  0  0  0  0  0
  -26.2350    5.1984  -25.5215 H   0  0  0  0  0  0  0  0  0  0  0  0
  -30.0751    7.1265  -23.6310 H   0  0  0  0  0  0  0  0  0  0  0  0
  -28.6792    8.2077  -23.3007 H   0  0  0  0  0  0  0  0  0  0  0  0
  -29.3716    9.8000  -24.9158 H   0  0  0  0  0  0  0  0  0  0  0  0
  -30.4313    8.6216  -25.7615 H   0  0  0  0  0  0  0  0  0  0  0  0
  -32.1447    8.8321  -24.2032 H   0  0  0  0  0  0  0  0  0  0  0  0
  -31.0207    9.2290  -22.8593 H   0  0  0  0  0  0  0  0  0  0  0  0
  -30.7232   11.2361  -24.6875 H   0  0  0  0  0  0  0  0  0  0  0  0
  -32.3744   10.9555  -24.6620 H   0  0  0  0  0  0  0  0  0  0  0  0
  -32.1229   12.5066  -23.0116 H   0  0  0  0  0  0  0  0  0  0  0  0
  -32.1585   10.9382  -22.1365 H   0  0  0  0  0  0  0  0  0  0  0  0
  -29.5287   12.1118  -23.1385 H   0  0  0  0  0  0  0  0  0  0  0  0
  -29.8075   10.9160  -21.8273 H   0  0  0  0  0  0  0  0  0  0  0  0
  1  8  1  0  0  0  0
  1  2  1  0  0  0  0
  1 20  1  0  0  0  0
  1 21  1  0  0  0  0
  2  3  1  0  0  0  0
  2 22  1  0  0  0  0
  2 23  1  0  0  0  0
  3  4  2  0  0  0  0
  3  5  1  0  0  0  0
  5  6  1  0  0  0  0
  5  9  1  0  0  0  0
  6  7  2  0  0  0  0
  6  8  1  0  0  0  0
  8 24  1  0  0  0  0
  8 25  1  0  0  0  0
  9 10  1  0  0  0  0
  9 26  1  0  0  0  0
  9 27  1  0  0  0  0
 10 11  1  0  0  0  0
 10 28  1  0  0  0  0
 10 29  1  0  0  0  0
 11 12  1  0  0  0  0
 11 30  1  0  0  0  0
 11 31  1  0  0  0  0
 12 13  1  0  0  0  0
 12 32  1  0  0  0  0
 12 33  1  0  0  0  0
 13 14  1  0  0  0  0
 13 34  1  0  0  0  0
 13 35  1  0  0  0  0
 14 15  1  0  0  0  0
 14 36  1  0  0  0  0
 14 37  1  0  0  0  0
 15 16  1  0  0  0  0
 16 17  2  0  0  0  0
 16 18  1  0  0  0  0
 16 19  1  0  0  0  0
M  END
> <Name>
ZINC31561356

> <reference>
BDB5013

> <quality>
0.694

> <status>
decoy

> <atoms in reference ligand area>
14

> <score>
-30.6557

$$$$
ZINC03888603
      BALL 1.4.0 (Jan  4 2012, 23:22:29)

 43 44  0999  0  0  0  0  0  0999 V2000
  -25.0639    7.2231  -24.0749 C   0  0  0  0  0  0  0  0  0  0  0  0
  -25.6379    6.1859  -25.0421 C   0  0  0  0  0  0  0  0  0  0  0  0
  -26.8092    6.7995  -25.8118 C   0  0  0  0  0  0  0  0  0  0  0  0
  -28.0637    6.7746  -24.9364 C   0  0  0  0  0  0  0  0  0  0  0  0
  -28.9266    7.9054  -25.2873 N   0  0  0  0  0  0  0  0  0  0  0  0
  -29.4232    8.7451  -24.2829 C   0  0  0  0  0  0  0  0  0  0  0  0
  -29.6592    8.2443  -23.0116 C   0  0  0  0  0  0  0  0  0  0  0  0
  -30.1451    9.0765  -22.0200 C   0  0  0  0  0  0  0  0  0  0  0  0
  -30.4069   10.4060  -22.2945 C   0  0  0  0  0  0  0  0  0  0  0  0
  -30.1743   10.9137  -23.5594 C   0  0  0  0  0  0  0  0  0  0  0  0
  -29.6823   10.0876  -24.5584 C   0  0  0  0  0  0  0  0  0  0  0  0
  -29.4464   10.5995  -25.8401 N   0  0  0  0  0  0  0  0  0  0  0  0
  -31.0318   11.4582  -21.0268 S   0  0  0  0  0  0  0  0  0  0  0  0
  -31.2480   10.6369  -19.8874 O   0  0  0  0  0  0  0  0  0  0  0  0
  -32.0677   12.2322  -21.6155 O   0  0  0  0  0  0  0  0  0  0  0  0
  -29.8210   12.5144  -20.6260 N   0  0  0  0  0  0  0  0  0  0  0  0
  -28.6548   12.8377  -21.4609 C   0  0  0  0  0  0  0  0  0  0  0  0
  -27.7910   13.8439  -20.6718 C   0  0  0  0  0  0  0  0  0  0  0  0
  -28.2221   13.5916  -19.2028 C   0  0  0  0  0  0  0  0  0  0  0  0
  -29.7306   13.2814  -19.3703 C   0  0  0  0  0  0  0  0  0  0  0  0
  -25.7812    7.4028  -23.2605 H   0  0  0  0  0  0  0  0  0  0  0  0
  -24.8777    8.1642  -24.6130 H   0  0  0  0  0  0  0  0  0  0  0  0
  -24.1189    6.8494  -23.6539 H   0  0  0  0  0  0  0  0  0  0  0  0
  -24.8569    5.8742  -25.7514 H   0  0  0  0  0  0  0  0  0  0  0  0
  -25.9901    5.3107  -24.4765 H   0  0  0  0  0  0  0  0  0  0  0  0
  -26.5688    7.8394  -26.0778 H   0  0  0  0  0  0  0  0  0  0  0  0
  -26.9911    6.2192  -26.7285 H   0  0  0  0  0  0  0  0  0  0  0  0
  -28.6082    5.8334  -25.1023 H   0  0  0  0  0  0  0  0  0  0  0  0
  -27.7750    6.8495  -23.8776 H   0  0  0  0  0  0  0  0  0  0  0  0
  -29.1679    8.0827  -26.2728 H   0  0  0  0  0  0  0  0  0  0  0  0
  -29.4599    7.1850  -22.7920 H   0  0  0  0  0  0  0  0  0  0  0  0
  -30.3239    8.6795  -21.0099 H   0  0  0  0  0  0  0  0  0  0  0  0
  -30.3798   11.9730  -23.7732 H   0  0  0  0  0  0  0  0  0  0  0  0
  -30.1944   10.5777  -26.5479 H   0  0  0  0  0  0  0  0  0  0  0  0
  -28.5259   10.9975  -26.0752 H   0  0  0  0  0  0  0  0  0  0  0  0
  -28.9864   13.2944  -22.4052 H   0  0  0  0  0  0  0  0  0  0  0  0
  -28.0736   11.9249  -21.6587 H   0  0  0  0  0  0  0  0  0  0  0  0
  -26.7232   13.6126  -20.7999 H   0  0  0  0  0  0  0  0  0  0  0  0
  -28.0370   14.8741  -20.9685 H   0  0  0  0  0  0  0  0  0  0  0  0
  -28.0830   14.5010  -18.5998 H   0  0  0  0  0  0  0  0  0  0  0  0
  -27.6946   12.7175  -18.7931 H   0  0  0  0  0  0  0  0  0  0  0  0
  -30.0845   12.6711  -18.5263 H   0  0  0  0  0  0  0  0  0  0  0  0
  -30.2995   14.2189  -19.4573 H   0  0  0  0  0  0  0  0  0  0  0  0
  1  2  1  0  0  0  0
  1 21  1  0  0  0  0
  1 22  1  0  0  0  0
  1 23  1  0  0  0  0
  2  3  1  0  0  0  0
  2 24  1  0  0  0  0
  2 25  1  0  0  0  0
  3  4  1  0  0  0  0
  3 26  1  0  0  0  0
  3 27  1  0  0  0  0
  4  5  1  0  0  0  0
  4 28  1  0  0  0  0
  4 29  1  0  0  0  0
  5  6  1  0  0  0  0
  5 30  1  0  0  0  0
  6 11  2  0  0  0  0
  6  7  1  0  0  0  0
  7  8  2  0  0  0  0
  7 31  1  0  0  0  0
  8  9  1  0  0  0  0
  8 32  1  0  0  0  0
  9 10  2  0  0  0  0
  9 13  1  0  0  0  0
 10 11  1  0  0  0  0
 10 33  1  0  0  0  0
 11 12  1  0  0  0  0
 12 34  1  0  0  0  0
 12 35  1  0  0  0  0
 13 14  2  0  0  0  0
 13 15  2  0  0  0  0
 13 16  1  0  0  0  0
 16 20  1  0  0  0  0
 16 17  1  0  0  0  0
 17 18  1  0  0  0  0
 17 36  1  0  0  0  0
 17 37  1  0  0  0  0
 18 19  1  0  0  0  0
 18 38  1  0  0  0  0
 18 39  1  0  0  0  0
 19 20  1  0  0  0  0
 19 40  1  0  0  0  0
 19 41  1  0  0  0  0
 20 42  1  0  0  0  0
 20 43  1  0  0  0  0
M  END
> <Name>
ZINC03888603

> <reference>
BDB5204

> <quality>
0.748

> <status>
decoy

> <atoms in reference ligand area>
18

> <score>
-30.6414

$$$$
ZINC20292668
      BALL 1.4.0 (Jan  4 2012, 23:22:29)

 44 44  0999  0  0  0  0  0  0999 V2000
  -33.3056    8.1731  -21.1674 C   0  0  0  0  0  0  0  0  0  0  0  0
  -32.7494    9.1406  -22.1801 C   0  0  0  0  0  0  0  0  0  0  0  0
  -31.9122   10.1626  -21.7727 C   0  0  0  0  0  0  0  0  0  0  0  0
  -31.2393   11.0402  -22.7468 C   0  0  0  0  0  0  0  0  0  0  0  0
  -31.4071   10.8908  -23.9425 O   0  0  0  0  0  0  0  0  0  0  0  0
  -30.4366   12.0172  -22.2767 N   0  0  0  0  0  0  0  0  0  0  0  0
  -30.2469   12.1960  -20.9619 C   0  0  0  0  0  0  0  0  0  0  0  0
  -29.5106   13.0941  -20.6037 O   0  0  0  0  0  0  0  0  0  0  0  0
  -30.8258   11.4366  -20.0212 N   0  0  0  0  0  0  0  0  0  0  0  0
  -31.6543   10.4225  -20.3450 C   0  0  0  0  0  0  0  0  0  0  0  0
  -32.1738    9.7402  -19.4819 O   0  0  0  0  0  0  0  0  0  0  0  0
  -30.5528   11.7146  -18.6090 C   0  0  0  0  0  0  0  0  0  0  0  0
  -29.1686   12.2941  -18.4695 C   0  0  0  0  0  0  0  0  0  0  0  0
  -28.9978   13.4442  -17.8660 C   0  0  0  0  0  0  0  0  0  0  0  0
  -33.0683    9.0096  -23.4833 N   0  0  0  0  0  0  0  0  0  0  0  0
  -34.1939    8.1601  -23.8803 C   0  0  0  0  0  0  0  0  0  0  0  0
  -34.1891    7.9843  -25.4001 C   0  0  0  0  0  0  0  0  0  0  0  0
  -35.3646    7.0971  -25.8147 C   0  0  0  0  0  0  0  0  0  0  0  0
  -35.5047    7.1215  -27.2767 N   0  3  0  0  0  0  0  0  0  0  0  0
  -36.2020    8.3367  -27.7186 C   0  0  0  0  0  0  0  0  0  0  0  0
  -34.1963    6.9973  -27.9331 C   0  0  0  0  0  0  0  0  0  0  0  0
  -33.9785    7.5167  -21.7387 H   0  0  0  0  0  0  0  0  0  0  0  0
  -33.9343    8.7844  -20.5033 H   0  0  0  0  0  0  0  0  0  0  0  0
  -32.5353    7.6114  -20.6186 H   0  0  0  0  0  0  0  0  0  0  0  0
  -29.9586   12.6401  -22.9434 H   0  0  0  0  0  0  0  0  0  0  0  0
  -30.6186   10.7810  -18.0311 H   0  0  0  0  0  0  0  0  0  0  0  0
  -31.2914   12.4349  -18.2274 H   0  0  0  0  0  0  0  0  0  0  0  0
  -28.3017   11.7514  -18.8745 H   0  0  0  0  0  0  0  0  0  0  0  0
  -29.8646   13.9869  -17.4610 H   0  0  0  0  0  0  0  0  0  0  0  0
  -27.9875   13.8673  -17.7642 H   0  0  0  0  0  0  0  0  0  0  0  0
  -32.5206    9.5068  -24.2000 H   0  0  0  0  0  0  0  0  0  0  0  0
  -34.0990    7.1763  -23.3976 H   0  0  0  0  0  0  0  0  0  0  0  0
  -35.1380    8.6315  -23.5695 H   0  0  0  0  0  0  0  0  0  0  0  0
  -34.2844    8.9679  -25.8834 H   0  0  0  0  0  0  0  0  0  0  0  0
  -33.2461    7.5120  -25.7127 H   0  0  0  0  0  0  0  0  0  0  0  0
  -36.2895    7.4722  -25.3521 H   0  0  0  0  0  0  0  0  0  0  0  0
  -35.1805    6.0650  -25.4816 H   0  0  0  0  0  0  0  0  0  0  0  0
  -36.0759    6.3104  -27.5534 H   0  0  0  0  0  0  0  0  0  0  0  0
  -35.8559    9.1859  -27.1111 H   0  0  0  0  0  0  0  0  0  0  0  0
  -37.2830    8.2017  -27.5658 H   0  0  0  0  0  0  0  0  0  0  0  0
  -35.9951    8.5278  -28.7818 H   0  0  0  0  0  0  0  0  0  0  0  0
  -33.5638    7.8441  -27.6282 H   0  0  0  0  0  0  0  0  0  0  0  0
  -34.3409    7.0303  -29.0231 H   0  0  0  0  0  0  0  0  0  0  0  0
  -33.7166    6.0496  -27.6475 H   0  0  0  0  0  0  0  0  0  0  0  0
  1  2  1  0  0  0  0
  1 22  1  0  0  0  0
  1 23  1  0  0  0  0
  1 24  1  0  0  0  0
  2  3  2  0  0  0  0
  2 15  1  0  0  0  0
  3 10  1  0  0  0  0
  3  4  1  0  0  0  0
  4  5  2  0  0  0  0
  4  6  1  0  0  0  0
  6  7  1  0  0  0  0
  6 25  1  0  0  0  0
  7  8  2  0  0  0  0
  7  9  1  0  0  0  0
  9 10  1  0  0  0  0
  9 12  1  0  0  0  0
 10 11  2  0  0  0  0
 12 13  1  0  0  0  0
 12 26  1  0  0  0  0
 12 27  1  0  0  0  0
 13 14  2  0  0  0  0
 13 28  1  0  0  0  0
 14 29  1  0  0  0  0
 14 30  1  0  0  0  0
 15 16  1  0  0  0  0
 15 31  1  0  0  0  0
 16 17  1  0  0  0  0
 16 32  1  0  0  0  0
 16 33  1  0  0  0  0
 17 18  1  0  0  0  0
 17 34  1  0  0  0  0
 17 35  1  0  0  0  0
 18 19  1  0  0  0  0
 18 36  1  0  0  0  0
 18 37  1  0  0  0  0
 19 20  1  0  0  0  0
 19 21  1  0  0  0  0
 19 38  1  0  0  0  0
 20 39  1  0  0  0  0
 20 40  1  0  0  0  0
 20 41  1  0  0  0  0
 21 42  1  0  0  0  0
 21 43  1  0  0  0  0
 21 44  1  0  0  0  0
M  END
> <Name>
ZINC20292668

> <reference>
BDB5222

> <quality>
0.800

> <status>
decoy

> <atoms in reference ligand area>
16

> <score>
-30.2351

$$$$
ZINC09305196
      BALL 1.4.0 (Jan  4 2012, 23:22:29)

 43 44  0999  0  0  0  0  0  0999 V2000
  -32.9087   13.6799  -20.5892 C   0  0  0  0  0  0  0  0  0  0  0  0
  -33.3116   12.5186  -21.2228 C   0  0  0  0  0  0  0  0  0  0  0  0
  -32.3772   11.6942  -21.8241 C   0  0  0  0  0  0  0  0  0  0  0  0
  -31.0364   12.0309  -21.7805 C   0  0  0  0  0  0  0  0  0  0  0  0
  -30.6261   13.1984  -21.1348 C   0  0  0  0  0  0  0  0  0  0  0  0
  -31.5696   14.0209  -20.5402 C   0  0  0  0  0  0  0  0  0  0  0  0
  -29.2653   13.5219  -21.0919 N   0  0  0  0  0  0  0  0  0  0  0  0
  -28.3828   12.8923  -21.8902 C   0  0  0  0  0  0  0  0  0  0  0  0
  -27.2023   13.1578  -21.8048 O   0  0  0  0  0  0  0  0  0  0  0  0
  -28.8435   11.8611  -22.8883 C   0  0  0  0  0  0  0  0  0  0  0  0
  -30.0640   11.2157  -22.3821 N   0  0  0  0  0  0  0  0  0  0  0  0
  -30.2439    9.8845  -22.4928 C   0  0  0  0  0  0  0  0  0  0  0  0
  -30.3925    9.2061  -21.4947 O   0  0  0  0  0  0  0  0  0  0  0  0
  -30.2590    9.3055  -23.7097 N   0  0  0  0  0  0  0  0  0  0  0  0
  -31.5103    8.7682  -24.2498 C   0  0  0  0  0  0  0  0  0  0  0  0
  -31.2304    7.4456  -24.9663 C   0  0  0  0  0  0  0  0  0  0  0  0
  -32.4769    7.0106  -25.7393 C   0  0  0  0  0  0  0  0  0  0  0  0
  -32.0860    6.0222  -26.8076 C   0  0  0  0  0  0  0  0  0  0  0  0
  -32.4081    4.8575  -26.7033 O   0  0  0  0  0  0  0  0  0  0  0  0
  -31.3785    6.4323  -27.8790 N   0  0  0  0  0  0  0  0  0  0  0  0
  -30.9986    5.4714  -28.9174 C   0  0  0  0  0  0  0  0  0  0  0  0
  -29.5728    5.7660  -29.3879 C   0  0  0  0  0  0  0  0  0  0  0  0
  -28.9331    6.6370  -28.4527 O   0  0  0  0  0  0  0  0  0  0  0  0
  -33.6577   14.3359  -20.1215 H   0  0  0  0  0  0  0  0  0  0  0  0
  -34.3778   12.2496  -21.2488 H   0  0  0  0  0  0  0  0  0  0  0  0
  -32.6994   10.7747  -22.3347 H   0  0  0  0  0  0  0  0  0  0  0  0
  -31.2539   14.9431  -20.0304 H   0  0  0  0  0  0  0  0  0  0  0  0
  -28.9352   14.2499  -20.4424 H   0  0  0  0  0  0  0  0  0  0  0  0
  -28.0575   11.1037  -23.0255 H   0  0  0  0  0  0  0  0  0  0  0  0
  -29.0583   12.3501  -23.8499 H   0  0  0  0  0  0  0  0  0  0  0  0
  -29.3907    9.2408  -24.2600 H   0  0  0  0  0  0  0  0  0  0  0  0
  -32.2206    8.5960  -23.4278 H   0  0  0  0  0  0  0  0  0  0  0  0
  -31.9417    9.4864  -24.9627 H   0  0  0  0  0  0  0  0  0  0  0  0
  -30.3928    7.5781  -25.6669 H   0  0  0  0  0  0  0  0  0  0  0  0
  -30.9710    6.6741  -24.2264 H   0  0  0  0  0  0  0  0  0  0  0  0
  -32.9447    7.8893  -26.2074 H   0  0  0  0  0  0  0  0  0  0  0  0
  -33.1913    6.5394  -25.0483 H   0  0  0  0  0  0  0  0  0  0  0  0
  -31.1050    7.4213  -27.9676 H   0  0  0  0  0  0  0  0  0  0  0  0
  -31.6899    5.5572  -29.7687 H   0  0  0  0  0  0  0  0  0  0  0  0
  -31.0456    4.4514  -28.5083 H   0  0  0  0  0  0  0  0  0  0  0  0
  -29.0077    4.8249  -29.4575 H   0  0  0  0  0  0  0  0  0  0  0  0
  -29.6040    6.2491  -30.3757 H   0  0  0  0  0  0  0  0  0  0  0  0
  -29.5206    7.4118  -28.2668 H   0  0  0  0  0  0  0  0  0  0  0  0
  1  6  2  0  0  0  0
  1  2  1  0  0  0  0
  1 24  1  0  0  0  0
  2  3  2  0  0  0  0
  2 25  1  0  0  0  0
  3  4  1  0  0  0  0
  3 26  1  0  0  0  0
  4 11  1  0  0  0  0
  4  5  2  0  0  0  0
  5  6  1  0  0  0  0
  5  7  1  0  0  0  0
  6 27  1  0  0  0  0
  7  8  1  0  0  0  0
  7 28  1  0  0  0  0
  8  9  2  0  0  0  0
  8 10  1  0  0  0  0
 10 11  1  0  0  0  0
 10 29  1  0  0  0  0
 10 30  1  0  0  0  0
 11 12  1  0  0  0  0
 12 13  2  0  0  0  0
 12 14  1  0  0  0  0
 14 15  1  0  0  0  0
 14 31  1  0  0  0  0
 15 16  1  0  0  0  0
 15 32  1  0  0  0  0
 15 33  1  0  0  0  0
 16 17  1  0  0  0  0
 16 34  1  0  0  0  0
 16 35  1  0  0  0  0
 17 18  1  0  0  0  0
 17 36  1  0  0  0  0
 17 37  1  0  0  0  0
 18 19  2  0  0  0  0
 18 20  1  0  0  0  0
 20 21  1  0  0  0  0
 20 38  1  0  0  0  0
 21 22  1  0  0  0  0
 21 39  1  0  0  0  0
 21 40  1  0  0  0  0
 22 23  1  0  0  0  0
 22 41  1  0  0  0  0
 22 42  1  0  0  0  0
 23 43  1  0  0  0  0
M  END
> <Name>
ZINC09305196

> <reference>
BDB5199

> <quality>
0.746

> <status>
decoy

> <atoms in reference ligand area>
16

> <score>
-30.0537

$$$$
ZINC05594650
      BALL 1.4.0 (Jan  4 2012, 23:22:29)

 33 34  0999  0  0  0  0  0  0999 V2000
  -29.4490   13.4382  -21.1524 C   0  0  0  0  0  0  0  0  0  0  0  0
  -28.5889   13.2435  -20.1691 N   0  0  0  0  0  0  0  0  0  0  0  0
  -28.7798   12.2865  -19.2672 C   0  0  0  0  0  0  0  0  0  0  0  0
  -29.9242   11.4784  -19.3803 C   0  0  0  0  0  0  0  0  0  0  0  0
  -30.8082   11.7256  -20.4438 C   0  0  0  0  0  0  0  0  0  0  0  0
  -30.5333   12.7065  -21.2977 N   0  0  0  0  0  0  0  0  0  0  0  0
  -31.8197   10.8075  -20.3161 N   0  0  0  0  0  0  0  0  0  0  0  0
  -31.5445   10.0463  -19.2193 C   0  0  0  0  0  0  0  0  0  0  0  0
  -30.4321   10.4416  -18.6716 N   0  0  0  0  0  0  0  0  0  0  0  0
  -32.9818   10.6698  -21.1974 C   0  0  0  0  0  0  0  0  0  0  0  0
  -32.9218    9.3188  -21.9133 C   0  0  0  0  0  0  0  0  0  0  0  0
  -33.7477    9.3601  -23.0787 O   0  0  0  0  0  0  0  0  0  0  0  0
  -33.4346    8.3588  -24.0488 C   0  0  0  0  0  0  0  0  0  0  0  0
  -34.1981    8.6462  -25.3431 C   0  0  0  0  0  0  0  0  0  0  0  0
  -34.1682    7.4062  -26.2389 C   0  0  0  0  0  0  0  0  0  0  0  0
  -34.0986    7.8094  -27.6082 O   0  0  0  0  0  0  0  0  0  0  0  0
  -35.5533    8.9773  -25.0332 O   0  0  0  0  0  0  0  0  0  0  0  0
  -27.8733   12.0905  -18.2401 N   0  0  0  0  0  0  0  0  0  0  0  0
  -29.2517   14.2420  -21.8770 H   0  0  0  0  0  0  0  0  0  0  0  0
  -32.1704    9.2200  -18.8513 H   0  0  0  0  0  0  0  0  0  0  0  0
  -33.9038   10.7270  -20.6003 H   0  0  0  0  0  0  0  0  0  0  0  0
  -32.9765   11.4792  -21.9423 H   0  0  0  0  0  0  0  0  0  0  0  0
  -31.8835    9.1056  -22.2077 H   0  0  0  0  0  0  0  0  0  0  0  0
  -33.2811    8.5284  -21.2379 H   0  0  0  0  0  0  0  0  0  0  0  0
  -33.7256    7.3702  -23.6641 H   0  0  0  0  0  0  0  0  0  0  0  0
  -32.3534    8.3697  -24.2514 H   0  0  0  0  0  0  0  0  0  0  0  0
  -33.7256    9.4893  -25.8681 H   0  0  0  0  0  0  0  0  0  0  0  0
  -35.0810    6.8139  -26.0777 H   0  0  0  0  0  0  0  0  0  0  0  0
  -33.2869    6.7962  -25.9916 H   0  0  0  0  0  0  0  0  0  0  0  0
  -33.3705    8.4704  -27.7219 H   0  0  0  0  0  0  0  0  0  0  0  0
  -35.8554    9.7168  -25.6180 H   0  0  0  0  0  0  0  0  0  0  0  0
  -28.1675   11.5803  -17.3952 H   0  0  0  0  0  0  0  0  0  0  0  0
  -26.9117   12.4512  -18.3184 H   0  0  0  0  0  0  0  0  0  0  0  0
  1  6  1  0  0  0  0
  1  2  2  0  0  0  0
  1 19  1  0  0  0  0
  2  3  1  0  0  0  0
  3  4  2  0  0  0  0
  3 18  1  0  0  0  0
  4  9  1  0  0  0  0
  4  5  1  0  0  0  0
  5  6  2  0  0  0  0
  5  7  1  0  0  0  0
  7  8  1  0  0  0  0
  7 10  1  0  0  0  0
  8  9  2  0  0  0  0
  8 20  1  0  0  0  0
 10 11  1  0  0  0  0
 10 21  1  0  0  0  0
 10 22  1  0  0  0  0
 11 12  1  0  0  0  0
 11 23  1  0  0  0  0
 11 24  1  0  0  0  0
 12 13  1  0  0  0  0
 13 14  1  0  0  0  0
 13 25  1  0  0  0  0
 13 26  1  0  0  0  0
 14 15  1  0  0  0  0
 14 17  1  0  0  0  0
 14 27  1  0  0  0  0
 15 16  1  0  0  0  0
 15 28  1  0  0  0  0
 15 29  1  0  0  0  0
 16 30  1  0  0  0  0
 17 31  1  0  0  0  0
 18 32  1  0  0  0  0
 18 33  1  0  0  0  0
M  END
> <Name>
ZINC05594650

> <reference>
BDB5015

> <quality>
0.709

> <status>
decoy

> <atoms in reference ligand area>
14

> <score>
-30.0367

$$$$
ZINC24628488
      BALL 1.4.0 (Jan  4 2012, 23:22:29)

 36 37  0999  0  0  0  0  0  0999 V2000
  -33.9871   12.9925  -16.3013 C   0  0  0  0  0  0  0  0  0  0  0  0
  -33.1839   11.8859  -16.0890 C   0  0  0  0  0  0  0  0  0  0  0  0
  -32.6382   11.2372  -17.2026 C   0  0  0  0  0  0  0  0  0  0  0  0
  -32.9189   11.7396  -18.4824 C   0  0  0  0  0  0  0  0  0  0  0  0
  -33.6891   12.8042  -18.6291 N   0  0  0  0  0  0  0  0  0  0  0  0
  -34.2177   13.4277  -17.5937 C   0  0  0  0  0  0  0  0  0  0  0  0
  -32.3974   11.1307  -19.5738 O   0  0  0  0  0  0  0  0  0  0  0  0
  -32.7215   11.6925  -20.8471 C   0  0  0  0  0  0  0  0  0  0  0  0
  -32.0159   13.0410  -21.0041 C   0  0  0  0  0  0  0  0  0  0  0  0
  -32.7831   13.8760  -21.8234 F   0  0  0  0  0  0  0  0  0  0  0  0
  -31.8610   13.6353  -19.7471 F   0  0  0  0  0  0  0  0  0  0  0  0
  -30.7585   12.8446  -21.5852 F   0  0  0  0  0  0  0  0  0  0  0  0
  -31.7794   10.0497  -17.0338 C   0  0  0  0  0  0  0  0  0  0  0  0
  -30.8995    9.8162  -17.8398 O   0  0  0  0  0  0  0  0  0  0  0  0
  -31.9702    9.2235  -15.9862 N   0  0  0  0  0  0  0  0  0  0  0  0
  -30.8880    8.5176  -15.4446 N   0  0  0  0  0  0  0  0  0  0  0  0
  -30.8066    7.1819  -15.6049 C   0  0  0  0  0  0  0  0  0  0  0  0
  -31.8218    6.5175  -15.7001 O   0  0  0  0  0  0  0  0  0  0  0  0
  -29.4947    6.5289  -15.6647 C   0  0  0  0  0  0  0  0  0  0  0  0
  -29.1892    5.3752  -16.3550 C   0  0  0  0  0  0  0  0  0  0  0  0
  -27.8324    5.1146  -16.1396 C   0  0  0  0  0  0  0  0  0  0  0  0
  -27.3454    6.0873  -15.3327 C   0  0  0  0  0  0  0  0  0  0  0  0
  -28.3454    6.9530  -15.0369 N   0  0  0  0  0  0  0  0  0  0  0  0
  -27.0657    3.9748  -16.6911 N   0  0  0  0  0  0  0  0  0  0  0  0
  -26.8128    3.9299  -17.8816 O   0  0  0  0  0  0  0  0  0  0  0  0
  -26.6877    3.0817  -15.9541 O   0  0  0  0  0  0  0  0  0  0  0  0
  -34.4386   13.5217  -15.4492 H   0  0  0  0  0  0  0  0  0  0  0  0
  -32.9793   11.5251  -15.0701 H   0  0  0  0  0  0  0  0  0  0  0  0
  -34.8532   14.3098  -17.7613 H   0  0  0  0  0  0  0  0  0  0  0  0
  -33.8095   11.8382  -20.9186 H   0  0  0  0  0  0  0  0  0  0  0  0
  -32.3897   11.0107  -21.6440 H   0  0  0  0  0  0  0  0  0  0  0  0
  -32.9116    9.1111  -15.5837 H   0  0  0  0  0  0  0  0  0  0  0  0
  -30.1545    9.0194  -14.9240 H   0  0  0  0  0  0  0  0  0  0  0  0
  -29.8823    4.7732  -16.9610 H   0  0  0  0  0  0  0  0  0  0  0  0
  -26.3077    6.1624  -14.9757 H   0  0  0  0  0  0  0  0  0  0  0  0
  -28.2597    7.7891  -14.4415 H   0  0  0  0  0  0  0  0  0  0  0  0
  1  6  2  0  0  0  0
  1  2  1  0  0  0  0
  1 27  1  0  0  0  0
  2  3  2  0  0  0  0
  2 28  1  0  0  0  0
  3  4  1  0  0  0  0
  3 13  1  0  0  0  0
  4  5  2  0  0  0  0
  4  7  1  0  0  0  0
  5  6  1  0  0  0  0
  6 29  1  0  0  0  0
  7  8  1  0  0  0  0
  8  9  1  0  0  0  0
  8 30  1  0  0  0  0
  8 31  1  0  0  0  0
  9 10  1  0  0  0  0
  9 11  1  0  0  0  0
  9 12  1  0  0  0  0
 13 14  2  0  0  0  0
 13 15  1  0  0  0  0
 15 16  1  0  0  0  0
 15 32  1  0  0  0  0
 16 17  1  0  0  0  0
 16 33  1  0  0  0  0
 17 18  2  0  0  0  0
 17 19  1  0  0  0  0
 19 23  1  0  0  0  0
 19 20  2  0  0  0  0
 20 21  1  0  0  0  0
 20 34  1  0  0  0  0
 21 22  2  0  0  0  0
 21 24  1  0  0  0  0
 22 23  1  0  0  0  0
 22 35  1  0  0  0  0
 23 36  1  0  0  0  0
 24 25  2  0  0  0  0
 24 26  2  0  0  0  0
M  END
> <Name>
ZINC24628488

> <reference>
BDB4952

> <quality>
0.715

> <status>
decoy

> <atoms in reference ligand area>
11

> <score>
-29.934

$$$$
ZINC13354670
      BALL 1.4.0 (Jan  4 2012, 23:22:29)

 43 44  0999  0  0  0  0  0  0999 V2000
  -27.9699   13.0113  -21.9472 C   0  0  0  0  0  0  0  0  0  0  0  0
  -26.9654   13.8163  -21.4272 C   0  0  0  0  0  0  0  0  0  0  0  0
  -26.8637   14.0240  -20.0693 C   0  0  0  0  0  0  0  0  0  0  0  0
  -27.7755   13.4220  -19.2080 C   0  0  0  0  0  0  0  0  0  0  0  0
  -28.7914   12.6073  -19.7400 C   0  0  0  0  0  0  0  0  0  0  0  0
  -28.8757   12.4102  -21.1197 C   0  0  0  0  0  0  0  0  0  0  0  0
  -29.5709   12.1323  -18.5942 C   0  0  0  0  0  0  0  0  0  0  0  0
  -29.0147   12.6633  -17.4939 C   0  0  0  0  0  0  0  0  0  0  0  0
  -27.9374   13.4326  -17.8407 N   0  0  0  0  0  0  0  0  0  0  0  0
  -30.7732   11.2249  -18.6421 C   0  0  0  0  0  0  0  0  0  0  0  0
  -31.6255   11.4556  -17.4209 C   0  0  0  0  0  0  0  0  0  0  0  0
  -31.3935   12.3936  -16.6878 O   0  0  0  0  0  0  0  0  0  0  0  0
  -32.6456   10.6197  -17.1435 N   0  0  0  0  0  0  0  0  0  0  0  0
  -33.4744   10.8440  -15.9564 C   0  0  0  0  0  0  0  0  0  0  0  0
  -34.2006    9.5484  -15.5891 C   0  0  0  0  0  0  0  0  0  0  0  0
  -35.2487    9.8387  -14.5129 C   0  0  0  0  0  0  0  0  0  0  0  0
  -36.1396    8.6092  -14.3238 C   0  0  0  0  0  0  0  0  0  0  0  0
  -37.4504    9.0273  -13.6545 C   0  0  0  0  0  0  0  0  0  0  0  0
  -38.4629    7.9204  -13.7976 C   0  0  0  0  0  0  0  0  0  0  0  0
  -38.3209    7.0787  -14.6529 O   0  0  0  0  0  0  0  0  0  0  0  0
  -39.5194    7.8662  -12.9715 O   0  5  0  0  0  0  0  0  0  0  0  0
  -37.9833   10.2481  -14.2845 N   0  3  0  0  0  0  0  0  0  0  0  0
  -28.0370   12.8561  -23.0341 H   0  0  0  0  0  0  0  0  0  0  0  0
  -26.2434   14.2931  -22.1065 H   0  0  0  0  0  0  0  0  0  0  0  0
  -26.0643   14.6637  -19.6671 H   0  0  0  0  0  0  0  0  0  0  0  0
  -29.6685   11.7732  -21.5388 H   0  0  0  0  0  0  0  0  0  0  0  0
  -29.3720   12.5038  -16.4659 H   0  0  0  0  0  0  0  0  0  0  0  0
  -27.3371   13.9433  -17.1777 H   0  0  0  0  0  0  0  0  0  0  0  0
  -30.4419   10.1762  -18.6643 H   0  0  0  0  0  0  0  0  0  0  0  0
  -31.3614   11.4429  -19.5457 H   0  0  0  0  0  0  0  0  0  0  0  0
  -32.8426    9.8231  -17.7660 H   0  0  0  0  0  0  0  0  0  0  0  0
  -32.8358   11.1564  -15.1169 H   0  0  0  0  0  0  0  0  0  0  0  0
  -34.2137   11.6308  -16.1673 H   0  0  0  0  0  0  0  0  0  0  0  0
  -34.6963    9.1399  -16.4822 H   0  0  0  0  0  0  0  0  0  0  0  0
  -33.4751    8.8161  -15.2052 H   0  0  0  0  0  0  0  0  0  0  0  0
  -34.7445   10.0749  -13.5642 H   0  0  0  0  0  0  0  0  0  0  0  0
  -35.8668   10.6943  -14.8227 H   0  0  0  0  0  0  0  0  0  0  0  0
  -36.3562    8.1589  -15.3038 H   0  0  0  0  0  0  0  0  0  0  0  0
  -35.6227    7.8745  -13.6889 H   0  0  0  0  0  0  0  0  0  0  0  0
  -37.2543    9.2261  -12.5905 H   0  0  0  0  0  0  0  0  0  0  0  0
  -39.0056   10.1614  -14.3754 H   0  0  0  0  0  0  0  0  0  0  0  0
  -37.5674   10.3531  -15.2209 H   0  0  0  0  0  0  0  0  0  0  0  0
  -37.7540   11.0702  -13.7079 H   0  0  0  0  0  0  0  0  0  0  0  0
  1  6  1  0  0  0  0
  1  2  2  0  0  0  0
  1 23  1  0  0  0  0
  2  3  1  0  0  0  0
  2 24  1  0  0  0  0
  3  4  2  0  0  0  0
  3 25  1  0  0  0  0
  4  9  1  0  0  0  0
  4  5  1  0  0  0  0
  5  6  2  0  0  0  0
  5  7  1  0  0  0  0
  6 26  1  0  0  0  0
  7  8  2  0  0  0  0
  7 10  1  0  0  0  0
  8  9  1  0  0  0  0
  8 27  1  0  0  0  0
  9 28  1  0  0  0  0
 10 11  1  0  0  0  0
 10 29  1  0  0  0  0
 10 30  1  0  0  0  0
 11 12  2  0  0  0  0
 11 13  1  0  0  0  0
 13 14  1  0  0  0  0
 13 31  1  0  0  0  0
 14 15  1  0  0  0  0
 14 32  1  0  0  0  0
 14 33  1  0  0  0  0
 15 16  1  0  0  0  0
 15 34  1  0  0  0  0
 15 35  1  0  0  0  0
 16 17  1  0  0  0  0
 16 36  1  0  0  0  0
 16 37  1  0  0  0  0
 17 18  1  0  0  0  0
 17 38  1  0  0  0  0
 17 39  1  0  0  0  0
 18 19  1  0  0  0  0
 18 22  1  0  0  0  0
 18 40  1  0  0  0  0
 19 20  2  0  0  0  0
 19 21  1  0  0  0  0
 22 41  1  0  0  0  0
 22 42  1  0  0  0  0
 22 43  1  0  0  0  0
M  END
> <Name>
ZINC13354670

> <reference>
BDB5021

> <quality>
0.671

> <status>
decoy

> <atoms in reference ligand area>
15

> <score>
-29.9218

$$$$
ZINC02441083
      BALL 1.4.0 (Jan  4 2012, 23:22:29)

 61 64  0999  0  0  0  0  0  0999 V2000
  -36.4962    6.9851  -29.4068 C   0  0  0  0  0  0  0  0  0  0  0  0
  -36.0802    7.9637  -28.3068 C   0  0  0  0  0  0  0  0  0  0  0  0
  -36.1224    7.2662  -26.9716 C   0  0  0  0  0  0  0  0  0  0  0  0
  -36.4992    5.9379  -26.8985 C   0  0  0  0  0  0  0  0  0  0  0  0
  -36.5387    5.2962  -25.6758 C   0  0  0  0  0  0  0  0  0  0  0  0
  -36.1999    5.9857  -24.5207 C   0  0  0  0  0  0  0  0  0  0  0  0
  -35.8276    7.3200  -24.5960 C   0  0  0  0  0  0  0  0  0  0  0  0
  -35.7847    7.9558  -25.8217 C   0  0  0  0  0  0  0  0  0  0  0  0
  -36.2380    5.3567  -23.3166 O   0  0  0  0  0  0  0  0  0  0  0  0
  -36.3146    6.1845  -22.1543 C   0  0  0  0  0  0  0  0  0  0  0  0
  -35.1158    5.9310  -21.2771 C   0  0  0  0  0  0  0  0  0  0  0  0
  -35.0897    4.8763  -20.4838 C   0  0  0  0  0  0  0  0  0  0  0  0
  -34.0382    6.8072  -21.3032 N   0  3  0  0  0  0  0  0  0  0  0  0
  -34.0047    7.9027  -20.4304 N   0  0  0  0  0  0  0  0  0  0  0  0
  -33.3565    9.0628  -20.8035 C   0  0  0  0  0  0  0  0  0  0  0  0
  -32.9030    9.3195  -22.0052 N   0  0  0  0  0  0  0  0  0  0  0  0
  -32.3235   10.5463  -22.0154 C   0  0  0  0  0  0  0  0  0  0  0  0
  -31.6859   11.3262  -22.9939 C   0  0  0  0  0  0  0  0  0  0  0  0
  -31.2195   12.5214  -22.6470 N   0  0  0  0  0  0  0  0  0  0  0  0
  -31.3484   12.9734  -21.4129 C   0  0  0  0  0  0  0  0  0  0  0  0
  -31.9388   12.2773  -20.4640 N   0  0  0  0  0  0  0  0  0  0  0  0
  -32.4357   11.0716  -20.7180 C   0  0  0  0  0  0  0  0  0  0  0  0
  -33.0905   10.1171  -19.9740 N   0  0  0  0  0  0  0  0  0  0  0  0
  -33.4383   10.2125  -18.5540 C   0  0  0  0  0  0  0  0  0  0  0  0
  -32.4159   11.1006  -17.8002 C   0  0  0  0  0  0  0  0  0  0  0  0
  -32.5424   10.5795  -16.3479 C   0  0  0  0  0  0  0  0  0  0  0  0
  -33.1576    9.1751  -16.5029 C   0  0  0  0  0  0  0  0  0  0  0  0
  -33.3063    8.9266  -17.9108 O   0  0  0  0  0  0  0  0  0  0  0  0
  -32.2276    8.1287  -15.8853 C   0  0  0  0  0  0  0  0  0  0  0  0
  -30.8897    8.6305  -15.8698 O   0  0  0  0  0  0  0  0  0  0  0  0
  -33.4073   11.4229  -15.5846 O   0  0  0  0  0  0  0  0  0  0  0  0
  -32.7813   12.4797  -17.8808 O   0  0  0  0  0  0  0  0  0  0  0  0
  -31.5462   10.8603  -24.2914 N   0  0  0  0  0  0  0  0  0  0  0  0
  -37.2698    7.4478  -30.0373 H   0  0  0  0  0  0  0  0  0  0  0  0
  -36.8962    6.0676  -28.9507 H   0  0  0  0  0  0  0  0  0  0  0  0
  -35.6220    6.7346  -30.0256 H   0  0  0  0  0  0  0  0  0  0  0  0
  -35.0581    8.3210  -28.5010 H   0  0  0  0  0  0  0  0  0  0  0  0
  -36.7716    8.8191  -28.2948 H   0  0  0  0  0  0  0  0  0  0  0  0
  -36.7677    5.3917  -27.8148 H   0  0  0  0  0  0  0  0  0  0  0  0
  -36.8387    4.2395  -25.6182 H   0  0  0  0  0  0  0  0  0  0  0  0
  -35.5669    7.8713  -23.6806 H   0  0  0  0  0  0  0  0  0  0  0  0
  -35.4815    9.0114  -25.8830 H   0  0  0  0  0  0  0  0  0  0  0  0
  -37.2329    5.9502  -21.5957 H   0  0  0  0  0  0  0  0  0  0  0  0
  -36.3294    7.2418  -22.4573 H   0  0  0  0  0  0  0  0  0  0  0  0
  -35.9430    4.1825  -20.4631 H   0  0  0  0  0  0  0  0  0  0  0  0
  -34.2146    4.6913  -19.8435 H   0  0  0  0  0  0  0  0  0  0  0  0
  -33.1826    6.2557  -21.1462 H   0  0  0  0  0  0  0  0  0  0  0  0
  -33.9516    7.1696  -22.2635 H   0  0  0  0  0  0  0  0  0  0  0  0
  -34.4638    7.8423  -19.5104 H   0  0  0  0  0  0  0  0  0  0  0  0
  -30.9476   13.9682  -21.1686 H   0  0  0  0  0  0  0  0  0  0  0  0
  -34.4634   10.6095  -18.5153 H   0  0  0  0  0  0  0  0  0  0  0  0
  -31.3947   11.0437  -18.2051 H   0  0  0  0  0  0  0  0  0  0  0  0
  -31.5774   10.5633  -15.8202 H   0  0  0  0  0  0  0  0  0  0  0  0
  -34.1297    9.1163  -15.9914 H   0  0  0  0  0  0  0  0  0  0  0  0
  -32.2652    7.2053  -16.4820 H   0  0  0  0  0  0  0  0  0  0  0  0
  -32.5498    7.9135  -14.8559 H   0  0  0  0  0  0  0  0  0  0  0  0
  -30.6184    8.8206  -14.9369 H   0  0  0  0  0  0  0  0  0  0  0  0
  -34.3475   11.1967  -15.7963 H   0  0  0  0  0  0  0  0  0  0  0  0
  -32.9316   12.8252  -16.9653 H   0  0  0  0  0  0  0  0  0  0  0  0
  -31.9671   11.3903  -25.0678 H   0  0  0  0  0  0  0  0  0  0  0  0
  -31.0263    9.9913  -24.4797 H   0  0  0  0  0  0  0  0  0  0  0  0
  1  2  1  0  0  0  0
  1 34  1  0  0  0  0
  1 35  1  0  0  0  0
  1 36  1  0  0  0  0
  2  3  1  0  0  0  0
  2 37  1  0  0  0  0
  2 38  1  0  0  0  0
  3  8  2  0  0  0  0
  3  4  1  0  0  0  0
  4  5  2  0  0  0  0
  4 39  1  0  0  0  0
  5  6  1  0  0  0  0
  5 40  1  0  0  0  0
  6  7  2  0  0  0  0
  6  9  1  0  0  0  0
  7  8  1  0  0  0  0
  7 41  1  0  0  0  0
  8 42  1  0  0  0  0
  9 10  1  0  0  0  0
 10 11  1  0  0  0  0
 10 43  1  0  0  0  0
 10 44  1  0  0  0  0
 11 12  2  0  0  0  0
 11 13  1  0  0  0  0
 12 45  1  0  0  0  0
 12 46  1  0  0  0  0
 13 14  1  0  0  0  0
 13 47  1  0  0  0  0
 13 48  1  0  0  0  0
 14 15  1  0  0  0  0
 14 49  1  0  0  0  0
 15 23  1  0  0  0  0
 15 16  2  0  0  0  0
 16 17  1  0  0  0  0
 17 22  1  0  0  0  0
 17 18  2  0  0  0  0
 18 19  1  0  0  0  0
 18 33  1  0  0  0  0
 19 20  2  0  0  0  0
 20 21  1  0  0  0  0
 20 50  1  0  0  0  0
 21 22  2  0  0  0  0
 22 23  1  0  0  0  0
 23 24  1  0  0  0  0
 24 28  1  0  0  0  0
 24 25  1  0  0  0  0
 24 51  1  0  0  0  0
 25 26  1  0  0  0  0
 25 32  1  0  0  0  0
 25 52  1  0  0  0  0
 26 27  1  0  0  0  0
 26 31  1  0  0  0  0
 26 53  1  0  0  0  0
 27 28  1  0  0  0  0
 27 29  1  0  0  0  0
 27 54  1  0  0  0  0
 29 30  1  0  0  0  0
 29 55  1  0  0  0  0
 29 56  1  0  0  0  0
 30 57  1  0  0  0  0
 31 58  1  0  0  0  0
 32 59  1  0  0  0  0
 33 60  1  0  0  0  0
 33 61  1  0  0  0  0
M  END
> <Name>
ZINC02441083

> <reference>
BDB4972

> <quality>
0.685

> <status>
decoy

> <atoms in reference ligand area>
13

> <score>
-29.8088

$$$$
ZINC05667259
      BALL 1.4.0 (Jan  4 2012, 23:22:29)

 39 40  0999  0  0  0  0  0  0999 V2000
  -32.4442   13.7504  -21.9799 C   0  0  0  0  0  0  0  0  0  0  0  0
  -32.3870   12.7638  -21.1052 C   0  0  0  0  0  0  0  0  0  0  0  0
  -33.4435   12.6409  -20.0375 C   0  5  0  0  0  0  0  0  0  0  0  0
  -33.2546   13.7799  -19.0534 C   0  0  0  0  0  0  0  0  0  0  0  0
  -33.2944   14.9364  -19.4150 O   0  0  0  0  0  0  0  0  0  0  0  0
  -33.0412   13.4579  -17.7600 N   0  0  0  0  0  0  0  0  0  0  0  0
  -32.9949   12.1869  -17.3448 C   0  0  0  0  0  0  0  0  0  0  0  0
  -32.7980   11.9875  -16.1627 O   0  0  0  0  0  0  0  0  0  0  0  0
  -33.1443   11.1193  -18.1372 N   0  0  0  0  0  0  0  0  0  0  0  0
  -33.3726   11.2391  -19.4622 C   0  0  0  0  0  0  0  0  0  0  0  0
  -33.5109   10.2625  -20.1673 O   0  0  0  0  0  0  0  0  0  0  0  0
  -33.0676    9.8375  -17.5733 C   0  0  0  0  0  0  0  0  0  0  0  0
  -33.9402    8.8414  -17.9899 C   0  0  0  0  0  0  0  0  0  0  0  0
  -33.8589    7.5782  -17.4372 C   0  0  0  0  0  0  0  0  0  0  0  0
  -32.9165    7.3085  -16.4605 C   0  0  0  0  0  0  0  0  0  0  0  0
  -32.0491    8.3013  -16.0398 C   0  0  0  0  0  0  0  0  0  0  0  0
  -32.1228    9.5644  -16.5937 C   0  0  0  0  0  0  0  0  0  0  0  0
  -32.8218    5.7221  -15.7621 Cl  0  0  0  0  0  0  0  0  0  0  0  0
  -30.4644   11.8131  -22.3344 C   0  0  0  0  0  0  0  0  0  0  0  0
  -29.9805   10.3811  -22.5717 C   0  0  0  0  0  0  0  0  0  0  0  0
  -29.7431   10.1645  -24.0676 C   0  0  0  0  0  0  0  0  0  0  0  0
  -30.8898   10.6012  -24.7999 O   0  0  0  0  0  0  0  0  0  0  0  0
  -31.3505   11.7838  -21.1196 N   0  3  0  0  0  0  0  0  0  0  0  0
  -33.2631   14.4832  -21.9297 H   0  0  0  0  0  0  0  0  0  0  0  0
  -31.6731   13.8401  -22.7592 H   0  0  0  0  0  0  0  0  0  0  0  0
  -32.9101   14.2133  -17.0721 H   0  0  0  0  0  0  0  0  0  0  0  0
  -34.6956    9.0579  -18.7595 H   0  0  0  0  0  0  0  0  0  0  0  0
  -34.5438    6.7860  -17.7737 H   0  0  0  0  0  0  0  0  0  0  0  0
  -31.3004    8.0844  -15.2637 H   0  0  0  0  0  0  0  0  0  0  0  0
  -31.4332   10.3533  -16.2589 H   0  0  0  0  0  0  0  0  0  0  0  0
  -29.6027   12.4717  -22.1506 H   0  0  0  0  0  0  0  0  0  0  0  0
  -31.0386   12.1623  -23.2052 H   0  0  0  0  0  0  0  0  0  0  0  0
  -29.0408   10.2160  -22.0242 H   0  0  0  0  0  0  0  0  0  0  0  0
  -30.7421    9.6718  -22.2155 H   0  0  0  0  0  0  0  0  0  0  0  0
  -29.5703    9.0956  -24.2615 H   0  0  0  0  0  0  0  0  0  0  0  0
  -28.8630   10.7420  -24.3868 H   0  0  0  0  0  0  0  0  0  0  0  0
  -30.8075   10.3164  -25.7444 H   0  0  0  0  0  0  0  0  0  0  0  0
  -30.7656   11.9132  -20.2817 H   0  0  0  0  0  0  0  0  0  0  0  0
  -31.7798   10.8504  -21.0473 H   0  0  0  0  0  0  0  0  0  0  0  0
  1  2  2  0  0  0  0
  1 24  1  0  0  0  0
  1 25  1  0  0  0  0
  2  3  1  0  0  0  0
  2 23  1  0  0  0  0
  3 10  1  0  0  0  0
  3  4  1  0  0  0  0
  4  5  2  0  0  0  0
  4  6  1  0  0  0  0
  6  7  1  0  0  0  0
  6 26  1  0  0  0  0
  7  8  2  0  0  0  0
  7  9  1  0  0  0  0
  9 10  1  0  0  0  0
  9 12  1  0  0  0  0
 10 11  2  0  0  0  0
 12 17  2  0  0  0  0
 12 13  1  0  0  0  0
 13 14  2  0  0  0  0
 13 27  1  0  0  0  0
 14 15  1  0  0  0  0
 14 28  1  0  0  0  0
 15 16  2  0  0  0  0
 15 18  1  0  0  0  0
 16 17  1  0  0  0  0
 16 29  1  0  0  0  0
 17 30  1  0  0  0  0
 19 20  1  0  0  0  0
 19 23  1  0  0  0  0
 19 31  1  0  0  0  0
 19 32  1  0  0  0  0
 20 21  1  0  0  0  0
 20 33  1  0  0  0  0
 20 34  1  0  0  0  0
 21 22  1  0  0  0  0
 21 35  1  0  0  0  0
 21 36  1  0  0  0  0
 22 37  1  0  0  0  0
 23 38  1  0  0  0  0
 23 39  1  0  0  0  0
M  END
> <Name>
ZINC05667259

> <reference>
BDB5198

> <quality>
0.867

> <status>
decoy

> <atoms in reference ligand area>
21

> <score>
-29.762

$$$$
ZINC05758200
      BALL 1.4.0 (Jan  4 2012, 23:22:29)

 20 20  0999  0  0  0  0  0  0999 V2000
  -28.7081   12.6881  -21.6968 C   0  0  0  0  0  0  0  0  0  0  0  0
  -29.8456   13.2667  -21.1685 C   0  0  0  0  0  0  0  0  0  0  0  0
  -31.0903   12.8062  -21.6028 C   0  0  0  0  0  0  0  0  0  0  0  0
  -31.1383   11.8385  -22.5129 N   0  0  0  0  0  0  0  0  0  0  0  0
  -30.0238   11.3099  -22.9949 C   0  0  0  0  0  0  0  0  0  0  0  0
  -28.8296   11.7238  -22.5972 N   0  0  0  0  0  0  0  0  0  0  0  0
  -30.1085   10.2997  -23.9370 N   0  0  0  0  0  0  0  0  0  0  0  0
  -29.7383   10.5388  -25.2300 N   0  0  0  0  0  0  0  0  0  0  0  0
  -32.2579   13.3531  -21.0961 N   0  0  0  0  0  0  0  0  0  0  0  0
  -32.5123   14.6859  -21.2538 N   0  0  0  0  0  0  0  0  0  0  0  0
  -29.7476   14.3461  -20.1604 N   0  0  0  0  0  0  0  0  0  0  0  0
  -30.7163   15.0439  -19.9192 O   0  0  0  0  0  0  0  0  0  0  0  0
  -28.6996   14.5332  -19.5685 O   0  0  0  0  0  0  0  0  0  0  0  0
  -27.7119   13.0243  -21.3736 H   0  0  0  0  0  0  0  0  0  0  0  0
  -30.4508    9.3676  -23.6633 H   0  0  0  0  0  0  0  0  0  0  0  0
  -29.8328   11.5575  -25.3492 H   0  0  0  0  0  0  0  0  0  0  0  0
  -30.4725   10.0980  -25.8023 H   0  0  0  0  0  0  0  0  0  0  0  0
  -32.9341   12.7549  -20.6006 H   0  0  0  0  0  0  0  0  0  0  0  0
  -33.5043   14.7363  -21.5265 H   0  0  0  0  0  0  0  0  0  0  0  0
  -31.9583   14.9665  -22.0755 H   0  0  0  0  0  0  0  0  0  0  0  0
  1  6  2  0  0  0  0
  1  2  1  0  0  0  0
  1 14  1  0  0  0  0
  2  3  2  0  0  0  0
  2 11  1  0  0  0  0
  3  4  1  0  0  0  0
  3  9  1  0  0  0  0
  4  5  2  0  0  0  0
  5  6  1  0  0  0  0
  5  7  1  0  0  0  0
  7  8  1  0  0  0  0
  7 15  1  0  0  0  0
  8 16  1  0  0  0  0
  8 17  1  0  0  0  0
  9 10  1  0  0  0  0
  9 18  1  0  0  0  0
 10 19  1  0  0  0  0
 10 20  1  0  0  0  0
 11 12  2  0  0  0  0
 11 13  2  0  0  0  0
M  END
> <Name>
ZINC05758200

> <reference>
BDB5008

> <quality>
0.697

> <status>
decoy

> <atoms in reference ligand area>
13

> <score>
-29.6591

$$$$
ZINC04661650
      BALL 1.4.0 (Jan  4 2012, 23:22:29)

 54 56  0999  0  0  0  0  0  0999 V2000
  -31.0585    9.7993  -23.3971 C   0  0  0  0  0  0  0  0  0  0  0  0
  -31.5546    8.9572  -24.3721 C   0  0  0  0  0  0  0  0  0  0  0  0
  -32.5301    8.0221  -24.0513 C   0  0  0  0  0  0  0  0  0  0  0  0
  -33.0058    7.9339  -22.7493 C   0  0  0  0  0  0  0  0  0  0  0  0
  -32.5097    8.7767  -21.7747 C   0  0  0  0  0  0  0  0  0  0  0  0
  -31.5348    9.7117  -22.0958 C   0  0  0  0  0  0  0  0  0  0  0  0
  -31.0310   10.5668  -21.1062 N   0  0  0  0  0  0  0  0  0  0  0  0
  -31.8424   11.4670  -20.5167 C   0  0  0  0  0  0  0  0  0  0  0  0
  -32.9862   11.5951  -20.8999 O   0  0  0  0  0  0  0  0  0  0  0  0
  -31.3288   12.3147  -19.3816 C   0  0  0  0  0  0  0  0  0  0  0  0
  -29.9618   11.7961  -18.9298 C   0  0  0  0  0  0  0  0  0  0  0  0
  -29.3216   12.7762  -17.9910 C   0  0  0  0  0  0  0  0  0  0  0  0
  -29.6906   14.0108  -17.8691 C   0  0  0  0  0  0  0  0  0  0  0  0
  -30.8170   14.6320  -18.6419 C   0  0  0  0  0  0  0  0  0  0  0  0
  -31.1656   13.7650  -19.8538 C   0  0  0  0  0  0  0  0  0  0  0  0
  -32.4555   14.2463  -20.4666 C   0  0  0  0  0  0  0  0  0  0  0  0
  -32.8237   13.8006  -21.5275 O   0  0  0  0  0  0  0  0  0  0  0  0
  -33.0332    7.1689  -25.0391 N   0  0  0  0  0  0  0  0  0  0  0  0
  -31.9915    6.8221  -26.0160 C   0  0  0  0  0  0  0  0  0  0  0  0
  -32.5589    5.8275  -27.0314 C   0  0  0  0  0  0  0  0  0  0  0  0
  -34.7665    6.7704  -26.7216 C   0  0  0  0  0  0  0  0  0  0  0  0
  -34.1991    7.7652  -25.7062 C   0  0  0  0  0  0  0  0  0  0  0  0
  -34.2531    5.5277  -28.7357 C   0  0  0  0  0  0  0  0  0  0  0  0
  -34.4406    6.3035  -30.0411 C   0  0  0  0  0  0  0  0  0  0  0  0
  -34.4187    7.7062  -29.7689 O   0  0  0  0  0  0  0  0  0  0  0  0
  -33.1955   15.1703  -19.8338 O   0  5  0  0  0  0  0  0  0  0  0  0
  -33.7163    6.4476  -27.7102 N   0  3  0  0  0  0  0  0  0  0  0  0
  -30.2858   10.5400  -23.6513 H   0  0  0  0  0  0  0  0  0  0  0  0
  -31.1772    9.0267  -25.4030 H   0  0  0  0  0  0  0  0  0  0  0  0
  -33.7776    7.1925  -22.4947 H   0  0  0  0  0  0  0  0  0  0  0  0
  -32.8870    8.7074  -20.7437 H   0  0  0  0  0  0  0  0  0  0  0  0
  -30.0407   10.5072  -20.8294 H   0  0  0  0  0  0  0  0  0  0  0  0
  -32.0455   12.2668  -18.5485 H   0  0  0  0  0  0  0  0  0  0  0  0
  -30.0884   10.8307  -18.4180 H   0  0  0  0  0  0  0  0  0  0  0  0
  -29.3144   11.6570  -19.8083 H   0  0  0  0  0  0  0  0  0  0  0  0
  -28.4867   12.4235  -17.3677 H   0  0  0  0  0  0  0  0  0  0  0  0
  -29.1445   14.6442  -17.1544 H   0  0  0  0  0  0  0  0  0  0  0  0
  -30.5174   15.6334  -18.9845 H   0  0  0  0  0  0  0  0  0  0  0  0
  -31.6999   14.7218  -17.9919 H   0  0  0  0  0  0  0  0  0  0  0  0
  -30.3669   13.8297  -20.6074 H   0  0  0  0  0  0  0  0  0  0  0  0
  -31.1362    6.3665  -25.4958 H   0  0  0  0  0  0  0  0  0  0  0  0
  -31.6615    7.7317  -26.5392 H   0  0  0  0  0  0  0  0  0  0  0  0
  -31.7867    5.5786  -27.7743 H   0  0  0  0  0  0  0  0  0  0  0  0
  -32.8835    4.9139  -26.5118 H   0  0  0  0  0  0  0  0  0  0  0  0
  -35.6297    7.2188  -27.2352 H   0  0  0  0  0  0  0  0  0  0  0  0
  -35.0783    5.8519  -26.2028 H   0  0  0  0  0  0  0  0  0  0  0  0
  -34.9687    8.0033  -24.9571 H   0  0  0  0  0  0  0  0  0  0  0  0
  -33.8949    8.6856  -26.2260 H   0  0  0  0  0  0  0  0  0  0  0  0
  -35.2222    5.1288  -28.4016 H   0  0  0  0  0  0  0  0  0  0  0  0
  -33.5449    4.7012  -28.8956 H   0  0  0  0  0  0  0  0  0  0  0  0
  -33.6264    6.0528  -30.7370 H   0  0  0  0  0  0  0  0  0  0  0  0
  -35.4061    6.0337  -30.4939 H   0  0  0  0  0  0  0  0  0  0  0  0
  -33.5018    7.9797  -29.5150 H   0  0  0  0  0  0  0  0  0  0  0  0
  -33.4095    7.3172  -28.1690 H   0  0  0  0  0  0  0  0  0  0  0  0
  1  6  2  0  0  0  0
  1  2  1  0  0  0  0
  1 28  1  0  0  0  0
  2  3  2  0  0  0  0
  2 29  1  0  0  0  0
  3  4  1  0  0  0  0
  3 18  1  0  0  0  0
  4  5  2  0  0  0  0
  4 30  1  0  0  0  0
  5  6  1  0  0  0  0
  5 31  1  0  0  0  0
  6  7  1  0  0  0  0
  7  8  1  0  0  0  0
  7 32  1  0  0  0  0
  8  9  2  0  0  0  0
  8 10  1  0  0  0  0
 10 15  1  0  0  0  0
 10 11  1  0  0  0  0
 10 33  1  0  0  0  0
 11 12  1  0  0  0  0
 11 34  1  0  0  0  0
 11 35  1  0  0  0  0
 12 13  2  0  0  0  0
 12 36  1  0  0  0  0
 13 14  1  0  0  0  0
 13 37  1  0  0  0  0
 14 15  1  0  0  0  0
 14 38  1  0  0  0  0
 14 39  1  0  0  0  0
 15 16  1  0  0  0  0
 15 40  1  0  0  0  0
 16 17  2  0  0  0  0
 16 26  1  0  0  0  0
 18 22  1  0  0  0  0
 18 19  1  0  0  0  0
 19 20  1  0  0  0  0
 19 41  1  0  0  0  0
 19 42  1  0  0  0  0
 20 27  1  0  0  0  0
 20 43  1  0  0  0  0
 20 44  1  0  0  0  0
 21 22  1  0  0  0  0
 21 27  1  0  0  0  0
 21 45  1  0  0  0  0
 21 46  1  0  0  0  0
 22 47  1  0  0  0  0
 22 48  1  0  0  0  0
 23 24  1  0  0  0  0
 23 27  1  0  0  0  0
 23 49  1  0  0  0  0
 23 50  1  0  0  0  0
 24 25  1  0  0  0  0
 24 51  1  0  0  0  0
 24 52  1  0  0  0  0
 25 53  1  0  0  0  0
 27 54  1  0  0  0  0
M  END
> <Name>
ZINC04661650

> <reference>
BDB4952

> <quality>
0.697

> <status>
decoy

> <atoms in reference ligand area>
17

> <score>
-29.473

$$$$
ZINC06157444
      BALL 1.4.0 (Jan  4 2012, 23:22:29)

 43 45  0999  0  0  0  0  0  0999 V2000
  -32.8277   14.0732  -21.2631 C   0  0  0  0  0  0  0  0  0  0  0  0
  -33.4748   12.7749  -20.8549 C   0  0  0  0  0  0  0  0  0  0  0  0
  -32.7800   11.5855  -20.9827 C   0  0  0  0  0  0  0  0  0  0  0  0
  -31.4968   11.5707  -21.6182 C   0  0  0  0  0  0  0  0  0  0  0  0
  -30.4789   11.5589  -22.1225 N   0  0  0  0  0  0  0  0  0  0  0  0
  -33.3400   10.3819  -20.4904 C   0  0  0  0  0  0  0  0  0  0  0  0
  -34.2819   10.4191  -19.7250 O   0  0  0  0  0  0  0  0  0  0  0  0
  -32.7671    9.0547  -20.9163 C   0  0  0  0  0  0  0  0  0  0  0  0
  -33.0811    8.8176  -22.3275 N   0  0  0  0  0  0  0  0  0  0  0  0
  -34.3323    8.7416  -22.8222 C   0  0  0  0  0  0  0  0  0  0  0  0
  -35.3710    8.8523  -22.2070 O   0  0  0  0  0  0  0  0  0  0  0  0
  -34.1708    8.4907  -24.3085 C   0  0  0  0  0  0  0  0  0  0  0  0
  -32.7104    8.4429  -24.4947 N   0  5  0  0  0  0  0  0  0  0  0  0
  -32.1611    8.6441  -23.2833 C   0  0  0  0  0  0  0  0  0  0  0  0
  -30.9631    8.6658  -23.0797 O   0  0  0  0  0  0  0  0  0  0  0  0
  -34.8070    7.1545  -24.6968 C   0  0  0  0  0  0  0  0  0  0  0  0
  -34.8663    7.0441  -26.1986 C   0  0  0  0  0  0  0  0  0  0  0  0
  -35.8283    7.5318  -26.9978 C   0  0  0  0  0  0  0  0  0  0  0  0
  -35.5432    7.2386  -28.3035 N   0  0  0  0  0  0  0  0  0  0  0  0
  -34.3606    6.5372  -28.3785 C   0  0  0  0  0  0  0  0  0  0  0  0
  -33.8817    6.3897  -27.0636 C   0  0  0  0  0  0  0  0  0  0  0  0
  -32.6875    5.7057  -26.8303 C   0  0  0  0  0  0  0  0  0  0  0  0
  -31.9833    5.1913  -27.8824 C   0  0  0  0  0  0  0  0  0  0  0  0
  -32.4486    5.3391  -29.1817 C   0  0  0  0  0  0  0  0  0  0  0  0
  -33.6277    6.0060  -29.4343 C   0  0  0  0  0  0  0  0  0  0  0  0
  -34.7318   12.7726  -20.3650 N   0  3  0  0  0  0  0  0  0  0  0  0
  -33.0331   14.7676  -20.4350 H   0  0  0  0  0  0  0  0  0  0  0  0
  -33.4076   14.4213  -22.1306 H   0  0  0  0  0  0  0  0  0  0  0  0
  -31.7534   13.9855  -21.4824 H   0  0  0  0  0  0  0  0  0  0  0  0
  -32.3194   11.7738  -20.0017 H   0  0  0  0  0  0  0  0  0  0  0  0
  -33.2043    8.2520  -20.3043 H   0  0  0  0  0  0  0  0  0  0  0  0
  -31.6756    9.0659  -20.7810 H   0  0  0  0  0  0  0  0  0  0  0  0
  -34.6566    9.2573  -24.9300 H   0  0  0  0  0  0  0  0  0  0  0  0
  -35.8257    7.0989  -24.2854 H   0  0  0  0  0  0  0  0  0  0  0  0
  -34.2026    6.3292  -24.2925 H   0  0  0  0  0  0  0  0  0  0  0  0
  -36.7146    8.0852  -26.6539 H   0  0  0  0  0  0  0  0  0  0  0  0
  -36.1264    7.5031  -29.1103 H   0  0  0  0  0  0  0  0  0  0  0  0
  -32.3144    5.5813  -25.8030 H   0  0  0  0  0  0  0  0  0  0  0  0
  -31.0403    4.6558  -27.6982 H   0  0  0  0  0  0  0  0  0  0  0  0
  -31.8703    4.9197  -30.0181 H   0  0  0  0  0  0  0  0  0  0  0  0
  -33.9880    6.1179  -30.4677 H   0  0  0  0  0  0  0  0  0  0  0  0
  -35.2492   13.6581  -20.2698 H   0  0  0  0  0  0  0  0  0  0  0  0
  -35.1741   11.8852  -20.0860 H   0  0  0  0  0  0  0  0  0  0  0  0
  1  2  1  0  0  0  0
  1 27  1  0  0  0  0
  1 28  1  0  0  0  0
  1 29  1  0  0  0  0
  2  3  1  0  0  0  0
  2 26  2  0  0  0  0
  3  4  1  0  0  0  0
  3  6  1  0  0  0  0
  3 30  1  0  0  0  0
  4  5  3  0  0  0  0
  6  7  2  0  0  0  0
  6  8  1  0  0  0  0
  8  9  1  0  0  0  0
  8 31  1  0  0  0  0
  8 32  1  0  0  0  0
  9 14  1  0  0  0  0
  9 10  1  0  0  0  0
 10 11  2  0  0  0  0
 10 12  1  0  0  0  0
 12 13  1  0  0  0  0
 12 16  1  0  0  0  0
 12 33  1  0  0  0  0
 13 14  1  0  0  0  0
 14 15  2  0  0  0  0
 16 17  1  0  0  0  0
 16 34  1  0  0  0  0
 16 35  1  0  0  0  0
 17 21  1  0  0  0  0
 17 18  2  0  0  0  0
 18 19  1  0  0  0  0
 18 36  1  0  0  0  0
 19 20  1  0  0  0  0
 19 37  1  0  0  0  0
 20 25  2  0  0  0  0
 20 21  1  0  0  0  0
 21 22  2  0  0  0  0
 22 23  1  0  0  0  0
 22 38  1  0  0  0  0
 23 24  2  0  0  0  0
 23 39  1  0  0  0  0
 24 25  1  0  0  0  0
 24 40  1  0  0  0  0
 25 41  1  0  0  0  0
 26 42  1  0  0  0  0
 26 43  1  0  0  0  0
M  END
> <Name>
ZINC06157444

> <reference>
BDB5244

> <quality>
0.665

> <status>
decoy

> <atoms in reference ligand area>
10

> <score>
-29.4119

$$$$
ZINC25495269
      BALL 1.4.0 (Jan  4 2012, 23:22:29)

 41 40  0999  0  0  0  0  0  0999 V2000
  -33.0971   13.2953  -21.7762 C   0  0  0  0  0  0  0  0  0  0  0  0
  -33.9402   12.2697  -21.0157 C   0  0  0  0  0  0  0  0  0  0  0  0
  -33.1662   11.0570  -20.8194 O   0  0  0  0  0  0  0  0  0  0  0  0
  -33.7658   10.0508  -20.1638 C   0  0  0  0  0  0  0  0  0  0  0  0
  -34.8670    9.6831  -20.4983 O   0  0  0  0  0  0  0  0  0  0  0  0
  -33.0654    9.3800  -19.0103 C   0  0  0  0  0  0  0  0  0  0  0  0
  -33.2817   10.1992  -17.7363 C   0  0  0  0  0  0  0  0  0  0  0  0
  -32.3903   11.4140  -17.7629 C   0  0  0  0  0  0  0  0  0  0  0  0
  -32.2934   12.1137  -18.8306 N   0  0  0  0  0  0  0  0  0  0  0  0
  -31.3749   13.1694  -18.8954 N   0  0  0  0  0  0  0  0  0  0  0  0
  -31.6798   14.2866  -19.5847 C   0  0  0  0  0  0  0  0  0  0  0  0
  -30.8576   14.7851  -20.3291 O   0  0  0  0  0  0  0  0  0  0  0  0
  -32.8960   14.8514  -19.4490 N   0  0  0  0  0  0  0  0  0  0  0  0
  -31.6127   11.8052  -16.5327 C   0  0  0  0  0  0  0  0  0  0  0  0
  -32.9455    9.3557  -16.5336 C   0  0  0  0  0  0  0  0  0  0  0  0
  -33.7270    9.3463  -15.5198 N   0  0  0  0  0  0  0  0  0  0  0  0
  -34.8326   10.2060  -15.4796 N   0  0  0  0  0  0  0  0  0  0  0  0
  -35.3464   10.5879  -14.2935 C   0  0  0  0  0  0  0  0  0  0  0  0
  -34.6440   10.5961  -13.3011 O   0  0  0  0  0  0  0  0  0  0  0  0
  -36.6387   10.9608  -14.2077 N   0  0  0  0  0  0  0  0  0  0  0  0
  -31.6893    8.5232  -16.5243 C   0  0  0  0  0  0  0  0  0  0  0  0
  -32.2894   13.6622  -21.1257 H   0  0  0  0  0  0  0  0  0  0  0  0
  -33.7326   14.1394  -22.0822 H   0  0  0  0  0  0  0  0  0  0  0  0
  -32.6615   12.8231  -22.6691 H   0  0  0  0  0  0  0  0  0  0  0  0
  -34.2268   12.6835  -20.0375 H   0  0  0  0  0  0  0  0  0  0  0  0
  -34.8458   12.0362  -21.5947 H   0  0  0  0  0  0  0  0  0  0  0  0
  -33.4759    8.3692  -18.8696 H   0  0  0  0  0  0  0  0  0  0  0  0
  -31.9883    9.3120  -19.2232 H   0  0  0  0  0  0  0  0  0  0  0  0
  -34.3332   10.5172  -17.6789 H   0  0  0  0  0  0  0  0  0  0  0  0
  -30.4664   13.0918  -18.4161 H   0  0  0  0  0  0  0  0  0  0  0  0
  -33.5697   14.8166  -20.2273 H   0  0  0  0  0  0  0  0  0  0  0  0
  -33.1517   15.3177  -18.5669 H   0  0  0  0  0  0  0  0  0  0  0  0
  -31.3183   10.8509  -16.0715 H   0  0  0  0  0  0  0  0  0  0  0  0
  -32.3560   12.2663  -15.8656 H   0  0  0  0  0  0  0  0  0  0  0  0
  -30.7539   12.4635  -16.7299 H   0  0  0  0  0  0  0  0  0  0  0  0
  -35.2526   10.5462  -16.3564 H   0  0  0  0  0  0  0  0  0  0  0  0
  -37.1169   10.9550  -13.2954 H   0  0  0  0  0  0  0  0  0  0  0  0
  -37.1481   11.2516  -15.0543 H   0  0  0  0  0  0  0  0  0  0  0  0
  -31.0054    9.0543  -15.8458 H   0  0  0  0  0  0  0  0  0  0  0  0
  -31.2764    8.6266  -17.5386 H   0  0  0  0  0  0  0  0  0  0  0  0
  -31.8436    7.4734  -16.2344 H   0  0  0  0  0  0  0  0  0  0  0  0
  1  2  1  0  0  0  0
  1 22  1  0  0  0  0
  1 23  1  0  0  0  0
  1 24  1  0  0  0  0
  2  3  1  0  0  0  0
  2 25  1  0  0  0  0
  2 26  1  0  0  0  0
  3  4  1  0  0  0  0
  4  5  2  0  0  0  0
  4  6  1  0  0  0  0
  6  7  1  0  0  0  0
  6 27  1  0  0  0  0
  6 28  1  0  0  0  0
  7  8  1  0  0  0  0
  7 15  1  0  0  0  0
  7 29  1  0  0  0  0
  8  9  2  0  0  0  0
  8 14  1  0  0  0  0
  9 10  1  0  0  0  0
 10 11  1  0  0  0  0
 10 30  1  0  0  0  0
 11 12  2  0  0  0  0
 11 13  1  0  0  0  0
 13 31  1  0  0  0  0
 13 32  1  0  0  0  0
 14 33  1  0  0  0  0
 14 34  1  0  0  0  0
 14 35  1  0  0  0  0
 15 16  2  0  0  0  0
 15 21  1  0  0  0  0
 16 17  1  0  0  0  0
 17 18  1  0  0  0  0
 17 36  1  0  0  0  0
 18 19  2  0  0  0  0
 18 20  1  0  0  0  0
 20 37  1  0  0  0  0
 20 38  1  0  0  0  0
 21 39  1  0  0  0  0
 21 40  1  0  0  0  0
 21 41  1  0  0  0  0
M  END
> <Name>
ZINC25495269

> <reference>
BDB5021

> <quality>
0.696

> <status>
decoy

> <atoms in reference ligand area>
14

> <score>
-29.3845

$$$$
ZINC16321740
      BALL 1.4.0 (Jan  4 2012, 23:22:29)

 34 35  0999  0  0  0  0  0  0999 V2000
  -27.4452   14.9670  -17.7978 C   0  0  0  0  0  0  0  0  0  0  0  0
  -27.8119   13.6142  -18.3515 C   0  0  0  0  0  0  0  0  0  0  0  0
  -27.6823   12.6263  -17.6680 O   0  0  0  0  0  0  0  0  0  0  0  0
  -28.2827   13.5067  -19.6039 O   0  0  0  0  0  0  0  0  0  0  0  0
  -29.6830   13.1536  -19.7538 C   0  0  0  0  0  0  0  0  0  0  0  0
  -29.8210   11.6313  -19.8195 C   0  0  0  0  0  0  0  0  0  0  0  0
  -29.6499   11.0252  -18.4130 C   0  0  0  0  0  0  0  0  0  0  0  0
  -30.9743   10.2629  -18.1647 C   0  0  0  0  0  0  0  0  0  0  0  0
  -31.5052   10.0563  -19.6062 C   0  0  0  0  0  0  0  0  0  0  0  0
  -31.1366   11.2791  -20.2794 O   0  0  0  0  0  0  0  0  0  0  0  0
  -32.9604    9.8870  -19.6041 N   0  0  0  0  0  0  0  0  0  0  0  0
  -33.8647   10.8590  -19.3839 C   0  0  0  0  0  0  0  0  0  0  0  0
  -35.0542   10.3193  -19.4643 N   0  0  0  0  0  0  0  0  0  0  0  0
  -34.8824    9.0125  -19.7345 C   0  0  0  0  0  0  0  0  0  0  0  0
  -33.5902    8.7835  -19.8184 N   0  0  0  0  0  0  0  0  0  0  0  0
  -35.9567    8.0119  -19.9110 C   0  0  0  0  0  0  0  0  0  0  0  0
  -35.9139    6.9604  -19.3025 O   0  0  0  0  0  0  0  0  0  0  0  0
  -36.9833    8.2655  -20.7465 N   0  0  0  0  0  0  0  0  0  0  0  0
  -30.7285    9.0080  -17.5270 O   0  0  0  0  0  0  0  0  0  0  0  0
  -29.4745   12.0581  -17.4412 O   0  0  0  0  0  0  0  0  0  0  0  0
  -27.1474   14.7863  -16.7544 H   0  0  0  0  0  0  0  0  0  0  0  0
  -28.3827   15.5420  -17.7826 H   0  0  0  0  0  0  0  0  0  0  0  0
  -26.6563   15.4718  -18.3746 H   0  0  0  0  0  0  0  0  0  0  0  0
  -30.2518   13.5360  -18.8934 H   0  0  0  0  0  0  0  0  0  0  0  0
  -30.0770   13.5970  -20.6801 H   0  0  0  0  0  0  0  0  0  0  0  0
  -29.0513   11.2467  -20.5048 H   0  0  0  0  0  0  0  0  0  0  0  0
  -28.7675   10.3728  -18.3375 H   0  0  0  0  0  0  0  0  0  0  0  0
  -31.6758   10.7946  -17.5049 H   0  0  0  0  0  0  0  0  0  0  0  0
  -31.0942    9.1577  -20.0895 H   0  0  0  0  0  0  0  0  0  0  0  0
  -33.6440   11.9160  -19.1742 H   0  0  0  0  0  0  0  0  0  0  0  0
  -37.3954    9.2087  -20.7843 H   0  0  0  0  0  0  0  0  0  0  0  0
  -37.3556    7.5162  -21.3472 H   0  0  0  0  0  0  0  0  0  0  0  0
  -30.0133    9.1261  -16.8528 H   0  0  0  0  0  0  0  0  0  0  0  0
  -29.3735   11.6466  -16.5465 H   0  0  0  0  0  0  0  0  0  0  0  0
  1  2  1  0  0  0  0
  1 21  1  0  0  0  0
  1 22  1  0  0  0  0
  1 23  1  0  0  0  0
  2  3  2  0  0  0  0
  2  4  1  0  0  0  0
  4  5  1  0  0  0  0
  5  6  1  0  0  0  0
  5 24  1  0  0  0  0
  5 25  1  0  0  0  0
  6 10  1  0  0  0  0
  6  7  1  0  0  0  0
  6 26  1  0  0  0  0
  7  8  1  0  0  0  0
  7 20  1  0  0  0  0
  7 27  1  0  0  0  0
  8  9  1  0  0  0  0
  8 19  1  0  0  0  0
  8 28  1  0  0  0  0
  9 10  1  0  0  0  0
  9 11  1  0  0  0  0
  9 29  1  0  0  0  0
 11 15  1  0  0  0  0
 11 12  1  0  0  0  0
 12 13  2  0  0  0  0
 12 30  1  0  0  0  0
 13 14  1  0  0  0  0
 14 15  2  0  0  0  0
 14 16  1  0  0  0  0
 16 17  2  0  0  0  0
 16 18  1  0  0  0  0
 18 31  1  0  0  0  0
 18 32  1  0  0  0  0
 19 33  1  0  0  0  0
 20 34  1  0  0  0  0
M  END
> <Name>
ZINC16321740

> <reference>
BDB4937

> <quality>
0.731

> <status>
decoy

> <atoms in reference ligand area>
14

> <score>
-29.3372

$$$$
ZINC17669880
      BALL 1.4.0 (Jan  4 2012, 23:22:29)

 28 29  0999  0  0  0  0  0  0999 V2000
  -35.3757    8.9455  -22.3377 C   0  0  0  0  0  0  0  0  0  0  0  0
  -34.5391    8.4714  -23.3541 C   0  0  0  0  0  0  0  0  0  0  0  0
  -33.2048    8.9320  -23.3882 C   0  0  0  0  0  0  0  0  0  0  0  0
  -32.8005    9.7909  -22.4602 N   0  0  0  0  0  0  0  0  0  0  0  0
  -33.6313   10.2111  -21.5168 C   0  0  0  0  0  0  0  0  0  0  0  0
  -34.8920    9.7993  -21.4541 N   0  0  0  0  0  0  0  0  0  0  0  0
  -33.0446   11.3515  -20.3085 S   0  0  0  0  0  0  0  0  0  0  0  0
  -31.4444   11.7841  -21.0354 C   0  0  0  0  0  0  0  0  0  0  0  0
  -30.7414   12.7780  -20.1473 C   0  0  0  0  0  0  0  0  0  0  0  0
  -29.7988   12.3683  -19.3168 N   0  0  0  0  0  0  0  0  0  0  0  0
  -29.1724   13.2440  -18.5339 C   0  0  0  0  0  0  0  0  0  0  0  0
  -29.5032   14.5298  -18.5811 N   0  0  0  0  0  0  0  0  0  0  0  0
  -30.4549   14.9371  -19.4137 C   0  0  0  0  0  0  0  0  0  0  0  0
  -31.0733   14.0562  -20.1970 N   0  0  0  0  0  0  0  0  0  0  0  0
  -30.8025   16.2716  -19.4661 N   0  0  0  0  0  0  0  0  0  0  0  0
  -28.1845   12.8160  -17.6707 N   0  0  0  0  0  0  0  0  0  0  0  0
  -32.3366    8.4974  -24.3689 N   0  0  0  0  0  0  0  0  0  0  0  0
  -35.0229    7.5451  -24.3330 C   0  0  0  0  0  0  0  0  0  0  0  0
  -35.4067    6.8101  -25.1096 N   0  0  0  0  0  0  0  0  0  0  0  0
  -36.4220    8.6114  -22.2756 H   0  0  0  0  0  0  0  0  0  0  0  0
  -31.6001   12.2279  -22.0298 H   0  0  0  0  0  0  0  0  0  0  0  0
  -30.8279   10.8780  -21.1306 H   0  0  0  0  0  0  0  0  0  0  0  0
  -30.2230   16.9335  -20.0017 H   0  0  0  0  0  0  0  0  0  0  0  0
  -31.6410   16.6056  -18.9697 H   0  0  0  0  0  0  0  0  0  0  0  0
  -28.3593   12.0176  -17.0439 H   0  0  0  0  0  0  0  0  0  0  0  0
  -27.2726   13.2947  -17.6532 H   0  0  0  0  0  0  0  0  0  0  0  0
  -32.2660    9.0206  -25.2534 H   0  0  0  0  0  0  0  0  0  0  0  0
  -31.7623    7.6556  -24.2189 H   0  0  0  0  0  0  0  0  0  0  0  0
  1  6  2  0  0  0  0
  1  2  1  0  0  0  0
  1 20  1  0  0  0  0
  2  3  2  0  0  0  0
  2 18  1  0  0  0  0
  3  4  1  0  0  0  0
  3 17  1  0  0  0  0
  4  5  2  0  0  0  0
  5  6  1  0  0  0  0
  5  7  1  0  0  0  0
  7  8  1  0  0  0  0
  8  9  1  0  0  0  0
  8 21  1  0  0  0  0
  8 22  1  0  0  0  0
  9 14  2  0  0  0  0
  9 10  1  0  0  0  0
 10 11  2  0  0  0  0
 11 12  1  0  0  0  0
 11 16  1  0  0  0  0
 12 13  2  0  0  0  0
 13 14  1  0  0  0  0
 13 15  1  0  0  0  0
 15 23  1  0  0  0  0
 15 24  1  0  0  0  0
 16 25  1  0  0  0  0
 16 26  1  0  0  0  0
 17 27  1  0  0  0  0
 17 28  1  0  0  0  0
 18 19  3  0  0  0  0
M  END
> <Name>
ZINC17669880

> <reference>
BDB5008

> <quality>
0.690

> <status>
decoy

> <atoms in reference ligand area>
12

> <score>
-29.0911

$$$$
ZINC06315906
      BALL 1.4.0 (Jan  4 2012, 23:22:29)

 33 35  0999  0  0  0  0  0  0999 V2000
  -27.3693   14.3374  -17.2700 C   0  0  0  0  0  0  0  0  0  0  0  0
  -28.5083   15.0516  -16.9283 C   0  0  0  0  0  0  0  0  0  0  0  0
  -29.7589   14.5422  -17.1952 C   0  0  0  0  0  0  0  0  0  0  0  0
  -29.8830   13.2953  -17.8154 C   0  0  0  0  0  0  0  0  0  0  0  0
  -28.7256   12.5762  -18.1592 C   0  0  0  0  0  0  0  0  0  0  0  0
  -27.4739   13.1056  -17.8825 C   0  0  0  0  0  0  0  0  0  0  0  0
  -29.1604   11.3984  -18.7425 N   0  0  0  0  0  0  0  0  0  0  0  0
  -30.5303   11.4310  -18.7479 C   0  0  0  0  0  0  0  0  0  0  0  0
  -30.9490   12.5483  -18.1981 N   0  0  0  0  0  0  0  0  0  0  0  0
  -31.4011   10.3714  -19.2830 C   0  0  0  0  0  0  0  0  0  0  0  0
  -31.2764    9.7911  -20.5430 C   0  0  0  0  0  0  0  0  0  0  0  0
  -32.2257    8.8413  -20.7515 N   0  0  0  0  0  0  0  0  0  0  0  0
  -33.0672    8.7668  -19.5493 C   0  5  0  0  0  0  0  0  0  0  0  0
  -32.4847    9.7917  -18.5995 C   0  0  0  0  0  0  0  0  0  0  0  0
  -32.8749   10.0606  -17.4800 O   0  0  0  0  0  0  0  0  0  0  0  0
  -32.3790    8.0718  -21.9123 N   0  0  0  0  0  0  0  0  0  0  0  0
  -33.3785    8.3443  -22.7743 C   0  0  0  0  0  0  0  0  0  0  0  0
  -33.1246    8.6445  -23.9224 O   0  0  0  0  0  0  0  0  0  0  0  0
  -34.7995    8.2767  -22.3164 C   0  0  0  0  0  0  0  0  0  0  0  0
  -35.1167    7.5061  -21.4342 O   0  0  0  0  0  0  0  0  0  0  0  0
  -35.7287    9.0715  -22.8832 N   0  0  0  0  0  0  0  0  0  0  0  0
  -30.3212   10.1330  -21.4534 N   0  0  0  0  0  0  0  0  0  0  0  0
  -26.3759   14.7559  -17.0510 H   0  0  0  0  0  0  0  0  0  0  0  0
  -28.4114   16.0327  -16.4403 H   0  0  0  0  0  0  0  0  0  0  0  0
  -30.6577   15.1143  -16.9215 H   0  0  0  0  0  0  0  0  0  0  0  0
  -26.5665   12.5446  -18.1507 H   0  0  0  0  0  0  0  0  0  0  0  0
  -28.5655   10.6396  -19.1047 H   0  0  0  0  0  0  0  0  0  0  0  0
  -33.0037    7.7630  -19.1039 H   0  0  0  0  0  0  0  0  0  0  0  0
  -31.7278    7.2978  -22.1068 H   0  0  0  0  0  0  0  0  0  0  0  0
  -35.4598    9.9934  -23.2558 H   0  0  0  0  0  0  0  0  0  0  0  0
  -36.7077    8.7571  -22.9437 H   0  0  0  0  0  0  0  0  0  0  0  0
  -29.3831    9.7295  -21.3190 H   0  0  0  0  0  0  0  0  0  0  0  0
  -30.5171   10.7646  -22.2431 H   0  0  0  0  0  0  0  0  0  0  0  0
  1  6  1  0  0  0  0
  1  2  2  0  0  0  0
  1 23  1  0  0  0  0
  2  3  1  0  0  0  0
  2 24  1  0  0  0  0
  3  4  2  0  0  0  0
  3 25  1  0  0  0  0
  4  9  1  0  0  0  0
  4  5  1  0  0  0  0
  5  6  2  0  0  0  0
  5  7  1  0  0  0  0
  6 26  1  0  0  0  0
  7  8  1  0  0  0  0
  7 27  1  0  0  0  0
  8  9  2  0  0  0  0
  8 10  1  0  0  0  0
 10 14  1  0  0  0  0
 10 11  2  0  0  0  0
 11 12  1  0  0  0  0
 11 22  1  0  0  0  0
 12 13  1  0  0  0  0
 12 16  1  0  0  0  0
 13 14  1  0  0  0  0
 13 28  1  0  0  0  0
 14 15  2  0  0  0  0
 16 17  1  0  0  0  0
 16 29  1  0  0  0  0
 17 18  2  0  0  0  0
 17 19  1  0  0  0  0
 19 20  2  0  0  0  0
 19 21  1  0  0  0  0
 21 30  1  0  0  0  0
 21 31  1  0  0  0  0
 22 32  1  0  0  0  0
 22 33  1  0  0  0  0
M  END
> <Name>
ZINC06315906

> <reference>
BDB5257

> <quality>
0.817

> <status>
decoy

> <atoms in reference ligand area>
11

> <score>
-29.0654

$$$$
ZINC27249941
      BALL 1.4.0 (Jan  4 2012, 23:22:29)

 59 61  0999  0  0  0  0  0  0999 V2000
  -34.4916   11.7214  -20.0388 C   0  0  0  0  0  0  0  0  0  0  0  0
  -33.8903   10.3147  -20.0143 C   0  0  0  0  0  0  0  0  0  0  0  0
  -32.6459   10.3020  -20.7874 N   0  0  0  0  0  0  0  0  0  0  0  0
  -31.5943   11.1871  -20.6598 C   0  0  0  0  0  0  0  0  0  0  0  0
  -31.3503   12.2885  -19.8506 C   0  0  0  0  0  0  0  0  0  0  0  0
  -30.1664   12.9825  -19.9806 C   0  0  0  0  0  0  0  0  0  0  0  0
  -29.2186   12.5877  -20.9143 C   0  0  0  0  0  0  0  0  0  0  0  0
  -29.4413   11.5063  -21.7187 C   0  0  0  0  0  0  0  0  0  0  0  0
  -30.6343   10.7875  -21.6047 C   0  0  0  0  0  0  0  0  0  0  0  0
  -31.1363    9.6991  -22.2424 N   0  0  0  0  0  0  0  0  0  0  0  0
  -32.3111    9.4136  -21.7618 C   0  0  0  0  0  0  0  0  0  0  0  0
  -33.1775    8.2695  -22.2217 C   0  0  0  0  0  0  0  0  0  0  0  0
  -32.3700    7.3592  -23.1493 C   0  0  0  0  0  0  0  0  0  0  0  0
  -33.2416    6.9066  -24.2923 C   0  0  0  0  0  0  0  0  0  0  0  0
  -34.3951    7.2757  -24.3585 O   0  0  0  0  0  0  0  0  0  0  0  0
  -32.7394    6.0915  -25.2410 N   0  0  0  0  0  0  0  0  0  0  0  0
  -33.5756    5.5842  -26.2420 C   0  0  0  0  0  0  0  0  0  0  0  0
  -34.8613    5.1618  -25.9253 C   0  0  0  0  0  0  0  0  0  0  0  0
  -35.6912    4.6600  -26.9102 C   0  0  0  0  0  0  0  0  0  0  0  0
  -35.2486    4.5752  -28.2148 C   0  0  0  0  0  0  0  0  0  0  0  0
  -33.9593    4.9971  -28.5431 C   0  0  0  0  0  0  0  0  0  0  0  0
  -33.1236    5.5081  -27.5500 C   0  0  0  0  0  0  0  0  0  0  0  0
  -31.7320    5.9707  -27.8970 C   0  0  0  0  0  0  0  0  0  0  0  0
  -33.4828    4.9079  -29.9400 C   0  0  0  0  0  0  0  0  0  0  0  0
  -32.8731    3.9246  -30.3125 O   0  0  0  0  0  0  0  0  0  0  0  0
  -33.7244    5.9170  -30.8002 N   0  0  0  0  0  0  0  0  0  0  0  0
  -27.7126   13.4901  -21.0634 S   0  0  0  0  0  0  0  0  0  0  0  0
  -27.2267   13.2550  -22.3778 O   0  0  0  0  0  0  0  0  0  0  0  0
  -27.9716   14.7970  -20.5693 O   0  0  0  0  0  0  0  0  0  0  0  0
  -26.6230   12.7990  -20.0253 N   0  0  0  0  0  0  0  0  0  0  0  0
  -26.7975   12.9428  -18.5779 C   0  0  0  0  0  0  0  0  0  0  0  0
  -25.4846   12.0439  -20.5544 C   0  0  0  0  0  0  0  0  0  0  0  0
  -35.5527   11.6628  -20.3226 H   0  0  0  0  0  0  0  0  0  0  0  0
  -33.9507   12.3397  -20.7703 H   0  0  0  0  0  0  0  0  0  0  0  0
  -34.4046   12.1755  -19.0408 H   0  0  0  0  0  0  0  0  0  0  0  0
  -34.6028    9.6024  -20.4559 H   0  0  0  0  0  0  0  0  0  0  0  0
  -33.6784   10.0244  -18.9746 H   0  0  0  0  0  0  0  0  0  0  0  0
  -32.0983   12.6059  -19.1091 H   0  0  0  0  0  0  0  0  0  0  0  0
  -29.9715   13.8552  -19.3399 H   0  0  0  0  0  0  0  0  0  0  0  0
  -28.6828   11.2018  -22.4549 H   0  0  0  0  0  0  0  0  0  0  0  0
  -33.5180    7.6933  -21.3488 H   0  0  0  0  0  0  0  0  0  0  0  0
  -34.0497    8.6635  -22.7640 H   0  0  0  0  0  0  0  0  0  0  0  0
  -32.0178    6.4814  -22.5879 H   0  0  0  0  0  0  0  0  0  0  0  0
  -31.5056    7.9126  -23.5449 H   0  0  0  0  0  0  0  0  0  0  0  0
  -31.7401    5.8421  -25.2292 H   0  0  0  0  0  0  0  0  0  0  0  0
  -35.2197    5.2272  -24.8874 H   0  0  0  0  0  0  0  0  0  0  0  0
  -36.7077    4.3270  -26.6534 H   0  0  0  0  0  0  0  0  0  0  0  0
  -35.9121    4.1752  -28.9957 H   0  0  0  0  0  0  0  0  0  0  0  0
  -31.6678    6.9975  -27.5078 H   0  0  0  0  0  0  0  0  0  0  0  0
  -31.7199    6.0384  -28.9948 H   0  0  0  0  0  0  0  0  0  0  0  0
  -30.9353    5.3209  -27.5058 H   0  0  0  0  0  0  0  0  0  0  0  0
  -34.2410    6.7503  -30.4846 H   0  0  0  0  0  0  0  0  0  0  0  0
  -33.3925    5.8548  -31.7733 H   0  0  0  0  0  0  0  0  0  0  0  0
  -25.9925   12.3330  -18.1419 H   0  0  0  0  0  0  0  0  0  0  0  0
  -27.7393   12.4175  -18.3609 H   0  0  0  0  0  0  0  0  0  0  0  0
  -26.7935   13.9794  -18.2099 H   0  0  0  0  0  0  0  0  0  0  0  0
  -25.5669   11.0544  -20.0809 H   0  0  0  0  0  0  0  0  0  0  0  0
  -24.6026   12.5293  -20.1113 H   0  0  0  0  0  0  0  0  0  0  0  0
  -25.4336   11.9880  -21.6518 H   0  0  0  0  0  0  0  0  0  0  0  0
  1  2  1  0  0  0  0
  1 33  1  0  0  0  0
  1 34  1  0  0  0  0
  1 35  1  0  0  0  0
  2  3  1  0  0  0  0
  2 36  1  0  0  0  0
  2 37  1  0  0  0  0
  3 11  1  0  0  0  0
  3  4  1  0  0  0  0
  4  9  1  0  0  0  0
  4  5  2  0  0  0  0
  5  6  1  0  0  0  0
  5 38  1  0  0  0  0
  6  7  2  0  0  0  0
  6 39  1  0  0  0  0
  7  8  1  0  0  0  0
  7 27  1  0  0  0  0
  8  9  2  0  0  0  0
  8 40  1  0  0  0  0
  9 10  1  0  0  0  0
 10 11  2  0  0  0  0
 11 12  1  0  0  0  0
 12 13  1  0  0  0  0
 12 41  1  0  0  0  0
 12 42  1  0  0  0  0
 13 14  1  0  0  0  0
 13 43  1  0  0  0  0
 13 44  1  0  0  0  0
 14 15  2  0  0  0  0
 14 16  1  0  0  0  0
 16 17  1  0  0  0  0
 16 45  1  0  0  0  0
 17 22  2  0  0  0  0
 17 18  1  0  0  0  0
 18 19  2  0  0  0  0
 18 46  1  0  0  0  0
 19 20  1  0  0  0  0
 19 47  1  0  0  0  0
 20 21  2  0  0  0  0
 20 48  1  0  0  0  0
 21 22  1  0  0  0  0
 21 24  1  0  0  0  0
 22 23  1  0  0  0  0
 23 49  1  0  0  0  0
 23 50  1  0  0  0  0
 23 51  1  0  0  0  0
 24 25  2  0  0  0  0
 24 26  1  0  0  0  0
 26 52  1  0  0  0  0
 26 53  1  0  0  0  0
 27 28  2  0  0  0  0
 27 29  2  0  0  0  0
 27 30  1  0  0  0  0
 30 31  1  0  0  0  0
 30 32  1  0  0  0  0
 31 54  1  0  0  0  0
 31 55  1  0  0  0  0
 31 56  1  0  0  0  0
 32 57  1  0  0  0  0
 32 58  1  0  0  0  0
 32 59  1  0  0  0  0
M  END
> <Name>
ZINC27249941

> <reference>
BDB4968

> <quality>
0.739

> <status>
decoy

> <atoms in reference ligand area>
22

> <score>
-28.8844

$$$$
ZINC31217234
      BALL 1.4.0 (Jan  4 2012, 23:22:29)

 48 49  0999  0  0  0  0  0  0999 V2000
  -38.2974    8.6013  -13.0628 C   0  0  0  0  0  0  0  0  0  0  0  0
  -37.7497   10.3272  -12.9524 S   0  0  0  0  0  0  0  0  0  0  0  0
  -38.7465   11.1175  -12.3192 O   0  0  0  0  0  0  0  0  0  0  0  0
  -37.1745   10.7379  -14.1851 O   0  0  0  0  0  0  0  0  0  0  0  0
  -36.4856   10.3049  -11.8829 N   0  0  0  0  0  0  0  0  0  0  0  0
  -35.4534    9.2708  -11.9902 C   0  0  0  0  0  0  0  0  0  0  0  0
  -34.1150    9.9211  -12.3463 C   0  0  0  0  0  0  0  0  0  0  0  0
  -33.3772    9.0462  -13.3617 C   0  0  0  0  0  0  0  0  0  0  0  0
  -33.1453    9.8120  -14.5889 N   0  0  0  0  0  0  0  0  0  0  0  0
  -32.5071    9.2406  -15.6293 C   0  0  0  0  0  0  0  0  0  0  0  0
  -32.1237    8.0899  -15.5494 O   0  0  0  0  0  0  0  0  0  0  0  0
  -32.2732   10.0134  -16.8679 C   0  0  0  0  0  0  0  0  0  0  0  0
  -33.2631   10.8653  -17.3600 C   0  0  0  0  0  0  0  0  0  0  0  0
  -33.0382   11.5838  -18.5161 C   0  0  0  0  0  0  0  0  0  0  0  0
  -31.8344   11.4616  -19.1871 C   0  0  0  0  0  0  0  0  0  0  0  0
  -30.8509   10.6148  -18.7074 C   0  0  0  0  0  0  0  0  0  0  0  0
  -31.0611    9.8943  -17.5499 C   0  0  0  0  0  0  0  0  0  0  0  0
  -31.5553   12.3830  -20.6628 S   0  0  0  0  0  0  0  0  0  0  0  0
  -32.6390   12.0915  -21.5346 O   0  0  0  0  0  0  0  0  0  0  0  0
  -30.2009   12.1605  -21.0304 O   0  0  0  0  0  0  0  0  0  0  0  0
  -31.6820   13.9867  -20.2701 N   0  0  0  0  0  0  0  0  0  0  0  0
  -32.7657   14.8881  -20.6878 C   0  0  0  0  0  0  0  0  0  0  0  0
  -32.4504   16.2832  -20.1083 C   0  0  0  0  0  0  0  0  0  0  0  0
  -30.9168   16.2239  -19.8803 C   0  0  0  0  0  0  0  0  0  0  0  0
  -30.7233   14.7486  -19.4492 C   0  0  0  0  0  0  0  0  0  0  0  0
  -39.3946    8.5730  -13.1359 H   0  0  0  0  0  0  0  0  0  0  0  0
  -37.9789    8.0613  -12.1590 H   0  0  0  0  0  0  0  0  0  0  0  0
  -37.8551    8.1277  -13.9517 H   0  0  0  0  0  0  0  0  0  0  0  0
  -36.4250   11.0182  -11.1422 H   0  0  0  0  0  0  0  0  0  0  0  0
  -35.3603    8.7443  -11.0288 H   0  0  0  0  0  0  0  0  0  0  0  0
  -35.7321    8.5531  -12.7759 H   0  0  0  0  0  0  0  0  0  0  0  0
  -34.2947   10.9152  -12.7816 H   0  0  0  0  0  0  0  0  0  0  0  0
  -33.5027   10.0236  -11.4383 H   0  0  0  0  0  0  0  0  0  0  0  0
  -32.4119    8.7294  -12.9399 H   0  0  0  0  0  0  0  0  0  0  0  0
  -33.9850    8.1591  -13.5932 H   0  0  0  0  0  0  0  0  0  0  0  0
  -33.4702   10.7870  -14.6566 H   0  0  0  0  0  0  0  0  0  0  0  0
  -34.2205   10.9636  -16.8273 H   0  0  0  0  0  0  0  0  0  0  0  0
  -33.8177   12.2553  -18.9053 H   0  0  0  0  0  0  0  0  0  0  0  0
  -29.8993   10.5159  -19.2503 H   0  0  0  0  0  0  0  0  0  0  0  0
  -30.2753    9.2275  -17.1652 H   0  0  0  0  0  0  0  0  0  0  0  0
  -33.7255   14.5289  -20.2878 H   0  0  0  0  0  0  0  0  0  0  0  0
  -32.8030   14.9423  -21.7858 H   0  0  0  0  0  0  0  0  0  0  0  0
  -32.6959   17.0653  -20.8419 H   0  0  0  0  0  0  0  0  0  0  0  0
  -32.9719   16.4261  -19.1504 H   0  0  0  0  0  0  0  0  0  0  0  0
  -30.6228   16.9023  -19.0659 H   0  0  0  0  0  0  0  0  0  0  0  0
  -30.3814   16.4214  -20.8207 H   0  0  0  0  0  0  0  0  0  0  0  0
  -29.6950   14.4251  -19.6680 H   0  0  0  0  0  0  0  0  0  0  0  0
  -30.9641   14.6344  -18.3819 H   0  0  0  0  0  0  0  0  0  0  0  0
  1  2  1  0  0  0  0
  1 26  1  0  0  0  0
  1 27  1  0  0  0  0
  1 28  1  0  0  0  0
  2  3  2  0  0  0  0
  2  4  2  0  0  0  0
  2  5  1  0  0  0  0
  5  6  1  0  0  0  0
  5 29  1  0  0  0  0
  6  7  1  0  0  0  0
  6 30  1  0  0  0  0
  6 31  1  0  0  0  0
  7  8  1  0  0  0  0
  7 32  1  0  0  0  0
  7 33  1  0  0  0  0
  8  9  1  0  0  0  0
  8 34  1  0  0  0  0
  8 35  1  0  0  0  0
  9 10  1  0  0  0  0
  9 36  1  0  0  0  0
 10 11  2  0  0  0  0
 10 12  1  0  0  0  0
 12 17  2  0  0  0  0
 12 13  1  0  0  0  0
 13 14  2  0  0  0  0
 13 37  1  0  0  0  0
 14 15  1  0  0  0  0
 14 38  1  0  0  0  0
 15 16  2  0  0  0  0
 15 18  1  0  0  0  0
 16 17  1  0  0  0  0
 16 39  1  0  0  0  0
 17 40  1  0  0  0  0
 18 19  2  0  0  0  0
 18 20  2  0  0  0  0
 18 21  1  0  0  0  0
 21 25  1  0  0  0  0
 21 22  1  0  0  0  0
 22 23  1  0  0  0  0
 22 41  1  0  0  0  0
 22 42  1  0  0  0  0
 23 24  1  0  0  0  0
 23 43  1  0  0  0  0
 23 44  1  0  0  0  0
 24 25  1  0  0  0  0
 24 45  1  0  0  0  0
 24 46  1  0  0  0  0
 25 47  1  0  0  0  0
 25 48  1  0  0  0  0
M  END
> <Name>
ZINC31217234

> <reference>
BDB4945

> <quality>
0.747

> <status>
decoy

> <atoms in reference ligand area>
12

> <score>
-28.861

$$$$
ZINC03978077
      BALL 1.4.0 (Jan  4 2012, 23:22:29)

 32 33  0999  0  0  0  0  0  0999 V2000
  -34.6901    9.7837  -21.1210 C   0  0  0  0  0  0  0  0  0  0  0  0
  -35.4566    8.7218  -21.1227 N   0  0  0  0  0  0  0  0  0  0  0  0
  -34.9392    7.5110  -21.3748 C   0  0  0  0  0  0  0  0  0  0  0  0
  -33.6455    7.3738  -21.6296 N   0  0  0  0  0  0  0  0  0  0  0  0
  -32.8489    8.4463  -21.6369 C   0  0  0  0  0  0  0  0  0  0  0  0
  -31.6584    8.3248  -21.8705 O   0  0  0  0  0  0  0  0  0  0  0  0
  -33.3702    9.6644  -21.3837 N   0  0  0  0  0  0  0  0  0  0  0  0
  -32.5095   10.8499  -21.3875 C   0  0  0  0  0  0  0  0  0  0  0  0
  -32.7445   11.6548  -20.1077 C   0  0  0  0  0  0  0  0  0  0  0  0
  -33.5820   12.9241  -20.4073 C   0  0  0  0  0  0  0  0  0  0  0  0
  -33.1761   13.8624  -19.2448 C   0  0  0  0  0  0  0  0  0  0  0  0
  -31.8286   13.2969  -18.7559 C   0  0  0  0  0  0  0  0  0  0  0  0
  -31.4956   12.1847  -19.6036 O   0  0  0  0  0  0  0  0  0  0  0  0
  -31.9575   12.8255  -17.3060 C   0  0  0  0  0  0  0  0  0  0  0  0
  -32.2127   13.9491  -16.4607 O   0  0  0  0  0  0  0  0  0  0  0  0
  -33.0149   15.2019  -19.7160 O   0  0  0  0  0  0  0  0  0  0  0  0
  -34.9806   12.6342  -20.3641 O   0  0  0  0  0  0  0  0  0  0  0  0
  -35.7539    6.4064  -21.3684 N   0  0  0  0  0  0  0  0  0  0  0  0
  -35.1209   10.7726  -20.9056 H   0  0  0  0  0  0  0  0  0  0  0  0
  -32.7473   11.4742  -22.2613 H   0  0  0  0  0  0  0  0  0  0  0  0
  -31.4557   10.5380  -21.4356 H   0  0  0  0  0  0  0  0  0  0  0  0
  -33.2382   10.9715  -19.4011 H   0  0  0  0  0  0  0  0  0  0  0  0
  -33.4016   13.3499  -21.4054 H   0  0  0  0  0  0  0  0  0  0  0  0
  -33.9332   13.8998  -18.4477 H   0  0  0  0  0  0  0  0  0  0  0  0
  -31.0448   14.0674  -18.7997 H   0  0  0  0  0  0  0  0  0  0  0  0
  -32.7893   12.1103  -17.2254 H   0  0  0  0  0  0  0  0  0  0  0  0
  -31.0226   12.3373  -16.9935 H   0  0  0  0  0  0  0  0  0  0  0  0
  -32.9592   14.4813  -16.8342 H   0  0  0  0  0  0  0  0  0  0  0  0
  -33.8100   15.4551  -20.2488 H   0  0  0  0  0  0  0  0  0  0  0  0
  -35.4785   13.4785  -20.2247 H   0  0  0  0  0  0  0  0  0  0  0  0
  -35.4230    5.5220  -20.9571 H   0  0  0  0  0  0  0  0  0  0  0  0
  -36.6981    6.4625  -21.7759 H   0  0  0  0  0  0  0  0  0  0  0  0
  1  7  1  0  0  0  0
  1  2  2  0  0  0  0
  1 19  1  0  0  0  0
  2  3  1  0  0  0  0
  3  4  2  0  0  0  0
  3 18  1  0  0  0  0
  4  5  1  0  0  0  0
  5  6  2  0  0  0  0
  5  7  1  0  0  0  0
  7  8  1  0  0  0  0
  8  9  1  0  0  0  0
  8 20  1  0  0  0  0
  8 21  1  0  0  0  0
  9 13  1  0  0  0  0
  9 10  1  0  0  0  0
  9 22  1  0  0  0  0
 10 11  1  0  0  0  0
 10 17  1  0  0  0  0
 10 23  1  0  0  0  0
 11 12  1  0  0  0  0
 11 16  1  0  0  0  0
 11 24  1  0  0  0  0
 12 13  1  0  0  0  0
 12 14  1  0  0  0  0
 12 25  1  0  0  0  0
 14 15  1  0  0  0  0
 14 26  1  0  0  0  0
 14 27  1  0  0  0  0
 15 28  1  0  0  0  0
 16 29  1  0  0  0  0
 17 30  1  0  0  0  0
 18 31  1  0  0  0  0
 18 32  1  0  0  0  0
M  END
> <Name>
ZINC03978077

> <reference>
BDB5257

> <quality>
0.782

> <status>
decoy

> <atoms in reference ligand area>
12

> <score>
-28.7591

$$$$
ZINC03365459
      BALL 1.4.0 (Jan  4 2012, 23:22:29)

 45 46  0999  0  0  0  0  0  0999 V2000
  -25.5841    7.4770  -25.2162 C   0  0  0  0  0  0  0  0  0  0  0  0
  -26.4251    7.1499  -24.1081 O   0  0  0  0  0  0  0  0  0  0  0  0
  -27.8217    7.2884  -24.3776 C   0  0  0  0  0  0  0  0  0  0  0  0
  -28.6138    6.6914  -23.2431 C   0  0  0  0  0  0  0  0  0  0  0  0
  -28.7754    5.4909  -23.1822 O   0  0  0  0  0  0  0  0  0  0  0  0
  -29.1425    7.4915  -22.2961 N   0  0  0  0  0  0  0  0  0  0  0  0
  -30.5301    7.6727  -22.2269 N   0  0  0  0  0  0  0  0  0  0  0  0
  -31.0752    8.3037  -21.1681 C   0  0  0  0  0  0  0  0  0  0  0  0
  -31.5815    7.6587  -20.2708 O   0  0  0  0  0  0  0  0  0  0  0  0
  -31.0577    9.7804  -21.0982 C   0  0  0  0  0  0  0  0  0  0  0  0
  -30.8756   10.5350  -22.2583 C   0  0  0  0  0  0  0  0  0  0  0  0
  -30.8606   11.9124  -22.1863 C   0  0  0  0  0  0  0  0  0  0  0  0
  -31.0309   12.5464  -20.9680 C   0  0  0  0  0  0  0  0  0  0  0  0
  -31.2066   11.8044  -19.8137 C   0  0  0  0  0  0  0  0  0  0  0  0
  -31.2235   10.4259  -19.8720 C   0  0  0  0  0  0  0  0  0  0  0  0
  -31.4163   12.6215  -18.2668 S   0  0  0  0  0  0  0  0  0  0  0  0
  -32.1126   11.7168  -17.4208 O   0  0  0  0  0  0  0  0  0  0  0  0
  -31.9066   13.9230  -18.5582 O   0  0  0  0  0  0  0  0  0  0  0  0
  -29.9093   12.8197  -17.6095 N   0  5  0  0  0  0  0  0  0  0  0  0
  -29.0921   13.8726  -18.0371 C   0  0  0  0  0  0  0  0  0  0  0  0
  -28.9047   14.9814  -17.2249 C   0  0  0  0  0  0  0  0  0  0  0  0
  -28.1014   16.0223  -17.6516 C   0  0  0  0  0  0  0  0  0  0  0  0
  -27.4797   15.9593  -18.8848 C   0  0  0  0  0  0  0  0  0  0  0  0
  -27.6578   14.8548  -19.6975 C   0  0  0  0  0  0  0  0  0  0  0  0
  -28.4607   13.8074  -19.2771 C   0  0  0  0  0  0  0  0  0  0  0  0
  -28.6367   12.7204  -20.0756 O   0  0  0  0  0  0  0  0  0  0  0  0
  -27.6634   12.5027  -21.0988 C   0  0  0  0  0  0  0  0  0  0  0  0
  -24.9550    8.3277  -24.9151 H   0  0  0  0  0  0  0  0  0  0  0  0
  -26.2347    7.8005  -26.0421 H   0  0  0  0  0  0  0  0  0  0  0  0
  -24.9641    6.6207  -25.5197 H   0  0  0  0  0  0  0  0  0  0  0  0
  -28.0696    6.7644  -25.3125 H   0  0  0  0  0  0  0  0  0  0  0  0
  -28.0720    8.3549  -24.4774 H   0  0  0  0  0  0  0  0  0  0  0  0
  -28.5264    7.9696  -21.6232 H   0  0  0  0  0  0  0  0  0  0  0  0
  -31.1335    7.3237  -22.9851 H   0  0  0  0  0  0  0  0  0  0  0  0
  -30.7444   10.0324  -23.2279 H   0  0  0  0  0  0  0  0  0  0  0  0
  -30.7131   12.5081  -23.0991 H   0  0  0  0  0  0  0  0  0  0  0  0
  -31.0266   13.6453  -20.9173 H   0  0  0  0  0  0  0  0  0  0  0  0
  -31.3674    9.8371  -18.9541 H   0  0  0  0  0  0  0  0  0  0  0  0
  -29.3950   15.0324  -16.2416 H   0  0  0  0  0  0  0  0  0  0  0  0
  -27.9565   16.9028  -17.0084 H   0  0  0  0  0  0  0  0  0  0  0  0
  -26.8416   16.7900  -19.2204 H   0  0  0  0  0  0  0  0  0  0  0  0
  -27.1618   14.8080  -20.6782 H   0  0  0  0  0  0  0  0  0  0  0  0
  -28.1196   11.8045  -21.8161 H   0  0  0  0  0  0  0  0  0  0  0  0
  -26.8187   11.9879  -20.6176 H   0  0  0  0  0  0  0  0  0  0  0  0
  -27.3443   13.4349  -21.5879 H   0  0  0  0  0  0  0  0  0  0  0  0
  1  2  1  0  0  0  0
  1 28  1  0  0  0  0
  1 29  1  0  0  0  0
  1 30  1  0  0  0  0
  2  3  1  0  0  0  0
  3  4  1  0  0  0  0
  3 31  1  0  0  0  0
  3 32  1  0  0  0  0
  4  5  2  0  0  0  0
  4  6  1  0  0  0  0
  6  7  1  0  0  0  0
  6 33  1  0  0  0  0
  7  8  1  0  0  0  0
  7 34  1  0  0  0  0
  8  9  2  0  0  0  0
  8 10  1  0  0  0  0
 10 15  2  0  0  0  0
 10 11  1  0  0  0  0
 11 12  2  0  0  0  0
 11 35  1  0  0  0  0
 12 13  1  0  0  0  0
 12 36  1  0  0  0  0
 13 14  2  0  0  0  0
 13 37  1  0  0  0  0
 14 15  1  0  0  0  0
 14 16  1  0  0  0  0
 15 38  1  0  0  0  0
 16 17  2  0  0  0  0
 16 18  2  0  0  0  0
 16 19  1  0  0  0  0
 19 20  1  0  0  0  0
 20 25  2  0  0  0  0
 20 21  1  0  0  0  0
 21 22  2  0  0  0  0
 21 39  1  0  0  0  0
 22 23  1  0  0  0  0
 22 40  1  0  0  0  0
 23 24  2  0  0  0  0
 23 41  1  0  0  0  0
 24 25  1  0  0  0  0
 24 42  1  0  0  0  0
 25 26  1  0  0  0  0
 26 27  1  0  0  0  0
 27 43  1  0  0  0  0
 27 44  1  0  0  0  0
 27 45  1  0  0  0  0
M  END
> <Name>
ZINC03365459

> <reference>
BDB4945

> <quality>
0.723

> <status>
decoy

> <atoms in reference ligand area>
17

> <score>
-28.6393

$$$$
ZINC31599770
      BALL 1.4.0 (Jan  4 2012, 23:22:29)

 38 38  0999  0  0  0  0  0  0999 V2000
  -34.9091    6.8953  -25.8886 C   0  0  0  0  0  0  0  0  0  0  0  0
  -35.2815    8.1594  -25.1112 C   0  0  0  0  0  0  0  0  0  0  0  0
  -34.3930    8.2759  -23.8711 C   0  0  0  0  0  0  0  0  0  0  0  0
  -32.9264    8.3543  -24.2999 C   0  0  0  0  0  0  0  0  0  0  0  0
  -32.5541    7.0901  -25.0772 C   0  0  0  0  0  0  0  0  0  0  0  0
  -33.4425    6.9737  -26.3174 C   0  0  0  0  0  0  0  0  0  0  0  0
  -31.8731    8.4923  -22.8296 S   0  0  0  0  0  0  0  0  0  0  0  0
  -31.6108   10.2776  -22.6437 C   0  0  0  0  0  0  0  0  0  0  0  0
  -32.3631   10.7778  -21.4088 C   0  0  0  0  0  0  0  0  0  0  0  0
  -31.6546   11.9254  -20.8370 N   0  3  0  0  0  0  0  0  0  0  0  0
  -32.1321   13.1184  -20.9828 C   0  0  0  0  0  0  0  0  0  0  0  0
  -31.4867   14.2804  -20.2726 C   0  0  0  0  0  0  0  0  0  0  0  0
  -31.2765   13.8748  -18.5170 S   0  0  0  0  0  0  0  0  0  0  0  0
  -29.2522   13.9985  -18.2183 S   0  0  0  0  0  0  0  0  0  0  0  0
  -28.8311   12.7225  -17.7560 O   0  0  0  0  0  0  0  0  0  0  0  0
  -28.7064   14.6056  -19.3815 O   0  0  0  0  0  0  0  0  0  0  0  0
  -29.0252   14.9733  -17.0717 O   0  5  0  0  0  0  0  0  0  0  0  0
  -33.2246   13.3258  -21.7829 N   0  0  0  0  0  0  0  0  0  0  0  0
  -35.5480    6.8122  -26.7801 H   0  0  0  0  0  0  0  0  0  0  0  0
  -35.0582    6.0141  -25.2472 H   0  0  0  0  0  0  0  0  0  0  0  0
  -36.3357    8.1040  -24.8022 H   0  0  0  0  0  0  0  0  0  0  0  0
  -35.1331    9.0411  -25.7521 H   0  0  0  0  0  0  0  0  0  0  0  0
  -34.6603    9.1850  -23.3125 H   0  0  0  0  0  0  0  0  0  0  0  0
  -34.5400    7.3946  -23.2293 H   0  0  0  0  0  0  0  0  0  0  0  0
  -32.7784    9.2359  -24.9410 H   0  0  0  0  0  0  0  0  0  0  0  0
  -31.4999    7.1467  -25.3862 H   0  0  0  0  0  0  0  0  0  0  0  0
  -32.7018    6.2078  -24.4371 H   0  0  0  0  0  0  0  0  0  0  0  0
  -33.1745    6.0646  -26.8757 H   0  0  0  0  0  0  0  0  0  0  0  0
  -33.2934    7.8550  -26.9584 H   0  0  0  0  0  0  0  0  0  0  0  0
  -30.5361   10.4800  -22.5246 H   0  0  0  0  0  0  0  0  0  0  0  0
  -31.9855   10.7993  -23.5366 H   0  0  0  0  0  0  0  0  0  0  0  0
  -32.4192    9.9729  -20.6612 H   0  0  0  0  0  0  0  0  0  0  0  0
  -33.3802   11.0820  -21.6971 H   0  0  0  0  0  0  0  0  0  0  0  0
  -30.7760   11.7822  -20.3188 H   0  0  0  0  0  0  0  0  0  0  0  0
  -32.1256   15.1708  -20.3684 H   0  0  0  0  0  0  0  0  0  0  0  0
  -30.5034   14.4845  -20.7214 H   0  0  0  0  0  0  0  0  0  0  0  0
  -33.2432   12.9424  -22.7387 H   0  0  0  0  0  0  0  0  0  0  0  0
  -34.0274   13.8652  -21.4286 H   0  0  0  0  0  0  0  0  0  0  0  0
  1  6  1  0  0  0  0
  1  2  1  0  0  0  0
  1 19  1  0  0  0  0
  1 20  1  0  0  0  0
  2  3  1  0  0  0  0
  2 21  1  0  0  0  0
  2 22  1  0  0  0  0
  3  4  1  0  0  0  0
  3 23  1  0  0  0  0
  3 24  1  0  0  0  0
  4  5  1  0  0  0  0
  4  7  1  0  0  0  0
  4 25  1  0  0  0  0
  5  6  1  0  0  0  0
  5 26  1  0  0  0  0
  5 27  1  0  0  0  0
  6 28  1  0  0  0  0
  6 29  1  0  0  0  0
  7  8  1  0  0  0  0
  8  9  1  0  0  0  0
  8 30  1  0  0  0  0
  8 31  1  0  0  0  0
  9 10  1  0  0  0  0
  9 32  1  0  0  0  0
  9 33  1  0  0  0  0
 10 11  2  0  0  0  0
 10 34  1  0  0  0  0
 11 12  1  0  0  0  0
 11 18  1  0  0  0  0
 12 13  1  0  0  0  0
 12 35  1  0  0  0  0
 12 36  1  0  0  0  0
 13 14  1  0  0  0  0
 14 15  2  0  0  0  0
 14 16  2  0  0  0  0
 14 17  1  0  0  0  0
 18 37  1  0  0  0  0
 18 38  1  0  0  0  0
M  END
> <Name>
ZINC31599770

> <reference>
BDB5023

> <quality>
0.664

> <status>
decoy

> <atoms in reference ligand area>
17

> <score>
-28.4975

$$$$
ZINC06414339
      BALL 1.4.0 (Jan  4 2012, 23:22:29)

 58 60  0999  0  0  0  0  0  0999 V2000
  -32.7309   17.3454  -20.7973 C   0  0  0  0  0  0  0  0  0  0  0  0
  -32.6062   16.0446  -21.3755 O   0  0  0  0  0  0  0  0  0  0  0  0
  -32.6272   14.9853  -20.5229 C   0  0  0  0  0  0  0  0  0  0  0  0
  -31.8046   14.9781  -19.4061 C   0  0  0  0  0  0  0  0  0  0  0  0
  -31.8249   13.9025  -18.5399 C   0  0  0  0  0  0  0  0  0  0  0  0
  -32.6695   12.8283  -18.7872 C   0  0  0  0  0  0  0  0  0  0  0  0
  -33.4936   12.8370  -19.9048 C   0  0  0  0  0  0  0  0  0  0  0  0
  -33.4713   13.9130  -20.7704 C   0  0  0  0  0  0  0  0  0  0  0  0
  -32.6904   11.7380  -17.9103 N   0  0  0  0  0  0  0  0  0  0  0  0
  -32.9399   10.4841  -18.6350 C   0  0  0  0  0  0  0  0  0  0  0  0
  -32.8762    9.3102  -17.6550 C   0  0  0  0  0  0  0  0  0  0  0  0
  -33.6226   10.7619  -15.8677 C   0  0  0  0  0  0  0  0  0  0  0  0
  -33.6862   11.9358  -16.8478 C   0  0  0  0  0  0  0  0  0  0  0  0
  -33.8941    8.3635  -15.6719 C   0  0  0  0  0  0  0  0  0  0  0  0
  -32.5288    8.2884  -14.9854 C   0  0  0  0  0  0  0  0  0  0  0  0
  -31.8641    6.9509  -15.3170 C   0  0  0  0  0  0  0  0  0  0  0  0
  -30.4518    7.1364  -15.4323 O   0  0  0  0  0  0  0  0  0  0  0  0
  -29.8211    6.4627  -16.4272 C   0  0  0  0  0  0  0  0  0  0  0  0
  -28.4321    6.4351  -16.4734 C   0  0  0  0  0  0  0  0  0  0  0  0
  -27.7882    5.7487  -17.4785 C   0  0  0  0  0  0  0  0  0  0  0  0
  -28.5332    5.0876  -18.4587 C   0  0  0  0  0  0  0  0  0  0  0  0
  -29.9292    5.1222  -18.4118 C   0  0  0  0  0  0  0  0  0  0  0  0
  -30.5656    5.8069  -17.4006 C   0  0  0  0  0  0  0  0  0  0  0  0
  -27.8470    4.3545  -19.5406 C   0  0  0  0  0  0  0  0  0  0  0  0
  -28.4399    4.0944  -20.5697 O   0  0  0  0  0  0  0  0  0  0  0  0
  -26.5634    3.9735  -19.3877 N   0  0  0  0  0  0  0  0  0  0  0  0
  -26.2458    2.9825  -18.5027 N   0  0  0  0  0  0  0  0  0  0  0  0
  -31.7031    9.3586  -15.4487 O   0  0  0  0  0  0  0  0  0  0  0  0
  -33.8969    9.5105  -16.6048 N   0  3  0  0  0  0  0  0  0  0  0  0
  -33.3432   17.9363  -21.4944 H   0  0  0  0  0  0  0  0  0  0  0  0
  -31.7195   17.7776  -20.7871 H   0  0  0  0  0  0  0  0  0  0  0  0
  -33.1719   17.3226  -19.7899 H   0  0  0  0  0  0  0  0  0  0  0  0
  -31.1359   15.8292  -19.2103 H   0  0  0  0  0  0  0  0  0  0  0  0
  -31.1723   13.8969  -17.6545 H   0  0  0  0  0  0  0  0  0  0  0  0
  -34.1639   11.9872  -20.1006 H   0  0  0  0  0  0  0  0  0  0  0  0
  -34.1233   13.9195  -21.6564 H   0  0  0  0  0  0  0  0  0  0  0  0
  -32.1759   10.3515  -19.4152 H   0  0  0  0  0  0  0  0  0  0  0  0
  -33.9366   10.5202  -19.0990 H   0  0  0  0  0  0  0  0  0  0  0  0
  -33.0793    8.3714  -18.1911 H   0  0  0  0  0  0  0  0  0  0  0  0
  -31.8782    9.2674  -17.1944 H   0  0  0  0  0  0  0  0  0  0  0  0
  -34.3779   10.8975  -15.0795 H   0  0  0  0  0  0  0  0  0  0  0  0
  -32.6201   10.7117  -15.4178 H   0  0  0  0  0  0  0  0  0  0  0  0
  -33.4707   12.8722  -16.3123 H   0  0  0  0  0  0  0  0  0  0  0  0
  -34.6917   11.9887  -17.2909 H   0  0  0  0  0  0  0  0  0  0  0  0
  -34.0767    7.4340  -16.2313 H   0  0  0  0  0  0  0  0  0  0  0  0
  -34.6805    8.5028  -14.9156 H   0  0  0  0  0  0  0  0  0  0  0  0
  -32.6609    8.3721  -13.8966 H   0  0  0  0  0  0  0  0  0  0  0  0
  -32.0741    6.2280  -14.5149 H   0  0  0  0  0  0  0  0  0  0  0  0
  -32.2618    6.5684  -16.2686 H   0  0  0  0  0  0  0  0  0  0  0  0
  -27.8465    6.9623  -15.7059 H   0  0  0  0  0  0  0  0  0  0  0  0
  -26.6891    5.7207  -17.5098 H   0  0  0  0  0  0  0  0  0  0  0  0
  -30.5192    4.6032  -19.1815 H   0  0  0  0  0  0  0  0  0  0  0  0
  -31.6646    5.8349  -17.3632 H   0  0  0  0  0  0  0  0  0  0  0  0
  -25.8217    4.4294  -19.9382 H   0  0  0  0  0  0  0  0  0  0  0  0
  -25.8741    3.2224  -17.5725 H   0  0  0  0  0  0  0  0  0  0  0  0
  -26.3779    1.9955  -18.7656 H   0  0  0  0  0  0  0  0  0  0  0  0
  -30.8193    9.3106  -15.0051 H   0  0  0  0  0  0  0  0  0  0  0  0
  -34.8244    9.5789  -17.0476 H   0  0  0  0  0  0  0  0  0  0  0  0
  1  2  1  0  0  0  0
  1 30  1  0  0  0  0
  1 31  1  0  0  0  0
  1 32  1  0  0  0  0
  2  3  1  0  0  0  0
  3  8  2  0  0  0  0
  3  4  1  0  0  0  0
  4  5  2  0  0  0  0
  4 33  1  0  0  0  0
  5  6  1  0  0  0  0
  5 34  1  0  0  0  0
  6  7  2  0  0  0  0
  6  9  1  0  0  0  0
  7  8  1  0  0  0  0
  7 35  1  0  0  0  0
  8 36  1  0  0  0  0
  9 13  1  0  0  0  0
  9 10  1  0  0  0  0
 10 11  1  0  0  0  0
 10 37  1  0  0  0  0
 10 38  1  0  0  0  0
 11 29  1  0  0  0  0
 11 39  1  0  0  0  0
 11 40  1  0  0  0  0
 12 13  1  0  0  0  0
 12 29  1  0  0  0  0
 12 41  1  0  0  0  0
 12 42  1  0  0  0  0
 13 43  1  0  0  0  0
 13 44  1  0  0  0  0
 14 15  1  0  0  0  0
 14 29  1  0  0  0  0
 14 45  1  0  0  0  0
 14 46  1  0  0  0  0
 15 16  1  0  0  0  0
 15 28  1  0  0  0  0
 15 47  1  0  0  0  0
 16 17  1  0  0  0  0
 16 48  1  0  0  0  0
 16 49  1  0  0  0  0
 17 18  1  0  0  0  0
 18 23  2  0  0  0  0
 18 19  1  0  0  0  0
 19 20  2  0  0  0  0
 19 50  1  0  0  0  0
 20 21  1  0  0  0  0
 20 51  1  0  0  0  0
 21 22  2  0  0  0  0
 21 24  1  0  0  0  0
 22 23  1  0  0  0  0
 22 52  1  0  0  0  0
 23 53  1  0  0  0  0
 24 25  2  0  0  0  0
 24 26  1  0  0  0  0
 26 27  1  0  0  0  0
 26 54  1  0  0  0  0
 27 55  1  0  0  0  0
 27 56  1  0  0  0  0
 28 57  1  0  0  0  0
 29 58  1  0  0  0  0
M  END
> <Name>
ZINC06414339

> <reference>
BDB5007

> <quality>
0.715

> <status>
decoy

> <atoms in reference ligand area>
11

> <score>
-28.4411

$$$$
ZINC20236119
      BALL 1.4.0 (Jan  4 2012, 23:22:29)

 40 40  0999  0  0  0  0  0  0999 V2000
  -32.4608   15.0157  -21.3876 C   0  0  0  0  0  0  0  0  0  0  0  0
  -32.6309   14.5686  -19.9343 C   0  0  0  0  0  0  0  0  0  0  0  0
  -33.3257   12.8935  -19.8945 S   0  0  0  0  0  0  0  0  0  0  0  0
  -34.1510   12.7330  -18.7489 O   0  0  0  0  0  0  0  0  0  0  0  0
  -33.7977   12.5286  -21.1842 O   0  0  0  0  0  0  0  0  0  0  0  0
  -32.0283   11.9009  -19.6230 N   0  0  0  0  0  0  0  0  0  0  0  0
  -31.6945   11.4885  -18.2573 C   0  0  0  0  0  0  0  0  0  0  0  0
  -31.8808    9.9760  -18.1215 C   0  0  0  0  0  0  0  0  0  0  0  0
  -30.6028    9.3572  -17.7451 N   0  3  0  0  0  0  0  0  0  0  0  0
  -31.2506   11.4561  -20.6978 C   0  0  0  0  0  0  0  0  0  0  0  0
  -31.6758   10.3783  -21.4632 C   0  0  0  0  0  0  0  0  0  0  0  0
  -30.9114    9.9410  -22.5285 C   0  0  0  0  0  0  0  0  0  0  0  0
  -29.7138   10.5699  -22.8278 C   0  0  0  0  0  0  0  0  0  0  0  0
  -29.2823   11.6467  -22.0596 C   0  0  0  0  0  0  0  0  0  0  0  0
  -30.0512   12.0886  -20.9955 C   0  0  0  0  0  0  0  0  0  0  0  0
  -28.1073   12.2649  -22.3534 O   0  0  0  0  0  0  0  0  0  0  0  0
  -27.7271   13.3638  -21.5227 C   0  0  0  0  0  0  0  0  0  0  0  0
  -28.9595   10.1345  -23.8736 O   0  0  0  0  0  0  0  0  0  0  0  0
  -29.6215    9.3523  -24.8697 C   0  0  0  0  0  0  0  0  0  0  0  0
  -33.3981   14.8441  -21.9373 H   0  0  0  0  0  0  0  0  0  0  0  0
  -31.6502   14.4394  -21.8572 H   0  0  0  0  0  0  0  0  0  0  0  0
  -32.2116   16.0868  -21.4157 H   0  0  0  0  0  0  0  0  0  0  0  0
  -31.6519   14.5708  -19.4329 H   0  0  0  0  0  0  0  0  0  0  0  0
  -33.3109   15.2593  -19.4142 H   0  0  0  0  0  0  0  0  0  0  0  0
  -30.6481   11.7495  -18.0407 H   0  0  0  0  0  0  0  0  0  0  0  0
  -32.3560   12.0040  -17.5455 H   0  0  0  0  0  0  0  0  0  0  0  0
  -32.2204    9.5597  -19.0813 H   0  0  0  0  0  0  0  0  0  0  0  0
  -32.6315    9.7672  -17.3450 H   0  0  0  0  0  0  0  0  0  0  0  0
  -30.1215    9.9527  -17.0562 H   0  0  0  0  0  0  0  0  0  0  0  0
  -30.0108    9.2536  -18.5816 H   0  0  0  0  0  0  0  0  0  0  0  0
  -30.7780    8.4297  -17.3327 H   0  0  0  0  0  0  0  0  0  0  0  0
  -32.6220    9.8720  -21.2215 H   0  0  0  0  0  0  0  0  0  0  0  0
  -31.2542    9.0929  -23.1393 H   0  0  0  0  0  0  0  0  0  0  0  0
  -29.7117   12.9398  -20.3870 H   0  0  0  0  0  0  0  0  0  0  0  0
  -26.8370   13.8109  -21.9895 H   0  0  0  0  0  0  0  0  0  0  0  0
  -27.4212   12.9314  -20.5586 H   0  0  0  0  0  0  0  0  0  0  0  0
  -28.5332   14.1019  -21.3981 H   0  0  0  0  0  0  0  0  0  0  0  0
  -28.8304    8.8396  -25.4365 H   0  0  0  0  0  0  0  0  0  0  0  0
  -30.1132   10.0661  -25.5469 H   0  0  0  0  0  0  0  0  0  0  0  0
  -30.3407    8.6386  -24.4417 H   0  0  0  0  0  0  0  0  0  0  0  0
  1  2  1  0  0  0  0
  1 20  1  0  0  0  0
  1 21  1  0  0  0  0
  1 22  1  0  0  0  0
  2  3  1  0  0  0  0
  2 23  1  0  0  0  0
  2 24  1  0  0  0  0
  3  4  2  0  0  0  0
  3  5  2  0  0  0  0
  3  6  1  0  0  0  0
  6  7  1  0  0  0  0
  6 10  1  0  0  0  0
  7  8  1  0  0  0  0
  7 25  1  0  0  0  0
  7 26  1  0  0  0  0
  8  9  1  0  0  0  0
  8 27  1  0  0  0  0
  8 28  1  0  0  0  0
  9 29  1  0  0  0  0
  9 30  1  0  0  0  0
  9 31  1  0  0  0  0
 10 15  2  0  0  0  0
 10 11  1  0  0  0  0
 11 12  2  0  0  0  0
 11 32  1  0  0  0  0
 12 13  1  0  0  0  0
 12 33  1  0  0  0  0
 13 14  2  0  0  0  0
 13 18  1  0  0  0  0
 14 15  1  0  0  0  0
 14 16  1  0  0  0  0
 15 34  1  0  0  0  0
 16 17  1  0  0  0  0
 17 35  1  0  0  0  0
 17 36  1  0  0  0  0
 17 37  1  0  0  0  0
 18 19  1  0  0  0  0
 19 38  1  0  0  0  0
 19 39  1  0  0  0  0
 19 40  1  0  0  0  0
M  END
> <Name>
ZINC20236119

> <reference>
BDB5222

> <quality>
0.747

> <status>
decoy

> <atoms in reference ligand area>
22

> <score>
-28.1624

$$$$
ZINC21991926
      BALL 1.4.0 (Jan  4 2012, 23:22:29)

 42 42  0999  0  0  0  0  0  0999 V2000
  -29.4345    2.9641  -23.1332 C   0  0  0  0  0  0  0  0  0  0  0  0
  -30.4448    3.8786  -23.7766 C   0  0  0  0  0  0  0  0  0  0  0  0
  -30.0355    4.8141  -24.7085 C   0  0  0  0  0  0  0  0  0  0  0  0
  -30.9623    5.6529  -25.2986 C   0  0  0  0  0  0  0  0  0  0  0  0
  -32.2985    5.5558  -24.9576 C   0  0  0  0  0  0  0  0  0  0  0  0
  -32.7070    4.6236  -24.0222 C   0  0  0  0  0  0  0  0  0  0  0  0
  -31.7809    3.7818  -23.4352 C   0  0  0  0  0  0  0  0  0  0  0  0
  -33.4798    6.6250  -25.7099 S   0  0  0  0  0  0  0  0  0  0  0  0
  -34.7609    6.0831  -25.4195 O   0  0  0  0  0  0  0  0  0  0  0  0
  -33.0326    6.8529  -27.0393 O   0  0  0  0  0  0  0  0  0  0  0  0
  -33.3925    8.0806  -24.9251 N   0  0  0  0  0  0  0  0  0  0  0  0
  -32.1891    8.7383  -24.8282 C   0  0  0  0  0  0  0  0  0  0  0  0
  -31.1169    8.2162  -25.3541 N   0  0  0  0  0  0  0  0  0  0  0  0
  -32.1167    9.9468  -24.1766 N   0  0  0  0  0  0  0  0  0  0  0  0
  -31.0938   10.1659  -23.1511 C   0  0  0  0  0  0  0  0  0  0  0  0
  -31.3814   11.4763  -22.4155 C   0  0  0  0  0  0  0  0  0  0  0  0
  -32.6341   11.3126  -21.5526 C   0  0  0  0  0  0  0  0  0  0  0  0
  -33.0657   12.6786  -21.0156 C   0  0  0  0  0  0  0  0  0  0  0  0
  -32.0067   13.2097  -20.0842 C   0  0  0  0  0  0  0  0  0  0  0  0
  -30.8377   13.0638  -20.3528 O   0  0  0  0  0  0  0  0  0  0  0  0
  -32.3620   13.8450  -18.9564 O   0  5  0  0  0  0  0  0  0  0  0  0
  -33.2446   13.6112  -22.1364 N   0  3  0  0  0  0  0  0  0  0  0  0
  -29.0297    2.3599  -23.9584 H   0  0  0  0  0  0  0  0  0  0  0  0
  -30.0249    2.2896  -22.4956 H   0  0  0  0  0  0  0  0  0  0  0  0
  -28.6488    3.4925  -22.5732 H   0  0  0  0  0  0  0  0  0  0  0  0
  -28.9724    4.8911  -24.9803 H   0  0  0  0  0  0  0  0  0  0  0  0
  -30.6366    6.3978  -26.0396 H   0  0  0  0  0  0  0  0  0  0  0  0
  -33.7691    4.5515  -23.7450 H   0  0  0  0  0  0  0  0  0  0  0  0
  -32.1071    3.0349  -22.6965 H   0  0  0  0  0  0  0  0  0  0  0  0
  -30.5235    7.5863  -24.7954 H   0  0  0  0  0  0  0  0  0  0  0  0
  -30.8630    8.4334  -26.3284 H   0  0  0  0  0  0  0  0  0  0  0  0
  -32.7817   10.6981  -24.4096 H   0  0  0  0  0  0  0  0  0  0  0  0
  -31.1093    9.3323  -22.4335 H   0  0  0  0  0  0  0  0  0  0  0  0
  -30.1032   10.2227  -23.6259 H   0  0  0  0  0  0  0  0  0  0  0  0
  -30.5256   11.7322  -21.7737 H   0  0  0  0  0  0  0  0  0  0  0  0
  -31.5441   12.2810  -23.1477 H   0  0  0  0  0  0  0  0  0  0  0  0
  -32.4148   10.6407  -20.7097 H   0  0  0  0  0  0  0  0  0  0  0  0
  -33.4451   10.8853  -22.1607 H   0  0  0  0  0  0  0  0  0  0  0  0
  -34.0152   12.5748  -20.4699 H   0  0  0  0  0  0  0  0  0  0  0  0
  -33.6928   14.4746  -21.7978 H   0  0  0  0  0  0  0  0  0  0  0  0
  -33.8395   13.1754  -22.8555 H   0  0  0  0  0  0  0  0  0  0  0  0
  -32.3265   13.8392  -22.5440 H   0  0  0  0  0  0  0  0  0  0  0  0
  1  2  1  0  0  0  0
  1 23  1  0  0  0  0
  1 24  1  0  0  0  0
  1 25  1  0  0  0  0
  2  7  2  0  0  0  0
  2  3  1  0  0  0  0
  3  4  2  0  0  0  0
  3 26  1  0  0  0  0
  4  5  1  0  0  0  0
  4 27  1  0  0  0  0
  5  6  2  0  0  0  0
  5  8  1  0  0  0  0
  6  7  1  0  0  0  0
  6 28  1  0  0  0  0
  7 29  1  0  0  0  0
  8  9  2  0  0  0  0
  8 10  2  0  0  0  0
  8 11  1  0  0  0  0
 11 12  2  0  0  0  0
 12 13  1  0  0  0  0
 12 14  1  0  0  0  0
 13 30  1  0  0  0  0
 13 31  1  0  0  0  0
 14 15  1  0  0  0  0
 14 32  1  0  0  0  0
 15 16  1  0  0  0  0
 15 33  1  0  0  0  0
 15 34  1  0  0  0  0
 16 17  1  0  0  0  0
 16 35  1  0  0  0  0
 16 36  1  0  0  0  0
 17 18  1  0  0  0  0
 17 37  1  0  0  0  0
 17 38  1  0  0  0  0
 18 19  1  0  0  0  0
 18 22  1  0  0  0  0
 18 39  1  0  0  0  0
 19 20  2  0  0  0  0
 19 21  1  0  0  0  0
 22 40  1  0  0  0  0
 22 41  1  0  0  0  0
 22 42  1  0  0  0  0
M  END
> <Name>
ZINC21991926

> <reference>
BDB5024

> <quality>
0.756

> <status>
decoy

> <atoms in reference ligand area>
18

> <score>
-28.0132

$$$$
ZINC26764321
      BALL 1.4.0 (Jan  4 2012, 23:22:29)

 41 41  0999  0  0  0  0  0  0999 V2000
  -28.7153   12.0774  -22.3913 C   0  0  0  0  0  0  0  0  0  0  0  0
  -29.6472   11.0070  -21.8844 C   0  0  0  0  0  0  0  0  0  0  0  0
  -30.1932   11.1071  -20.6212 C   0  0  0  0  0  0  0  0  0  0  0  0
  -31.0529   10.1281  -20.1564 C   0  0  0  0  0  0  0  0  0  0  0  0
  -31.3623    9.0370  -20.9494 C   0  0  0  0  0  0  0  0  0  0  0  0
  -30.8233    8.9249  -22.2141 C   0  0  0  0  0  0  0  0  0  0  0  0
  -29.9596    9.9121  -22.6914 C   0  0  0  0  0  0  0  0  0  0  0  0
  -29.3779    9.7982  -24.0459 C   0  0  0  0  0  0  0  0  0  0  0  0
  -29.0668    8.7079  -24.4839 O   0  0  0  0  0  0  0  0  0  0  0  0
  -29.1925   10.9032  -24.7948 N   0  0  0  0  0  0  0  0  0  0  0  0
  -32.4528    7.7920  -20.3449 S   0  0  0  0  0  0  0  0  0  0  0  0
  -33.1231    8.3491  -19.2226 O   0  0  0  0  0  0  0  0  0  0  0  0
  -31.6943    6.5933  -20.2614 O   0  0  0  0  0  0  0  0  0  0  0  0
  -33.6046    7.5431  -21.5085 N   0  0  0  0  0  0  0  0  0  0  0  0
  -33.5070    8.2357  -22.7957 C   0  0  0  0  0  0  0  0  0  0  0  0
  -34.4364    7.5854  -23.7878 C   0  0  0  0  0  0  0  0  0  0  0  0
  -34.9753    6.5337  -23.5147 O   0  0  0  0  0  0  0  0  0  0  0  0
  -34.6686    8.1722  -24.9787 N   0  0  0  0  0  0  0  0  0  0  0  0
  -35.5721    7.5399  -25.9431 C   0  0  0  0  0  0  0  0  0  0  0  0
  -34.9978    7.6888  -27.3535 C   0  0  0  0  0  0  0  0  0  0  0  0
  -36.0588    7.6267  -28.3088 O   0  0  0  0  0  0  0  0  0  0  0  0
  -35.6302    7.3039  -29.6332 C   0  0  0  0  0  0  0  0  0  0  0  0
  -28.5267   11.8159  -23.4430 H   0  0  0  0  0  0  0  0  0  0  0  0
  -27.7745   11.9183  -21.8440 H   0  0  0  0  0  0  0  0  0  0  0  0
  -29.1038   13.0998  -22.2741 H   0  0  0  0  0  0  0  0  0  0  0  0
  -29.9443   11.9673  -19.9823 H   0  0  0  0  0  0  0  0  0  0  0  0
  -31.4926   10.2174  -19.1521 H   0  0  0  0  0  0  0  0  0  0  0  0
  -31.0736    8.0594  -22.8451 H   0  0  0  0  0  0  0  0  0  0  0  0
  -29.8202   11.7122  -24.6833 H   0  0  0  0  0  0  0  0  0  0  0  0
  -28.4232   10.9388  -25.4788 H   0  0  0  0  0  0  0  0  0  0  0  0
  -34.3896    6.9013  -21.3272 H   0  0  0  0  0  0  0  0  0  0  0  0
  -32.4738    8.1756  -23.1684 H   0  0  0  0  0  0  0  0  0  0  0  0
  -33.7895    9.2910  -22.6668 H   0  0  0  0  0  0  0  0  0  0  0  0
  -34.2108    9.0652  -25.2107 H   0  0  0  0  0  0  0  0  0  0  0  0
  -36.5581    8.0254  -25.8964 H   0  0  0  0  0  0  0  0  0  0  0  0
  -35.6773    6.4719  -25.7015 H   0  0  0  0  0  0  0  0  0  0  0  0
  -34.4837    8.6575  -27.4398 H   0  0  0  0  0  0  0  0  0  0  0  0
  -34.2829    6.8756  -27.5472 H   0  0  0  0  0  0  0  0  0  0  0  0
  -35.4540    6.2187  -29.6694 H   0  0  0  0  0  0  0  0  0  0  0  0
  -34.6732    7.8177  -29.8065 H   0  0  0  0  0  0  0  0  0  0  0  0
  -36.3762    7.6039  -30.3838 H   0  0  0  0  0  0  0  0  0  0  0  0
  1  2  1  0  0  0  0
  1 23  1  0  0  0  0
  1 24  1  0  0  0  0
  1 25  1  0  0  0  0
  2  7  2  0  0  0  0
  2  3  1  0  0  0  0
  3  4  2  0  0  0  0
  3 26  1  0  0  0  0
  4  5  1  0  0  0  0
  4 27  1  0  0  0  0
  5  6  2  0  0  0  0
  5 11  1  0  0  0  0
  6  7  1  0  0  0  0
  6 28  1  0  0  0  0
  7  8  1  0  0  0  0
  8  9  2  0  0  0  0
  8 10  1  0  0  0  0
 10 29  1  0  0  0  0
 10 30  1  0  0  0  0
 11 12  2  0  0  0  0
 11 13  2  0  0  0  0
 11 14  1  0  0  0  0
 14 15  1  0  0  0  0
 14 31  1  0  0  0  0
 15 16  1  0  0  0  0
 15 32  1  0  0  0  0
 15 33  1  0  0  0  0
 16 17  2  0  0  0  0
 16 18  1  0  0  0  0
 18 19  1  0  0  0  0
 18 34  1  0  0  0  0
 19 20  1  0  0  0  0
 19 35  1  0  0  0  0
 19 36  1  0  0  0  0
 20 21  1  0  0  0  0
 20 37  1  0  0  0  0
 20 38  1  0  0  0  0
 21 22  1  0  0  0  0
 22 39  1  0  0  0  0
 22 40  1  0  0  0  0
 22 41  1  0  0  0  0
M  END
> <Name>
ZINC26764321

> <reference>
BDB5024

> <quality>
0.665

> <status>
decoy

> <atoms in reference ligand area>
11

> <score>
-27.7617

$$$$
ZINC00399536
      BALL 1.4.0 (Jan  4 2012, 23:22:29)

 40 41  0999  0  0  0  0  0  0999 V2000
  -27.1139    6.1696  -15.0162 C   0  0  0  0  0  0  0  0  0  0  0  0
  -27.0885    6.9736  -16.1403 C   0  0  0  0  0  0  0  0  0  0  0  0
  -28.2699    7.3222  -16.7676 C   0  0  0  0  0  0  0  0  0  0  0  0
  -29.4769    6.8674  -16.2704 C   0  0  0  0  0  0  0  0  0  0  0  0
  -29.5027    6.0681  -15.1428 C   0  0  0  0  0  0  0  0  0  0  0  0
  -28.3209    5.7150  -14.5187 C   0  0  0  0  0  0  0  0  0  0  0  0
  -30.7649    7.2479  -16.9539 C   0  0  0  0  0  0  0  0  0  0  0  0
  -31.0243    8.6612  -16.7453 O   0  0  0  0  0  0  0  0  0  0  0  0
  -31.7410    8.9966  -15.6570 C   0  0  0  0  0  0  0  0  0  0  0  0
  -31.6854    8.3087  -14.6578 O   0  0  0  0  0  0  0  0  0  0  0  0
  -32.5150   10.0973  -15.6740 O   0  0  0  0  0  0  0  0  0  0  0  0
  -32.1709   11.0803  -16.5477 C   0  0  0  0  0  0  0  0  0  0  0  0
  -31.9220   12.3644  -16.0857 C   0  0  0  0  0  0  0  0  0  0  0  0
  -31.5684   13.3607  -16.9750 C   0  0  0  0  0  0  0  0  0  0  0  0
  -31.4723   13.0811  -18.3257 C   0  0  0  0  0  0  0  0  0  0  0  0
  -31.7246   11.8031  -18.7891 C   0  0  0  0  0  0  0  0  0  0  0  0
  -32.0739   10.8023  -17.9033 C   0  0  0  0  0  0  0  0  0  0  0  0
  -31.0924   14.1712  -19.2944 C   0  0  0  0  0  0  0  0  0  0  0  0
  -32.3565   14.8761  -19.7904 C   0  0  0  0  0  0  0  0  0  0  0  0
  -32.0118   16.2760  -20.2289 C   0  0  0  0  0  0  0  0  0  0  0  0
  -32.8279   16.9417  -20.8212 O   0  0  0  0  0  0  0  0  0  0  0  0
  -30.7983   16.7835  -19.9615 O   0  5  0  0  0  0  0  0  0  0  0  0
  -32.9223   14.1093  -20.9143 N   0  3  0  0  0  0  0  0  0  0  0  0
  -26.1737    5.8915  -14.5175 H   0  0  0  0  0  0  0  0  0  0  0  0
  -26.1281    7.3359  -16.5357 H   0  0  0  0  0  0  0  0  0  0  0  0
  -28.2496    7.9616  -17.6625 H   0  0  0  0  0  0  0  0  0  0  0  0
  -30.4637    5.7130  -14.7423 H   0  0  0  0  0  0  0  0  0  0  0  0
  -28.3410    5.0724  -13.6261 H   0  0  0  0  0  0  0  0  0  0  0  0
  -30.6815    7.0462  -18.0321 H   0  0  0  0  0  0  0  0  0  0  0  0
  -31.5926    6.6580  -16.5335 H   0  0  0  0  0  0  0  0  0  0  0  0
  -32.0061   12.5892  -15.0123 H   0  0  0  0  0  0  0  0  0  0  0  0
  -31.3631   14.3773  -16.6083 H   0  0  0  0  0  0  0  0  0  0  0  0
  -31.6472   11.5832  -19.8641 H   0  0  0  0  0  0  0  0  0  0  0  0
  -32.2748    9.7858  -18.2725 H   0  0  0  0  0  0  0  0  0  0  0  0
  -30.5581   13.7329  -20.1502 H   0  0  0  0  0  0  0  0  0  0  0  0
  -30.4410   14.8998  -18.7896 H   0  0  0  0  0  0  0  0  0  0  0  0
  -33.1001   14.9339  -18.9818 H   0  0  0  0  0  0  0  0  0  0  0  0
  -32.2335   14.0509  -21.6778 H   0  0  0  0  0  0  0  0  0  0  0  0
  -33.7773   14.5714  -21.2557 H   0  0  0  0  0  0  0  0  0  0  0  0
  -33.1552   13.1585  -20.5940 H   0  0  0  0  0  0  0  0  0  0  0  0
  1  6  2  0  0  0  0
  1  2  1  0  0  0  0
  1 24  1  0  0  0  0
  2  3  2  0  0  0  0
  2 25  1  0  0  0  0
  3  4  1  0  0  0  0
  3 26  1  0  0  0  0
  4  5  2  0  0  0  0
  4  7  1  0  0  0  0
  5  6  1  0  0  0  0
  5 27  1  0  0  0  0
  6 28  1  0  0  0  0
  7  8  1  0  0  0  0
  7 29  1  0  0  0  0
  7 30  1  0  0  0  0
  8  9  1  0  0  0  0
  9 10  2  0  0  0  0
  9 11  1  0  0  0  0
 11 12  1  0  0  0  0
 12 17  2  0  0  0  0
 12 13  1  0  0  0  0
 13 14  2  0  0  0  0
 13 31  1  0  0  0  0
 14 15  1  0  0  0  0
 14 32  1  0  0  0  0
 15 16  2  0  0  0  0
 15 18  1  0  0  0  0
 16 17  1  0  0  0  0
 16 33  1  0  0  0  0
 17 34  1  0  0  0  0
 18 19  1  0  0  0  0
 18 35  1  0  0  0  0
 18 36  1  0  0  0  0
 19 20  1  0  0  0  0
 19 23  1  0  0  0  0
 19 37  1  0  0  0  0
 20 21  2  0  0  0  0
 20 22  1  0  0  0  0
 23 38  1  0  0  0  0
 23 39  1  0  0  0  0
 23 40  1  0  0  0  0
M  END
> <Name>
ZINC00399536

> <reference>
BDB5023

> <quality>
0.670

> <status>
decoy

> <atoms in reference ligand area>
10

> <score>
-27.7543

$$$$
ZINC20395712
      BALL 1.4.0 (Jan  4 2012, 23:22:29)

 26 26  0999  0  0  0  0  0  0999 V2000
  -35.2632    8.4518  -25.8636 C   0  0  0  0  0  0  0  0  0  0  0  0
  -35.3435    7.5933  -24.5998 C   0  0  0  0  0  0  0  0  0  0  0  0
  -33.8861    7.9031  -23.5649 S   0  0  0  0  0  0  0  0  0  0  0  0
  -32.9359    9.1319  -24.5017 C   0  0  0  0  0  0  0  0  0  0  0  0
  -31.9794    9.8392  -23.5766 C   0  0  0  0  0  0  0  0  0  0  0  0
  -32.0666    9.9039  -22.2782 N   0  0  0  0  0  0  0  0  0  0  0  0
  -31.0855   10.5850  -21.8034 N   0  0  0  0  0  0  0  0  0  0  0  0
  -30.3126   10.9953  -22.7820 C   0  0  0  0  0  0  0  0  0  0  0  0
  -30.8592   10.5320  -23.9444 N   0  0  0  0  0  0  0  0  0  0  0  0
  -30.3853   10.7213  -25.2115 N   0  0  0  0  0  0  0  0  0  0  0  0
  -28.8437   11.9557  -22.6248 S   0  0  0  0  0  0  0  0  0  0  0  0
  -29.3618   13.1132  -21.3334 C   0  0  0  0  0  0  0  0  0  0  0  0
  -28.2312   14.0605  -21.0249 C   0  0  0  0  0  0  0  0  0  0  0  0
  -28.1171   14.5239  -19.9148 O   0  0  0  0  0  0  0  0  0  0  0  0
  -27.3508   14.3895  -21.9832 O   0  5  0  0  0  0  0  0  0  0  0  0
  -34.8781    9.4497  -25.6066 H   0  0  0  0  0  0  0  0  0  0  0  0
  -36.2655    8.5490  -26.3065 H   0  0  0  0  0  0  0  0  0  0  0  0
  -34.5877    7.9752  -26.5893 H   0  0  0  0  0  0  0  0  0  0  0  0
  -36.2531    7.8516  -24.0379 H   0  0  0  0  0  0  0  0  0  0  0  0
  -35.3746    6.5297  -24.8790 H   0  0  0  0  0  0  0  0  0  0  0  0
  -33.6231    9.8657  -24.9484 H   0  0  0  0  0  0  0  0  0  0  0  0
  -32.3694    8.6278  -25.2986 H   0  0  0  0  0  0  0  0  0  0  0  0
  -29.7368   11.5143  -25.3182 H   0  0  0  0  0  0  0  0  0  0  0  0
  -30.6445   10.1276  -26.0122 H   0  0  0  0  0  0  0  0  0  0  0  0
  -29.6294   12.5545  -20.4244 H   0  0  0  0  0  0  0  0  0  0  0  0
  -30.2341   13.6855  -21.6822 H   0  0  0  0  0  0  0  0  0  0  0  0
  1  2  1  0  0  0  0
  1 16  1  0  0  0  0
  1 17  1  0  0  0  0
  1 18  1  0  0  0  0
  2  3  1  0  0  0  0
  2 19  1  0  0  0  0
  2 20  1  0  0  0  0
  3  4  1  0  0  0  0
  4  5  1  0  0  0  0
  4 21  1  0  0  0  0
  4 22  1  0  0  0  0
  5  9  1  0  0  0  0
  5  6  2  0  0  0  0
  6  7  1  0  0  0  0
  7  8  2  0  0  0  0
  8  9  1  0  0  0  0
  8 11  1  0  0  0  0
  9 10  1  0  0  0  0
 10 23  1  0  0  0  0
 10 24  1  0  0  0  0
 11 12  1  0  0  0  0
 12 13  1  0  0  0  0
 12 25  1  0  0  0  0
 12 26  1  0  0  0  0
 13 14  2  0  0  0  0
 13 15  1  0  0  0  0
M  END
> <Name>
ZINC20395712

> <reference>
BDB5015

> <quality>
0.712

> <status>
decoy

> <atoms in reference ligand area>
10

> <score>
-27.7296

$$$$
ZINC31259784
      BALL 1.4.0 (Jan  4 2012, 23:22:29)

 34 36  0999  0  0  0  0  0  0999 V2000
  -33.4865    8.6724  -24.1240 C   0  0  0  0  0  0  0  0  0  0  0  0
  -34.7437    8.3527  -24.2682 C   0  0  0  0  0  0  0  0  0  0  0  0
  -35.4535    8.3214  -22.9345 C   0  0  0  0  0  0  0  0  0  0  0  0
  -34.5162    9.0876  -21.9725 C   0  0  0  0  0  0  0  0  0  0  0  0
  -33.1481    8.9076  -22.6704 C   0  0  0  0  0  0  0  0  0  0  0  0
  -32.3354   10.1226  -22.5242 N   0  3  0  0  0  0  0  0  0  0  0  0
  -32.1914   10.4925  -21.1098 C   0  0  0  0  0  0  0  0  0  0  0  0
  -30.9997   11.4005  -20.9469 C   0  0  0  0  0  0  0  0  0  0  0  0
  -31.0231   12.7416  -20.7441 C   0  0  0  0  0  0  0  0  0  0  0  0
  -29.6066   13.1725  -20.6469 C   0  0  0  0  0  0  0  0  0  0  0  0
  -29.3663   14.4424  -20.4460 N   0  0  0  0  0  0  0  0  0  0  0  0
  -30.3694   15.3436  -20.3244 C   0  0  0  0  0  0  0  0  0  0  0  0
  -31.6451   15.0473  -20.3930 N   0  0  0  0  0  0  0  0  0  0  0  0
  -32.0627   13.7763  -20.5973 C   0  0  0  0  0  0  0  0  0  0  0  0
  -33.2466   13.4999  -20.6616 O   0  0  0  0  0  0  0  0  0  0  0  0
  -30.0288   16.6538  -20.1159 N   0  0  0  0  0  0  0  0  0  0  0  0
  -28.8282   12.0547  -20.8069 N   0  0  0  0  0  0  0  0  0  0  0  0
  -29.5746   11.0053  -20.9832 C   0  0  0  0  0  0  0  0  0  0  0  0
  -34.8760   10.4685  -21.8972 O   0  0  0  0  0  0  0  0  0  0  0  0
  -35.6253    6.9730  -22.4936 O   0  0  0  0  0  0  0  0  0  0  0  0
  -32.7676    8.7591  -24.9521 H   0  0  0  0  0  0  0  0  0  0  0  0
  -35.2237    8.1347  -25.2337 H   0  0  0  0  0  0  0  0  0  0  0  0
  -36.4566    8.7700  -22.9851 H   0  0  0  0  0  0  0  0  0  0  0  0
  -34.5436    8.7268  -20.9337 H   0  0  0  0  0  0  0  0  0  0  0  0
  -32.5650    8.0808  -22.2387 H   0  0  0  0  0  0  0  0  0  0  0  0
  -31.4023    9.9579  -22.9283 H   0  0  0  0  0  0  0  0  0  0  0  0
  -32.7856   10.8968  -23.0328 H   0  0  0  0  0  0  0  0  0  0  0  0
  -33.0988   11.0154  -20.7732 H   0  0  0  0  0  0  0  0  0  0  0  0
  -32.0455    9.5852  -20.5053 H   0  0  0  0  0  0  0  0  0  0  0  0
  -30.6981   17.3291  -19.7198 H   0  0  0  0  0  0  0  0  0  0  0  0
  -29.0792   16.9668  -20.3629 H   0  0  0  0  0  0  0  0  0  0  0  0
  -29.2036    9.9810  -21.1358 H   0  0  0  0  0  0  0  0  0  0  0  0
  -35.8075   10.5736  -22.2154 H   0  0  0  0  0  0  0  0  0  0  0  0
  -36.5917    6.7891  -22.3820 H   0  0  0  0  0  0  0  0  0  0  0  0
  1  5  1  0  0  0  0
  1  2  2  0  0  0  0
  1 21  1  0  0  0  0
  2  3  1  0  0  0  0
  2 22  1  0  0  0  0
  3  4  1  0  0  0  0
  3 20  1  0  0  0  0
  3 23  1  0  0  0  0
  4  5  1  0  0  0  0
  4 19  1  0  0  0  0
  4 24  1  0  0  0  0
  5  6  1  0  0  0  0
  5 25  1  0  0  0  0
  6  7  1  0  0  0  0
  6 26  1  0  0  0  0
  6 27  1  0  0  0  0
  7  8  1  0  0  0  0
  7 28  1  0  0  0  0
  7 29  1  0  0  0  0
  8 18  1  0  0  0  0
  8  9  2  0  0  0  0
  9 14  1  0  0  0  0
  9 10  1  0  0  0  0
 10 11  2  0  0  0  0
 10 17  1  0  0  0  0
 11 12  1  0  0  0  0
 12 13  2  0  0  0  0
 12 16  1  0  0  0  0
 13 14  1  0  0  0  0
 14 15  2  0  0  0  0
 16 30  1  0  0  0  0
 16 31  1  0  0  0  0
 17 18  2  0  0  0  0
 18 32  1  0  0  0  0
 19 33  1  0  0  0  0
 20 34  1  0  0  0  0
M  END
> <Name>
ZINC31259784

> <reference>
BDB5008

> <quality>
0.737

> <status>
decoy

> <atoms in reference ligand area>
12

> <score>
-27.6941

$$$$
ZINC31219731
      BALL 1.4.0 (Jan  4 2012, 23:22:29)

 46 47  0999  0  0  0  0  0  0999 V2000
  -26.1656    6.3505  -25.6771 C   0  0  0  0  0  0  0  0  0  0  0  0
  -27.6044    6.2494  -26.1874 C   0  0  0  0  0  0  0  0  0  0  0  0
  -28.7391    6.8966  -24.9288 S   0  0  0  0  0  0  0  0  0  0  0  0
  -28.2897    6.5323  -23.6308 O   0  0  0  0  0  0  0  0  0  0  0  0
  -29.0822    8.2434  -25.2251 O   0  0  0  0  0  0  0  0  0  0  0  0
  -30.1435    6.0458  -25.1439 N   0  0  0  0  0  0  0  0  0  0  0  0
  -31.3869    6.5169  -24.5288 C   0  0  0  0  0  0  0  0  0  0  0  0
  -31.9169    7.7219  -25.3086 C   0  0  0  0  0  0  0  0  0  0  0  0
  -31.9957    8.8830  -24.4187 N   0  0  0  0  0  0  0  0  0  0  0  0
  -32.0234    8.7074  -23.0827 C   0  0  0  0  0  0  0  0  0  0  0  0
  -31.9830    7.5842  -22.6155 O   0  0  0  0  0  0  0  0  0  0  0  0
  -32.1021    9.8667  -22.1943 C   0  0  0  0  0  0  0  0  0  0  0  0
  -32.5013    9.8396  -20.9631 N   0  0  0  0  0  0  0  0  0  0  0  0
  -32.4789   11.0821  -20.3328 N   0  0  0  0  0  0  0  0  0  0  0  0
  -32.0011   12.0933  -21.2888 C   0  0  0  0  0  0  0  0  0  0  0  0
  -31.7359   11.2839  -22.5733 C   0  0  0  0  0  0  0  0  0  0  0  0
  -30.7301   12.7350  -20.7950 C   0  0  0  0  0  0  0  0  0  0  0  0
  -30.5714   12.9321  -19.6088 O   0  0  0  0  0  0  0  0  0  0  0  0
  -29.7697   13.0898  -21.6714 N   0  0  0  0  0  0  0  0  0  0  0  0
  -32.8547   11.3284  -19.0103 C   0  0  0  0  0  0  0  0  0  0  0  0
  -33.3867   12.5623  -18.6563 C   0  0  0  0  0  0  0  0  0  0  0  0
  -33.7619   12.8018  -17.3493 C   0  0  0  0  0  0  0  0  0  0  0  0
  -33.5986   11.8170  -16.3892 C   0  0  0  0  0  0  0  0  0  0  0  0
  -33.0636   10.5882  -16.7385 C   0  0  0  0  0  0  0  0  0  0  0  0
  -32.6918   10.3421  -18.0452 C   0  0  0  0  0  0  0  0  0  0  0  0
  -33.9620   12.0553  -15.1100 F   0  0  0  0  0  0  0  0  0  0  0  0
  -25.6267    7.1223  -26.2462 H   0  0  0  0  0  0  0  0  0  0  0  0
  -25.6608    5.3816  -25.8056 H   0  0  0  0  0  0  0  0  0  0  0  0
  -26.1721    6.6204  -24.6107 H   0  0  0  0  0  0  0  0  0  0  0  0
  -27.7082    6.8377  -27.1111 H   0  0  0  0  0  0  0  0  0  0  0  0
  -27.8486    5.1969  -26.3936 H   0  0  0  0  0  0  0  0  0  0  0  0
  -30.1427    5.1854  -25.7102 H   0  0  0  0  0  0  0  0  0  0  0  0
  -32.1345    5.7103  -24.5487 H   0  0  0  0  0  0  0  0  0  0  0  0
  -31.1932    6.8117  -23.4870 H   0  0  0  0  0  0  0  0  0  0  0  0
  -31.2371    7.9461  -26.1438 H   0  0  0  0  0  0  0  0  0  0  0  0
  -32.9185    7.4937  -25.7021 H   0  0  0  0  0  0  0  0  0  0  0  0
  -32.0299    9.8335  -24.8141 H   0  0  0  0  0  0  0  0  0  0  0  0
  -32.7201   12.9122  -21.4386 H   0  0  0  0  0  0  0  0  0  0  0  0
  -32.3862   11.6407  -23.3857 H   0  0  0  0  0  0  0  0  0  0  0  0
  -30.6712   11.3417  -22.8435 H   0  0  0  0  0  0  0  0  0  0  0  0
  -30.0276   13.5110  -22.5754 H   0  0  0  0  0  0  0  0  0  0  0  0
  -28.7780   12.9397  -21.4374 H   0  0  0  0  0  0  0  0  0  0  0  0
  -33.5089   13.3477  -19.4168 H   0  0  0  0  0  0  0  0  0  0  0  0
  -34.1909   13.7755  -17.0702 H   0  0  0  0  0  0  0  0  0  0  0  0
  -32.9349    9.8076  -15.9742 H   0  0  0  0  0  0  0  0  0  0  0  0
  -32.2670    9.3660  -18.3221 H   0  0  0  0  0  0  0  0  0  0  0  0
  1  2  1  0  0  0  0
  1 27  1  0  0  0  0
  1 28  1  0  0  0  0
  1 29  1  0  0  0  0
  2  3  1  0  0  0  0
  2 30  1  0  0  0  0
  2 31  1  0  0  0  0
  3  4  2  0  0  0  0
  3  5  2  0  0  0  0
  3  6  1  0  0  0  0
  6  7  1  0  0  0  0
  6 32  1  0  0  0  0
  7  8  1  0  0  0  0
  7 33  1  0  0  0  0
  7 34  1  0  0  0  0
  8  9  1  0  0  0  0
  8 35  1  0  0  0  0
  8 36  1  0  0  0  0
  9 10  1  0  0  0  0
  9 37  1  0  0  0  0
 10 11  2  0  0  0  0
 10 12  1  0  0  0  0
 12 16  1  0  0  0  0
 12 13  2  0  0  0  0
 13 14  1  0  0  0  0
 14 15  1  0  0  0  0
 14 20  1  0  0  0  0
 15 16  1  0  0  0  0
 15 17  1  0  0  0  0
 15 38  1  0  0  0  0
 16 39  1  0  0  0  0
 16 40  1  0  0  0  0
 17 18  2  0  0  0  0
 17 19  1  0  0  0  0
 19 41  1  0  0  0  0
 19 42  1  0  0  0  0
 20 25  2  0  0  0  0
 20 21  1  0  0  0  0
 21 22  2  0  0  0  0
 21 43  1  0  0  0  0
 22 23  1  0  0  0  0
 22 44  1  0  0  0  0
 23 24  2  0  0  0  0
 23 26  1  0  0  0  0
 24 25  1  0  0  0  0
 24 45  1  0  0  0  0
 25 46  1  0  0  0  0
M  END
> <Name>
ZINC31219731

> <reference>
BDB4945

> <quality>
0.719

> <status>
decoy

> <atoms in reference ligand area>
15

> <score>
-27.6082

$$$$
ZINC23280832
      BALL 1.4.0 (Jan  4 2012, 23:22:29)

 48 49  0999  0  0  0  0  0  0999 V2000
  -27.2428    6.8412  -26.6814 C   0  0  0  0  0  0  0  0  0  0  0  0
  -28.6998    6.6841  -26.2420 C   0  0  0  0  0  0  0  0  0  0  0  0
  -28.7720    6.6894  -24.7788 N   0  0  0  0  0  0  0  0  0  0  0  0
  -27.7256    7.3519  -23.9962 C   0  0  0  0  0  0  0  0  0  0  0  0
  -26.4627    6.4882  -23.9992 C   0  0  0  0  0  0  0  0  0  0  0  0
  -30.0365    5.9467  -24.0095 S   0  0  0  0  0  0  0  0  0  0  0  0
  -29.4798    5.2170  -22.9247 O   0  0  0  0  0  0  0  0  0  0  0  0
  -30.8206    5.3288  -25.0207 O   0  0  0  0  0  0  0  0  0  0  0  0
  -31.0344    7.2156  -23.3034 C   0  0  0  0  0  0  0  0  0  0  0  0
  -32.2633    7.1207  -22.7395 C   0  0  0  0  0  0  0  0  0  0  0  0
  -32.8639    8.2631  -22.2447 C   0  0  0  0  0  0  0  0  0  0  0  0
  -32.2061    9.4446  -22.3379 C   0  0  0  0  0  0  0  0  0  0  0  0
  -30.6921    8.9611  -23.1511 S   0  0  0  0  0  0  0  0  0  0  0  0
  -32.6425   10.8125  -21.8801 C   0  0  0  0  0  0  0  0  0  0  0  0
  -32.0046   11.1250  -20.5989 N   0  0  0  0  0  0  0  0  0  0  0  0
  -31.5433   12.3689  -20.3615 C   0  0  0  0  0  0  0  0  0  0  0  0
  -31.6562   13.2296  -21.2086 O   0  0  0  0  0  0  0  0  0  0  0  0
  -30.8871   12.6905  -19.0435 C   0  0  0  0  0  0  0  0  0  0  0  0
  -30.1193   14.3271  -19.1352 S   0  0  0  0  0  0  0  0  0  0  0  0
  -28.4181   13.8685  -19.1140 C   0  0  0  0  0  0  0  0  0  0  0  0
  -27.4858   14.3636  -18.3337 N   0  0  0  0  0  0  0  0  0  0  0  0
  -26.3591   13.7998  -18.5876 N   0  0  0  0  0  0  0  0  0  0  0  0
  -26.5037   12.9188  -19.5367 C   0  0  0  0  0  0  0  0  0  0  0  0
  -27.8203   12.9308  -19.9062 N   0  0  0  0  0  0  0  0  0  0  0  0
  -28.4138   12.1642  -20.8685 N   0  0  0  0  0  0  0  0  0  0  0  0
  -25.4215   12.0441  -20.1155 C   0  0  0  0  0  0  0  0  0  0  0  0
  -26.6941    7.4300  -25.9316 H   0  0  0  0  0  0  0  0  0  0  0  0
  -27.2050    7.3578  -27.6518 H   0  0  0  0  0  0  0  0  0  0  0  0
  -26.7789    5.8484  -26.7775 H   0  0  0  0  0  0  0  0  0  0  0  0
  -29.2953    7.5185  -26.6410 H   0  0  0  0  0  0  0  0  0  0  0  0
  -29.0988    5.7330  -26.6246 H   0  0  0  0  0  0  0  0  0  0  0  0
  -27.4997    8.3322  -24.4413 H   0  0  0  0  0  0  0  0  0  0  0  0
  -28.0721    7.4900  -22.9614 H   0  0  0  0  0  0  0  0  0  0  0  0
  -26.6351    5.5827  -23.3989 H   0  0  0  0  0  0  0  0  0  0  0  0
  -25.6261    7.0585  -23.5692 H   0  0  0  0  0  0  0  0  0  0  0  0
  -26.2166    6.2008  -25.0321 H   0  0  0  0  0  0  0  0  0  0  0  0
  -32.7750    6.1491  -22.6765 H   0  0  0  0  0  0  0  0  0  0  0  0
  -33.8608    8.2141  -21.7821 H   0  0  0  0  0  0  0  0  0  0  0  0
  -32.3462   11.5618  -22.6291 H   0  0  0  0  0  0  0  0  0  0  0  0
  -33.7356   10.8282  -21.7581 H   0  0  0  0  0  0  0  0  0  0  0  0
  -31.9087   10.3941  -19.8795 H   0  0  0  0  0  0  0  0  0  0  0  0
  -31.6444   12.6857  -18.2458 H   0  0  0  0  0  0  0  0  0  0  0  0
  -30.1168   11.9370  -18.8225 H   0  0  0  0  0  0  0  0  0  0  0  0
  -27.9843   11.2391  -21.0125 H   0  0  0  0  0  0  0  0  0  0  0  0
  -29.2291   12.4696  -21.4188 H   0  0  0  0  0  0  0  0  0  0  0  0
  -25.7467   11.0341  -19.8258 H   0  0  0  0  0  0  0  0  0  0  0  0
  -24.5554   12.2787  -19.4793 H   0  0  0  0  0  0  0  0  0  0  0  0
  -25.2291   12.1597  -21.1924 H   0  0  0  0  0  0  0  0  0  0  0  0
  1  2  1  0  0  0  0
  1 27  1  0  0  0  0
  1 28  1  0  0  0  0
  1 29  1  0  0  0  0
  2  3  1  0  0  0  0
  2 30  1  0  0  0  0
  2 31  1  0  0  0  0
  3  4  1  0  0  0  0
  3  6  1  0  0  0  0
  4  5  1  0  0  0  0
  4 32  1  0  0  0  0
  4 33  1  0  0  0  0
  5 34  1  0  0  0  0
  5 35  1  0  0  0  0
  5 36  1  0  0  0  0
  6  7  2  0  0  0  0
  6  8  2  0  0  0  0
  6  9  1  0  0  0  0
  9 13  1  0  0  0  0
  9 10  2  0  0  0  0
 10 11  1  0  0  0  0
 10 37  1  0  0  0  0
 11 12  2  0  0  0  0
 11 38  1  0  0  0  0
 12 13  1  0  0  0  0
 12 14  1  0  0  0  0
 14 15  1  0  0  0  0
 14 39  1  0  0  0  0
 14 40  1  0  0  0  0
 15 16  1  0  0  0  0
 15 41  1  0  0  0  0
 16 17  2  0  0  0  0
 16 18  1  0  0  0  0
 18 19  1  0  0  0  0
 18 42  1  0  0  0  0
 18 43  1  0  0  0  0
 19 20  1  0  0  0  0
 20 24  1  0  0  0  0
 20 21  2  0  0  0  0
 21 22  1  0  0  0  0
 22 23  2  0  0  0  0
 23 24  1  0  0  0  0
 23 26  1  0  0  0  0
 24 25  1  0  0  0  0
 25 44  1  0  0  0  0
 25 45  1  0  0  0  0
 26 46  1  0  0  0  0
 26 47  1  0  0  0  0
 26 48  1  0  0  0  0
M  END
> <Name>
ZINC23280832

> <reference>
BDB4965

> <quality>
0.685

> <status>
decoy

> <atoms in reference ligand area>
22

> <score>
-27.2023

$$$$
ZINC04535649
      BALL 1.4.0 (Jan  4 2012, 23:22:29)

 46 47  0999  0  0  0  0  0  0999 V2000
  -31.7829    7.1599  -18.5391 C   0  0  0  0  0  0  0  0  0  0  0  0
  -33.0789    7.6975  -19.0891 C   0  0  0  0  0  0  0  0  0  0  0  0
  -33.9404    6.9320  -19.4700 O   0  0  0  0  0  0  0  0  0  0  0  0
  -33.2915    9.0946  -19.1615 C   0  0  0  0  0  0  0  0  0  0  0  0
  -34.1178    9.7439  -20.0185 C   0  0  0  0  0  0  0  0  0  0  0  0
  -34.0413   11.1981  -19.7568 C   0  0  0  0  0  0  0  0  0  0  0  0
  -34.6650   12.0488  -20.3593 O   0  0  0  0  0  0  0  0  0  0  0  0
  -33.1793   11.4390  -18.7524 N   0  0  0  0  0  0  0  0  0  0  0  0
  -32.6415   10.1511  -18.2988 C   0  0  0  0  0  0  0  0  0  0  0  0
  -32.9917    9.9246  -16.8506 C   0  0  0  0  0  0  0  0  0  0  0  0
  -34.0499   10.6059  -16.2806 C   0  0  0  0  0  0  0  0  0  0  0  0
  -34.3720   10.3983  -14.9523 C   0  0  0  0  0  0  0  0  0  0  0  0
  -33.6367    9.5083  -14.1910 C   0  0  0  0  0  0  0  0  0  0  0  0
  -32.5776    8.8251  -14.7561 C   0  0  0  0  0  0  0  0  0  0  0  0
  -32.2520    9.0320  -16.0889 C   0  0  0  0  0  0  0  0  0  0  0  0
  -31.2102    8.3613  -16.6471 O   0  0  0  0  0  0  0  0  0  0  0  0
  -30.4933    7.4581  -15.8031 C   0  0  0  0  0  0  0  0  0  0  0  0
  -32.8382   12.7551  -18.2068 C   0  0  0  0  0  0  0  0  0  0  0  0
  -32.2347   13.6244  -19.3118 C   0  0  0  0  0  0  0  0  0  0  0  0
  -32.5114   15.6846  -20.5534 C   0  0  0  0  0  0  0  0  0  0  0  0
  -31.5273   16.6762  -19.9298 C   0  0  0  0  0  0  0  0  0  0  0  0
  -30.2103   16.4098  -20.4160 O   0  0  0  0  0  0  0  0  0  0  0  0
  -34.8877    9.1565  -20.9614 O   0  5  0  0  0  0  0  0  0  0  0  0
  -33.0706   14.8264  -19.4921 N   0  3  0  0  0  0  0  0  0  0  0  0
  -31.6941    7.5852  -17.5286 H   0  0  0  0  0  0  0  0  0  0  0  0
  -30.9927    7.6074  -19.1599 H   0  0  0  0  0  0  0  0  0  0  0  0
  -31.7366    6.0609  -18.5342 H   0  0  0  0  0  0  0  0  0  0  0  0
  -31.5452   10.1211  -18.3850 H   0  0  0  0  0  0  0  0  0  0  0  0
  -34.6366   11.3141  -16.8842 H   0  0  0  0  0  0  0  0  0  0  0  0
  -35.2146   10.9421  -14.5002 H   0  0  0  0  0  0  0  0  0  0  0  0
  -33.8954    9.3444  -13.1346 H   0  0  0  0  0  0  0  0  0  0  0  0
  -31.9928    8.1174  -14.1501 H   0  0  0  0  0  0  0  0  0  0  0  0
  -30.8185    7.6720  -14.7743 H   0  0  0  0  0  0  0  0  0  0  0  0
  -29.4317    7.7343  -15.8857 H   0  0  0  0  0  0  0  0  0  0  0  0
  -30.6596    6.4040  -16.0696 H   0  0  0  0  0  0  0  0  0  0  0  0
  -33.7467   13.2372  -17.8168 H   0  0  0  0  0  0  0  0  0  0  0  0
  -32.1072   12.6378  -17.3932 H   0  0  0  0  0  0  0  0  0  0  0  0
  -31.2156   13.9254  -19.0275 H   0  0  0  0  0  0  0  0  0  0  0  0
  -32.2029   13.0552  -20.2526 H   0  0  0  0  0  0  0  0  0  0  0  0
  -33.3256   16.2357  -21.0468 H   0  0  0  0  0  0  0  0  0  0  0  0
  -31.9873   15.0603  -21.2920 H   0  0  0  0  0  0  0  0  0  0  0  0
  -31.8177   17.7017  -20.2022 H   0  0  0  0  0  0  0  0  0  0  0  0
  -31.5417   16.5696  -18.8351 H   0  0  0  0  0  0  0  0  0  0  0  0
  -30.2648   16.0338  -21.3302 H   0  0  0  0  0  0  0  0  0  0  0  0
  -34.0260   14.5420  -19.7516 H   0  0  0  0  0  0  0  0  0  0  0  0
  -33.1046   15.3553  -18.6089 H   0  0  0  0  0  0  0  0  0  0  0  0
  1  2  1  0  0  0  0
  1 25  1  0  0  0  0
  1 26  1  0  0  0  0
  1 27  1  0  0  0  0
  2  3  2  0  0  0  0
  2  4  1  0  0  0  0
  4  9  1  0  0  0  0
  4  5  2  0  0  0  0
  5  6  1  0  0  0  0
  5 23  1  0  0  0  0
  6  7  2  0  0  0  0
  6  8  1  0  0  0  0
  8  9  1  0  0  0  0
  8 18  1  0  0  0  0
  9 10  1  0  0  0  0
  9 28  1  0  0  0  0
 10 15  2  0  0  0  0
 10 11  1  0  0  0  0
 11 12  2  0  0  0  0
 11 29  1  0  0  0  0
 12 13  1  0  0  0  0
 12 30  1  0  0  0  0
 13 14  2  0  0  0  0
 13 31  1  0  0  0  0
 14 15  1  0  0  0  0
 14 32  1  0  0  0  0
 15 16  1  0  0  0  0
 16 17  1  0  0  0  0
 17 33  1  0  0  0  0
 17 34  1  0  0  0  0
 17 35  1  0  0  0  0
 18 19  1  0  0  0  0
 18 36  1  0  0  0  0
 18 37  1  0  0  0  0
 19 24  1  0  0  0  0
 19 38  1  0  0  0  0
 19 39  1  0  0  0  0
 20 21  1  0  0  0  0
 20 24  1  0  0  0  0
 20 40  1  0  0  0  0
 20 41  1  0  0  0  0
 21 22  1  0  0  0  0
 21 42  1  0  0  0  0
 21 43  1  0  0  0  0
 22 44  1  0  0  0  0
 24 45  1  0  0  0  0
 24 46  1  0  0  0  0
M  END
> <Name>
ZINC04535649

> <reference>
BDB5013

> <quality>
0.764

> <status>
decoy

> <atoms in reference ligand area>
10

> <score>
-27.1314

$$$$
ZINC00547494
      BALL 1.4.0 (Jan  4 2012, 23:22:29)

 40 41  0999  0  0  0  0  0  0999 V2000
  -32.6546    6.6611  -13.6494 C   0  0  0  0  0  0  0  0  0  0  0  0
  -33.8938    6.9370  -14.3054 O   0  0  0  0  0  0  0  0  0  0  0  0
  -33.9946    8.1246  -14.9604 C   0  0  0  0  0  0  0  0  0  0  0  0
  -33.6317    8.2128  -16.2912 C   0  0  0  0  0  0  0  0  0  0  0  0
  -33.7361    9.4346  -16.9610 C   0  0  0  0  0  0  0  0  0  0  0  0
  -34.2068   10.5614  -16.2820 C   0  0  0  0  0  0  0  0  0  0  0  0
  -34.5722   10.4644  -14.9559 C   0  0  0  0  0  0  0  0  0  0  0  0
  -34.4631    9.2524  -14.2898 C   0  0  0  0  0  0  0  0  0  0  0  0
  -34.8193    9.1635  -12.9810 O   0  0  0  0  0  0  0  0  0  0  0  0
  -35.2913   10.3581  -12.3547 C   0  0  0  0  0  0  0  0  0  0  0  0
  -36.6451   10.7162  -12.9118 C   0  0  0  0  0  0  0  0  0  0  0  0
  -36.8151   10.7586  -14.1118 O   0  0  0  0  0  0  0  0  0  0  0  0
  -37.6668   10.9894  -12.0763 N   0  0  0  0  0  0  0  0  0  0  0  0
  -33.3511    9.5345  -18.3805 C   0  0  0  0  0  0  0  0  0  0  0  0
  -34.2636    9.5160  -19.3032 N   0  0  0  0  0  0  0  0  0  0  0  0
  -33.8977    9.6110  -20.6523 N   0  0  0  0  0  0  0  0  0  0  0  0
  -33.2323   10.6961  -21.0953 C   0  0  0  0  0  0  0  0  0  0  0  0
  -32.0686   10.6015  -21.4246 O   0  0  0  0  0  0  0  0  0  0  0  0
  -33.9341   12.0270  -21.1817 C   0  0  0  0  0  0  0  0  0  0  0  0
  -33.1182   13.0525  -20.5267 N   0  0  0  0  0  0  0  0  0  0  0  0
  -32.5338   14.1123  -21.1118 C   0  0  0  0  0  0  0  0  0  0  0  0
  -31.8977   14.7863  -20.1883 N   0  0  0  0  0  0  0  0  0  0  0  0
  -32.0523   14.1905  -19.0067 C   0  0  0  0  0  0  0  0  0  0  0  0
  -32.7966   13.1272  -19.1616 N   0  0  0  0  0  0  0  0  0  0  0  0
  -32.5549    5.5660  -13.6248 H   0  0  0  0  0  0  0  0  0  0  0  0
  -32.7681    7.0129  -12.6135 H   0  0  0  0  0  0  0  0  0  0  0  0
  -31.7953    7.1351  -14.1464 H   0  0  0  0  0  0  0  0  0  0  0  0
  -33.2616    7.3231  -16.8218 H   0  0  0  0  0  0  0  0  0  0  0  0
  -34.2859   11.5257  -16.8052 H   0  0  0  0  0  0  0  0  0  0  0  0
  -34.9511   11.3501  -14.4250 H   0  0  0  0  0  0  0  0  0  0  0  0
  -34.5861   11.1794  -12.5504 H   0  0  0  0  0  0  0  0  0  0  0  0
  -35.3731   10.1958  -11.2698 H   0  0  0  0  0  0  0  0  0  0  0  0
  -38.5229   10.4173  -12.1054 H   0  0  0  0  0  0  0  0  0  0  0  0
  -37.5916   11.7703  -11.4088 H   0  0  0  0  0  0  0  0  0  0  0  0
  -32.2904    9.6247  -18.6577 H   0  0  0  0  0  0  0  0  0  0  0  0
  -34.1372    8.8516  -21.3055 H   0  0  0  0  0  0  0  0  0  0  0  0
  -34.0816   12.2961  -22.2381 H   0  0  0  0  0  0  0  0  0  0  0  0
  -34.9109   11.9610  -20.6803 H   0  0  0  0  0  0  0  0  0  0  0  0
  -32.5819   14.3682  -22.1805 H   0  0  0  0  0  0  0  0  0  0  0  0
  -31.6231   14.5372  -18.0550 H   0  0  0  0  0  0  0  0  0  0  0  0
  1  2  1  0  0  0  0
  1 25  1  0  0  0  0
  1 26  1  0  0  0  0
  1 27  1  0  0  0  0
  2  3  1  0  0  0  0
  3  8  2  0  0  0  0
  3  4  1  0  0  0  0
  4  5  2  0  0  0  0
  4 28  1  0  0  0  0
  5  6  1  0  0  0  0
  5 14  1  0  0  0  0
  6  7  2  0  0  0  0
  6 29  1  0  0  0  0
  7  8  1  0  0  0  0
  7 30  1  0  0  0  0
  8  9  1  0  0  0  0
  9 10  1  0  0  0  0
 10 11  1  0  0  0  0
 10 31  1  0  0  0  0
 10 32  1  0  0  0  0
 11 12  2  0  0  0  0
 11 13  1  0  0  0  0
 13 33  1  0  0  0  0
 13 34  1  0  0  0  0
 14 15  2  0  0  0  0
 14 35  1  0  0  0  0
 15 16  1  0  0  0  0
 16 17  1  0  0  0  0
 16 36  1  0  0  0  0
 17 18  2  0  0  0  0
 17 19  1  0  0  0  0
 19 20  1  0  0  0  0
 19 37  1  0  0  0  0
 19 38  1  0  0  0  0
 20 24  1  0  0  0  0
 20 21  1  0  0  0  0
 21 22  2  0  0  0  0
 21 39  1  0  0  0  0
 22 23  1  0  0  0  0
 23 24  2  0  0  0  0
 23 40  1  0  0  0  0
M  END
> <Name>
ZINC00547494

> <reference>
BDB5024

> <quality>
0.677

> <status>
decoy

> <atoms in reference ligand area>
10

> <score>
-27.0717

$$$$
ZINC20341969
      BALL 1.4.0 (Jan  4 2012, 23:22:29)

 39 39  0999  0  0  0  0  0  0999 V2000
  -35.2144    7.8144  -28.4249 C   0  0  0  0  0  0  0  0  0  0  0  0
  -34.8982    7.9609  -26.9352 C   0  0  0  0  0  0  0  0  0  0  0  0
  -34.9890    6.6473  -26.2839 N   0  0  0  0  0  0  0  0  0  0  0  0
  -36.2719    6.4938  -25.5848 C   0  0  0  0  0  0  0  0  0  0  0  0
  -36.2697    5.1823  -24.7970 C   0  0  0  0  0  0  0  0  0  0  0  0
  -36.5707    5.4498  -23.4259 O   0  0  0  0  0  0  0  0  0  0  0  0
  -33.8611    6.4353  -25.3669 C   0  0  0  0  0  0  0  0  0  0  0  0
  -33.7246    7.6272  -24.4547 C   0  0  0  0  0  0  0  0  0  0  0  0
  -33.6323    8.7419  -24.9232 O   0  0  0  0  0  0  0  0  0  0  0  0
  -33.7050    7.4540  -23.1183 N   0  0  0  0  0  0  0  0  0  0  0  0
  -33.5794    8.5501  -22.2792 C   0  0  0  0  0  0  0  0  0  0  0  0
  -32.6453    9.5792  -22.3359 C   0  0  0  0  0  0  0  0  0  0  0  0
  -32.7514   10.6077  -21.3280 C   0  0  0  0  0  0  0  0  0  0  0  0
  -33.7366   10.4801  -20.4216 C   0  0  0  0  0  0  0  0  0  0  0  0
  -34.5458    8.9692  -20.9049 S   0  0  0  0  0  0  0  0  0  0  0  0
  -34.0741   11.3951  -19.2727 C   0  0  0  0  0  0  0  0  0  0  0  0
  -31.7983   11.7745  -21.2931 C   0  0  0  0  0  0  0  0  0  0  0  0
  -31.6093    9.6205  -23.3700 C   0  0  0  0  0  0  0  0  0  0  0  0
  -30.8030    8.7143  -23.4598 O   0  0  0  0  0  0  0  0  0  0  0  0
  -31.5491   10.6637  -24.2230 O   0  5  0  0  0  0  0  0  0  0  0  0
  -36.0461    7.1067  -28.5564 H   0  0  0  0  0  0  0  0  0  0  0  0
  -34.3265    7.4383  -28.9540 H   0  0  0  0  0  0  0  0  0  0  0  0
  -35.4988    8.7935  -28.8381 H   0  0  0  0  0  0  0  0  0  0  0  0
  -33.8804    8.3602  -26.8138 H   0  0  0  0  0  0  0  0  0  0  0  0
  -35.6200    8.6497  -26.4720 H   0  0  0  0  0  0  0  0  0  0  0  0
  -37.0911    6.4784  -26.3187 H   0  0  0  0  0  0  0  0  0  0  0  0
  -36.4156    7.3366  -24.8926 H   0  0  0  0  0  0  0  0  0  0  0  0
  -35.2780    4.7117  -24.8689 H   0  0  0  0  0  0  0  0  0  0  0  0
  -37.0287    4.5034  -25.2127 H   0  0  0  0  0  0  0  0  0  0  0  0
  -37.4636    5.8724  -23.3594 H   0  0  0  0  0  0  0  0  0  0  0  0
  -34.0423    5.5325  -24.7651 H   0  0  0  0  0  0  0  0  0  0  0  0
  -32.9345    6.3100  -25.9464 H   0  0  0  0  0  0  0  0  0  0  0  0
  -33.7833    6.5072  -22.7204 H   0  0  0  0  0  0  0  0  0  0  0  0
  -35.1299   11.6276  -19.4757 H   0  0  0  0  0  0  0  0  0  0  0  0
  -33.5177   12.3051  -19.5416 H   0  0  0  0  0  0  0  0  0  0  0  0
  -33.8759   11.0226  -18.2569 H   0  0  0  0  0  0  0  0  0  0  0  0
  -31.5072   11.8560  -20.2355 H   0  0  0  0  0  0  0  0  0  0  0  0
  -32.4294   12.6477  -21.5151 H   0  0  0  0  0  0  0  0  0  0  0  0
  -30.9360   11.6847  -21.9701 H   0  0  0  0  0  0  0  0  0  0  0  0
  1  2  1  0  0  0  0
  1 21  1  0  0  0  0
  1 22  1  0  0  0  0
  1 23  1  0  0  0  0
  2  3  1  0  0  0  0
  2 24  1  0  0  0  0
  2 25  1  0  0  0  0
  3  4  1  0  0  0  0
  3  7  1  0  0  0  0
  4  5  1  0  0  0  0
  4 26  1  0  0  0  0
  4 27  1  0  0  0  0
  5  6  1  0  0  0  0
  5 28  1  0  0  0  0
  5 29  1  0  0  0  0
  6 30  1  0  0  0  0
  7  8  1  0  0  0  0
  7 31  1  0  0  0  0
  7 32  1  0  0  0  0
  8  9  2  0  0  0  0
  8 10  1  0  0  0  0
 10 11  1  0  0  0  0
 10 33  1  0  0  0  0
 11 15  1  0  0  0  0
 11 12  2  0  0  0  0
 12 13  1  0  0  0  0
 12 18  1  0  0  0  0
 13 14  2  0  0  0  0
 13 17  1  0  0  0  0
 14 15  1  0  0  0  0
 14 16  1  0  0  0  0
 16 34  1  0  0  0  0
 16 35  1  0  0  0  0
 16 36  1  0  0  0  0
 17 37  1  0  0  0  0
 17 38  1  0  0  0  0
 17 39  1  0  0  0  0
 18 19  2  0  0  0  0
 18 20  1  0  0  0  0
M  END
> <Name>
ZINC20341969

> <reference>
BDB4995

> <quality>
0.767

> <status>
decoy

> <atoms in reference ligand area>
10

> <score>
-27.0605

$$$$
ZINC20185343
      BALL 1.4.0 (Jan  4 2012, 23:22:29)

 38 39  0999  0  0  0  0  0  0999 V2000
  -33.2023   12.8895  -17.2840 C   0  0  0  0  0  0  0  0  0  0  0  0
  -33.4047   12.8468  -18.8000 C   0  0  0  0  0  0  0  0  0  0  0  0
  -32.1425   13.1688  -19.4704 N   0  0  0  0  0  0  0  0  0  0  0  0
  -31.6639   12.3468  -20.4786 C   0  0  0  0  0  0  0  0  0  0  0  0
  -30.4867   12.3648  -21.0742 N   0  0  0  0  0  0  0  0  0  0  0  0
  -30.1887   11.4980  -22.0240 C   0  0  0  0  0  0  0  0  0  0  0  0
  -31.1255   10.5895  -22.3863 C   0  0  0  0  0  0  0  0  0  0  0  0
  -32.4624   11.0339  -21.2873 S   0  0  0  0  0  0  0  0  0  0  0  0
  -28.8394   11.5230  -22.6945 C   0  0  0  0  0  0  0  0  0  0  0  0
  -28.1355   12.8434  -22.3752 C   0  0  0  0  0  0  0  0  0  0  0  0
  -26.8722   12.5687  -21.6775 N   0  3  0  0  0  0  0  0  0  0  0  0
  -31.3863   14.3596  -19.0752 C   0  0  0  0  0  0  0  0  0  0  0  0
  -30.0983   13.9301  -18.3533 C   0  0  0  0  0  0  0  0  0  0  0  0
  -29.1758   15.1761  -18.2272 C   0  0  0  0  0  0  0  0  0  0  0  0
  -29.4225   15.9473  -19.8820 S   0  0  0  0  0  0  0  0  0  0  0  0
  -28.4201   15.4702  -20.7689 O   0  0  0  0  0  0  0  0  0  0  0  0
  -29.6022   17.3474  -19.7181 O   0  0  0  0  0  0  0  0  0  0  0  0
  -31.0343   15.1863  -20.3355 C   0  0  0  0  0  0  0  0  0  0  0  0
  -33.4318   11.9031  -16.8545 H   0  0  0  0  0  0  0  0  0  0  0  0
  -33.8710   13.6446  -16.8448 H   0  0  0  0  0  0  0  0  0  0  0  0
  -32.1578   13.1517  -17.0601 H   0  0  0  0  0  0  0  0  0  0  0  0
  -33.7312   11.8396  -19.0982 H   0  0  0  0  0  0  0  0  0  0  0  0
  -34.1707   13.5813  -19.0896 H   0  0  0  0  0  0  0  0  0  0  0  0
  -31.0767    9.7966  -23.1472 H   0  0  0  0  0  0  0  0  0  0  0  0
  -28.2305   10.6848  -22.3247 H   0  0  0  0  0  0  0  0  0  0  0  0
  -28.9678   11.4307  -23.7830 H   0  0  0  0  0  0  0  0  0  0  0  0
  -27.9272   13.3835  -23.3105 H   0  0  0  0  0  0  0  0  0  0  0  0
  -28.7821   13.4589  -21.7326 H   0  0  0  0  0  0  0  0  0  0  0  0
  -26.8156   13.1474  -20.8273 H   0  0  0  0  0  0  0  0  0  0  0  0
  -26.0807   12.7922  -22.2976 H   0  0  0  0  0  0  0  0  0  0  0  0
  -26.8326   11.5730  -21.4171 H   0  0  0  0  0  0  0  0  0  0  0  0
  -31.9930   14.9765  -18.3959 H   0  0  0  0  0  0  0  0  0  0  0  0
  -30.3450   13.5503  -17.3509 H   0  0  0  0  0  0  0  0  0  0  0  0
  -29.5877   13.1504  -18.9377 H   0  0  0  0  0  0  0  0  0  0  0  0
  -29.5384   15.8532  -17.4398 H   0  0  0  0  0  0  0  0  0  0  0  0
  -28.1246   14.8751  -18.1067 H   0  0  0  0  0  0  0  0  0  0  0  0
  -31.7843   15.9730  -20.5043 H   0  0  0  0  0  0  0  0  0  0  0  0
  -30.9042   14.5267  -21.2061 H   0  0  0  0  0  0  0  0  0  0  0  0
  1  2  1  0  0  0  0
  1 19  1  0  0  0  0
  1 20  1  0  0  0  0
  1 21  1  0  0  0  0
  2  3  1  0  0  0  0
  2 22  1  0  0  0  0
  2 23  1  0  0  0  0
  3  4  1  0  0  0  0
  3 12  1  0  0  0  0
  4  8  1  0  0  0  0
  4  5  2  0  0  0  0
  5  6  1  0  0  0  0
  6  7  2  0  0  0  0
  6  9  1  0  0  0  0
  7  8  1  0  0  0  0
  7 24  1  0  0  0  0
  9 10  1  0  0  0  0
  9 25  1  0  0  0  0
  9 26  1  0  0  0  0
 10 11  1  0  0  0  0
 10 27  1  0  0  0  0
 10 28  1  0  0  0  0
 11 29  1  0  0  0  0
 11 30  1  0  0  0  0
 11 31  1  0  0  0  0
 12 18  1  0  0  0  0
 12 13  1  0  0  0  0
 12 32  1  0  0  0  0
 13 14  1  0  0  0  0
 13 33  1  0  0  0  0
 13 34  1  0  0  0  0
 14 15  1  0  0  0  0
 14 35  1  0  0  0  0
 14 36  1  0  0  0  0
 15 16  2  0  0  0  0
 15 17  2  0  0  0  0
 15 18  1  0  0  0  0
 18 37  1  0  0  0  0
 18 38  1  0  0  0  0
M  END
> <Name>
ZINC20185343

> <reference>
BDB5233

> <quality>
0.724

> <status>
decoy

> <atoms in reference ligand area>
23

> <score>
-27.0161

$$$$
ZINC17430523
      BALL 1.4.0 (Jan  4 2012, 23:22:29)

 49 51  0999  0  0  0  0  0  0999 V2000
  -30.7633   16.0066  -19.8494 C   0  0  0  0  0  0  0  0  0  0  0  0
  -32.0861   16.0698  -20.2457 C   0  0  0  0  0  0  0  0  0  0  0  0
  -32.6670   14.9930  -20.8889 C   0  0  0  0  0  0  0  0  0  0  0  0
  -31.9251   13.8531  -21.1362 C   0  0  0  0  0  0  0  0  0  0  0  0
  -30.6037   13.7879  -20.7352 C   0  0  0  0  0  0  0  0  0  0  0  0
  -30.0216   14.8664  -20.0958 C   0  0  0  0  0  0  0  0  0  0  0  0
  -32.5584   12.6791  -21.8375 C   0  0  0  0  0  0  0  0  0  0  0  0
  -31.5966   11.6314  -21.9754 O   0  0  0  0  0  0  0  0  0  0  0  0
  -31.7220   10.6036  -21.0095 N   0  0  0  0  0  0  0  0  0  0  0  0
  -31.8079   10.9225  -19.6699 C   0  0  0  0  0  0  0  0  0  0  0  0
  -32.5618   10.0515  -18.7525 C   0  0  0  0  0  0  0  0  0  0  0  0
  -32.9007   10.3391  -17.4440 C   0  0  0  0  0  0  0  0  0  0  0  0
  -33.5886    9.2563  -16.9764 N   0  0  0  0  0  0  0  0  0  0  0  0
  -33.6649    8.3486  -17.9887 C   0  0  0  0  0  0  0  0  0  0  0  0
  -33.0577    8.8200  -19.0379 N   0  0  0  0  0  0  0  0  0  0  0  0
  -34.1485    9.1015  -15.6315 C   0  0  0  0  0  0  0  0  0  0  0  0
  -33.0192    8.9643  -14.5789 C   0  0  0  0  0  0  0  0  0  0  0  0
  -33.7204    9.4470  -13.2859 C   0  0  0  0  0  0  0  0  0  0  0  0
  -34.9117   10.2834  -13.7921 C   0  0  0  0  0  0  0  0  0  0  0  0
  -34.8413   10.3022  -15.2277 O   0  0  0  0  0  0  0  0  0  0  0  0
  -34.8145   11.7100  -13.2478 C   0  0  0  0  0  0  0  0  0  0  0  0
  -36.1277   12.2162  -13.0008 O   0  0  0  0  0  0  0  0  0  0  0  0
  -34.1816    8.3318  -12.5208 O   0  0  0  0  0  0  0  0  0  0  0  0
  -31.9131    9.8085  -14.9048 O   0  0  0  0  0  0  0  0  0  0  0  0
  -32.5987   11.4984  -16.7427 N   0  0  0  0  0  0  0  0  0  0  0  0
  -33.4694   12.5270  -16.7342 C   0  0  0  0  0  0  0  0  0  0  0  0
  -34.0010   12.8629  -15.6971 O   0  0  0  0  0  0  0  0  0  0  0  0
  -31.2336   11.9997  -19.1458 N   0  0  0  0  0  0  0  0  0  0  0  0
  -30.3008   16.8638  -19.3380 H   0  0  0  0  0  0  0  0  0  0  0  0
  -32.6764   16.9769  -20.0491 H   0  0  0  0  0  0  0  0  0  0  0  0
  -33.7198   15.0431  -21.2041 H   0  0  0  0  0  0  0  0  0  0  0  0
  -30.0156   12.8778  -20.9248 H   0  0  0  0  0  0  0  0  0  0  0  0
  -28.9680   14.8173  -19.7832 H   0  0  0  0  0  0  0  0  0  0  0  0
  -33.4128   12.3164  -21.2471 H   0  0  0  0  0  0  0  0  0  0  0  0
  -32.9065   12.9898  -22.8336 H   0  0  0  0  0  0  0  0  0  0  0  0
  -31.7491    9.6179  -21.3069 H   0  0  0  0  0  0  0  0  0  0  0  0
  -34.1625    7.3695  -17.9284 H   0  0  0  0  0  0  0  0  0  0  0  0
  -34.8043    8.2195  -15.6738 H   0  0  0  0  0  0  0  0  0  0  0  0
  -32.6017    7.9492  -14.5053 H   0  0  0  0  0  0  0  0  0  0  0  0
  -33.0492   10.0209  -12.6299 H   0  0  0  0  0  0  0  0  0  0  0  0
  -35.8645    9.8501  -13.4537 H   0  0  0  0  0  0  0  0  0  0  0  0
  -34.2410   11.7061  -12.3091 H   0  0  0  0  0  0  0  0  0  0  0  0
  -34.3078   12.3508  -13.9844 H   0  0  0  0  0  0  0  0  0  0  0  0
  -36.1698   12.5956  -12.0874 H   0  0  0  0  0  0  0  0  0  0  0  0
  -34.8801    8.6390  -11.8901 H   0  0  0  0  0  0  0  0  0  0  0  0
  -31.1103    9.4840  -14.4248 H   0  0  0  0  0  0  0  0  0  0  0  0
  -31.7091   11.5725  -16.2289 H   0  0  0  0  0  0  0  0  0  0  0  0
  -33.6981   13.0619  -17.6679 H   0  0  0  0  0  0  0  0  0  0  0  0
  -30.7031   12.6173  -19.7767 H   0  0  0  0  0  0  0  0  0  0  0  0
  1  6  2  0  0  0  0
  1  2  1  0  0  0  0
  1 29  1  0  0  0  0
  2  3  2  0  0  0  0
  2 30  1  0  0  0  0
  3  4  1  0  0  0  0
  3 31  1  0  0  0  0
  4  5  2  0  0  0  0
  4  7  1  0  0  0  0
  5  6  1  0  0  0  0
  5 32  1  0  0  0  0
  6 33  1  0  0  0  0
  7  8  1  0  0  0  0
  7 34  1  0  0  0  0
  7 35  1  0  0  0  0
  8  9  1  0  0  0  0
  9 10  1  0  0  0  0
  9 36  1  0  0  0  0
 10 11  1  0  0  0  0
 10 28  2  0  0  0  0
 11 15  1  0  0  0  0
 11 12  2  0  0  0  0
 12 13  1  0  0  0  0
 12 25  1  0  0  0  0
 13 14  1  0  0  0  0
 13 16  1  0  0  0  0
 14 15  2  0  0  0  0
 14 37  1  0  0  0  0
 16 20  1  0  0  0  0
 16 17  1  0  0  0  0
 16 38  1  0  0  0  0
 17 18  1  0  0  0  0
 17 24  1  0  0  0  0
 17 39  1  0  0  0  0
 18 19  1  0  0  0  0
 18 23  1  0  0  0  0
 18 40  1  0  0  0  0
 19 20  1  0  0  0  0
 19 21  1  0  0  0  0
 19 41  1  0  0  0  0
 21 22  1  0  0  0  0
 21 42  1  0  0  0  0
 21 43  1  0  0  0  0
 22 44  1  0  0  0  0
 23 45  1  0  0  0  0
 24 46  1  0  0  0  0
 25 26  1  0  0  0  0
 25 47  1  0  0  0  0
 26 27  2  0  0  0  0
 26 48  1  0  0  0  0
 28 49  1  0  0  0  0
M  END
> <Name>
ZINC17430523

> <reference>
BDB4945

> <quality>
0.724

> <status>
decoy

> <atoms in reference ligand area>
12

> <score>
-27.0119

$$$$
ZINC12483756
      BALL 1.4.0 (Jan  4 2012, 23:22:29)

 48 50  0999  0  0  0  0  0  0999 V2000
  -28.1216   12.5434  -22.6915 C   0  0  0  0  0  0  0  0  0  0  0  0
  -28.5222   11.1725  -22.6438 O   0  0  0  0  0  0  0  0  0  0  0  0
  -29.0894   10.6900  -23.8634 C   0  0  0  0  0  0  0  0  0  0  0  0
  -30.5208   10.2141  -23.6070 C   0  0  0  0  0  0  0  0  0  0  0  0
  -32.2670   10.0711  -21.9358 C   0  0  0  0  0  0  0  0  0  0  0  0
  -33.0811   11.2471  -21.3855 C   0  0  0  0  0  0  0  0  0  0  0  0
  -32.5569   11.6187  -19.9938 C   0  0  0  0  0  0  0  0  0  0  0  0
  -32.5193   10.3471  -19.1301 C   0  0  0  0  0  0  0  0  0  0  0  0
  -33.8499    9.5899  -19.3492 C   0  0  0  0  0  0  0  0  0  0  0  0
  -33.5959    8.7066  -20.4565 O   0  0  0  0  0  0  0  0  0  0  0  0
  -32.2434    8.9499  -20.8854 C   0  0  0  0  0  0  0  0  0  0  0  0
  -31.5453    9.4544  -19.7256 O   0  0  0  0  0  0  0  0  0  0  0  0
  -30.8907   13.0419  -18.9638 C   0  0  0  0  0  0  0  0  0  0  0  0
  -29.4972   13.5948  -19.1170 C   0  0  0  0  0  0  0  0  0  0  0  0
  -28.8825   14.4276  -18.2580 C   0  0  0  0  0  0  0  0  0  0  0  0
  -27.5976   14.6872  -18.7877 C   0  0  0  0  0  0  0  0  0  0  0  0
  -27.5071   14.0040  -19.9429 C   0  0  0  0  0  0  0  0  0  0  0  0
  -28.6606   13.3442  -20.1373 O   0  0  0  0  0  0  0  0  0  0  0  0
  -26.3139   13.9831  -20.8632 C   0  0  0  0  0  0  0  0  0  0  0  0
  -25.7516   15.2943  -20.9440 O   0  0  0  0  0  0  0  0  0  0  0  0
  -34.4570   10.8729  -21.2929 O   0  0  0  0  0  0  0  0  0  0  0  0
  -30.8891   10.5198  -22.2118 N   0  3  0  0  0  0  0  0  0  0  0  0
  -31.1963   12.1749  -20.1174 N   0  0  0  0  0  0  0  0  0  0  0  0
  -28.7664   13.0520  -23.4232 H   0  0  0  0  0  0  0  0  0  0  0  0
  -27.0858   12.5735  -23.0604 H   0  0  0  0  0  0  0  0  0  0  0  0
  -28.1987   13.0216  -21.7038 H   0  0  0  0  0  0  0  0  0  0  0  0
  -28.4873    9.8512  -24.2425 H   0  0  0  0  0  0  0  0  0  0  0  0
  -29.1005   11.4994  -24.6082 H   0  0  0  0  0  0  0  0  0  0  0  0
  -31.2088   10.7333  -24.2905 H   0  0  0  0  0  0  0  0  0  0  0  0
  -30.5837    9.1286  -23.7737 H   0  0  0  0  0  0  0  0  0  0  0  0
  -32.7216    9.6994  -22.8659 H   0  0  0  0  0  0  0  0  0  0  0  0
  -32.9827   12.1110  -22.0593 H   0  0  0  0  0  0  0  0  0  0  0  0
  -33.2124   12.3690  -19.5278 H   0  0  0  0  0  0  0  0  0  0  0  0
  -32.3191   10.6096  -18.0808 H   0  0  0  0  0  0  0  0  0  0  0  0
  -34.1032    9.0075  -18.4511 H   0  0  0  0  0  0  0  0  0  0  0  0
  -34.6494   10.2998  -19.6075 H   0  0  0  0  0  0  0  0  0  0  0  0
  -31.7746    8.0453  -21.3002 H   0  0  0  0  0  0  0  0  0  0  0  0
  -30.9530   12.4540  -18.0361 H   0  0  0  0  0  0  0  0  0  0  0  0
  -31.6137   13.8701  -18.9256 H   0  0  0  0  0  0  0  0  0  0  0  0
  -29.2995   14.8295  -17.3227 H   0  0  0  0  0  0  0  0  0  0  0  0
  -26.8210   15.3255  -18.3410 H   0  0  0  0  0  0  0  0  0  0  0  0
  -26.6283   13.6573  -21.8656 H   0  0  0  0  0  0  0  0  0  0  0  0
  -25.5600   13.2850  -20.4704 H   0  0  0  0  0  0  0  0  0  0  0  0
  -25.3229   15.5243  -20.0818 H   0  0  0  0  0  0  0  0  0  0  0  0
  -34.9178   11.0944  -22.1406 H   0  0  0  0  0  0  0  0  0  0  0  0
  -30.8240   11.5358  -22.0552 H   0  0  0  0  0  0  0  0  0  0  0  0
  -30.2396   10.0381  -21.5738 H   0  0  0  0  0  0  0  0  0  0  0  0
  -30.5143   11.4040  -20.1544 H   0  0  0  0  0  0  0  0  0  0  0  0
  1  2  1  0  0  0  0
  1 24  1  0  0  0  0
  1 25  1  0  0  0  0
  1 26  1  0  0  0  0
  2  3  1  0  0  0  0
  3  4  1  0  0  0  0
  3 27  1  0  0  0  0
  3 28  1  0  0  0  0
  4 22  1  0  0  0  0
  4 29  1  0  0  0  0
  4 30  1  0  0  0  0
  5 11  1  0  0  0  0
  5  6  1  0  0  0  0
  5 22  1  0  0  0  0
  5 31  1  0  0  0  0
  6  7  1  0  0  0  0
  6 21  1  0  0  0  0
  6 32  1  0  0  0  0
  7  8  1  0  0  0  0
  7 23  1  0  0  0  0
  7 33  1  0  0  0  0
  8 12  1  0  0  0  0
  8  9  1  0  0  0  0
  8 34  1  0  0  0  0
  9 10  1  0  0  0  0
  9 35  1  0  0  0  0
  9 36  1  0  0  0  0
 10 11  1  0  0  0  0
 11 12  1  0  0  0  0
 11 37  1  0  0  0  0
 13 14  1  0  0  0  0
 13 23  1  0  0  0  0
 13 38  1  0  0  0  0
 13 39  1  0  0  0  0
 14 18  1  0  0  0  0
 14 15  2  0  0  0  0
 15 16  1  0  0  0  0
 15 40  1  0  0  0  0
 16 17  2  0  0  0  0
 16 41  1  0  0  0  0
 17 18  1  0  0  0  0
 17 19  1  0  0  0  0
 19 20  1  0  0  0  0
 19 42  1  0  0  0  0
 19 43  1  0  0  0  0
 20 44  1  0  0  0  0
 21 45  1  0  0  0  0
 22 46  1  0  0  0  0
 22 47  1  0  0  0  0
 23 48  1  0  0  0  0
M  END
> <Name>
ZINC12483756

> <reference>
BDB5023

> <quality>
0.670

> <status>
decoy

> <atoms in reference ligand area>
30

> <score>
-27.0039

$$$$
ZINC20423298
      BALL 1.4.0 (Jan  4 2012, 23:22:29)

 41 41  0999  0  0  0  0  0  0999 V2000
  -32.1839    8.4936  -14.0024 C   0  0  0  0  0  0  0  0  0  0  0  0
  -33.4236    8.9258  -14.5669 O   0  0  0  0  0  0  0  0  0  0  0  0
  -33.4130    9.2841  -15.8777 C   0  0  0  0  0  0  0  0  0  0  0  0
  -32.6059   10.3279  -16.3047 C   0  0  0  0  0  0  0  0  0  0  0  0
  -32.5919   10.6906  -17.6431 C   0  0  0  0  0  0  0  0  0  0  0  0
  -33.3919   10.0156  -18.5529 C   0  0  0  0  0  0  0  0  0  0  0  0
  -34.2028    8.9753  -18.1249 C   0  0  0  0  0  0  0  0  0  0  0  0
  -34.2135    8.6097  -16.7872 C   0  0  0  0  0  0  0  0  0  0  0  0
  -34.9866    8.3138  -19.0165 O   0  0  0  0  0  0  0  0  0  0  0  0
  -35.8045    9.1097  -19.8766 C   0  0  0  0  0  0  0  0  0  0  0  0
  -33.3794   10.4122  -20.0067 C   0  0  0  0  0  0  0  0  0  0  0  0
  -32.0912    9.9096  -20.6615 C   0  0  0  0  0  0  0  0  0  0  0  0
  -32.1343   10.2023  -22.1626 C   0  0  0  0  0  0  0  0  0  0  0  0
  -30.7131   10.1744  -22.7286 C   0  0  0  0  0  0  0  0  0  0  0  0
  -30.7556   10.4627  -24.2072 C   0  0  0  0  0  0  0  0  0  0  0  0
  -31.8138   10.6693  -24.7523 O   0  0  0  0  0  0  0  0  0  0  0  0
  -29.6176   10.4900  -24.9186 O   0  5  0  0  0  0  0  0  0  0  0  0
  -33.4453   11.8757  -20.1155 N   0  3  0  0  0  0  0  0  0  0  0  0
  -31.7969   11.7098  -18.0626 O   0  0  0  0  0  0  0  0  0  0  0  0
  -31.5276   12.7516  -17.1223 C   0  0  0  0  0  0  0  0  0  0  0  0
  -31.6719    9.4008  -13.6493 H   0  0  0  0  0  0  0  0  0  0  0  0
  -31.5953    8.0754  -14.8323 H   0  0  0  0  0  0  0  0  0  0  0  0
  -32.3176    7.7623  -13.1917 H   0  0  0  0  0  0  0  0  0  0  0  0
  -31.9770   10.8682  -15.5819 H   0  0  0  0  0  0  0  0  0  0  0  0
  -34.8570    7.7847  -16.4477 H   0  0  0  0  0  0  0  0  0  0  0  0
  -35.5898    8.7766  -20.9028 H   0  0  0  0  0  0  0  0  0  0  0  0
  -35.4447   10.1442  -19.7753 H   0  0  0  0  0  0  0  0  0  0  0  0
  -36.8757    9.0284  -19.6401 H   0  0  0  0  0  0  0  0  0  0  0  0
  -34.2472    9.9673  -20.5156 H   0  0  0  0  0  0  0  0  0  0  0  0
  -31.2275   10.4224  -20.2132 H   0  0  0  0  0  0  0  0  0  0  0  0
  -31.9968    8.8252  -20.5026 H   0  0  0  0  0  0  0  0  0  0  0  0
  -32.7445    9.4391  -22.6677 H   0  0  0  0  0  0  0  0  0  0  0  0
  -32.5758   11.1956  -22.3312 H   0  0  0  0  0  0  0  0  0  0  0  0
  -30.2703    9.1813  -22.5621 H   0  0  0  0  0  0  0  0  0  0  0  0
  -30.1023   10.9375  -22.2242 H   0  0  0  0  0  0  0  0  0  0  0  0
  -32.5101   12.2756  -19.9529 H   0  0  0  0  0  0  0  0  0  0  0  0
  -34.1024   12.2440  -19.4131 H   0  0  0  0  0  0  0  0  0  0  0  0
  -33.7699   12.1363  -21.0577 H   0  0  0  0  0  0  0  0  0  0  0  0
  -30.9918   13.5369  -17.6757 H   0  0  0  0  0  0  0  0  0  0  0  0
  -30.8337   12.3278  -16.3814 H   0  0  0  0  0  0  0  0  0  0  0  0
  -32.4396   13.1415  -16.6466 H   0  0  0  0  0  0  0  0  0  0  0  0
  1  2  1  0  0  0  0
  1 21  1  0  0  0  0
  1 22  1  0  0  0  0
  1 23  1  0  0  0  0
  2  3  1  0  0  0  0
  3  8  2  0  0  0  0
  3  4  1  0  0  0  0
  4  5  2  0  0  0  0
  4 24  1  0  0  0  0
  5  6  1  0  0  0  0
  5 19  1  0  0  0  0
  6  7  2  0  0  0  0
  6 11  1  0  0  0  0
  7  8  1  0  0  0  0
  7  9  1  0  0  0  0
  8 25  1  0  0  0  0
  9 10  1  0  0  0  0
 10 26  1  0  0  0  0
 10 27  1  0  0  0  0
 10 28  1  0  0  0  0
 11 12  1  0  0  0  0
 11 18  1  0  0  0  0
 11 29  1  0  0  0  0
 12 13  1  0  0  0  0
 12 30  1  0  0  0  0
 12 31  1  0  0  0  0
 13 14  1  0  0  0  0
 13 32  1  0  0  0  0
 13 33  1  0  0  0  0
 14 15  1  0  0  0  0
 14 34  1  0  0  0  0
 14 35  1  0  0  0  0
 15 16  2  0  0  0  0
 15 17  1  0  0  0  0
 18 36  1  0  0  0  0
 18 37  1  0  0  0  0
 18 38  1  0  0  0  0
 19 20  1  0  0  0  0
 20 39  1  0  0  0  0
 20 40  1  0  0  0  0
 20 41  1  0  0  0  0
M  END
> <Name>
ZINC20423298

> <reference>
BDB4986

> <quality>
0.824

> <status>
decoy

> <atoms in reference ligand area>
16

> <score>
-27.0019

$$$$
ZINC29647851
      BALL 1.4.0 (Jan  4 2012, 23:22:29)

 62 63  0999  0  0  0  0  0  0999 V2000
  -29.2773   10.9400  -23.8464 C   0  0  0  0  0  0  0  0  0  0  0  0
  -29.7594    9.9255  -24.8852 C   0  0  0  0  0  0  0  0  0  0  0  0
  -30.8195    9.0979  -24.3043 N   0  0  0  0  0  0  0  0  0  0  0  0
  -32.1724    9.6396  -24.1543 C   0  0  0  0  0  0  0  0  0  0  0  0
  -33.1662    8.5072  -24.1218 C   0  0  0  0  0  0  0  0  0  0  0  0
  -33.6597    7.9864  -25.3021 C   0  0  0  0  0  0  0  0  0  0  0  0
  -34.5709    6.9469  -25.2732 C   0  0  0  0  0  0  0  0  0  0  0  0
  -34.9916    6.4251  -24.0633 C   0  0  0  0  0  0  0  0  0  0  0  0
  -34.4985    6.9380  -22.8798 C   0  0  0  0  0  0  0  0  0  0  0  0
  -33.5866    7.9857  -22.9051 C   0  0  0  0  0  0  0  0  0  0  0  0
  -33.0892    8.5096  -21.7097 N   0  0  0  0  0  0  0  0  0  0  0  0
  -33.1049    9.9567  -21.4815 C   0  0  0  0  0  0  0  0  0  0  0  0
  -32.3020   10.2795  -20.2477 C   0  0  0  0  0  0  0  0  0  0  0  0
  -31.9218    9.3849  -19.5193 O   0  0  0  0  0  0  0  0  0  0  0  0
  -31.9919   11.6211  -19.9385 C   0  0  0  0  0  0  0  0  0  0  0  0
  -31.1438   11.9405  -18.8641 C   0  0  0  0  0  0  0  0  0  0  0  0
  -30.8727   13.2536  -18.6043 N   0  0  0  0  0  0  0  0  0  0  0  0
  -31.4031   14.2360  -19.3491 C   0  0  0  0  0  0  0  0  0  0  0  0
  -31.1351   15.3892  -19.0739 O   0  0  0  0  0  0  0  0  0  0  0  0
  -32.2152   13.9917  -20.3904 N   0  0  0  0  0  0  0  0  0  0  0  0
  -32.5447   12.7282  -20.7294 C   0  0  0  0  0  0  0  0  0  0  0  0
  -33.2849   12.5104  -21.6707 O   0  0  0  0  0  0  0  0  0  0  0  0
  -32.7551   15.1121  -21.1648 C   0  0  0  0  0  0  0  0  0  0  0  0
  -29.9904   13.5970  -17.4864 C   0  0  0  0  0  0  0  0  0  0  0  0
  -28.6664   14.1384  -18.0294 C   0  0  0  0  0  0  0  0  0  0  0  0
  -27.5788   13.0733  -17.8767 C   0  0  0  0  0  0  0  0  0  0  0  0
  -28.2676   15.3905  -17.2457 C   0  0  0  0  0  0  0  0  0  0  0  0
  -30.6012   10.9574  -18.0957 N   0  0  0  0  0  0  0  0  0  0  0  0
  -30.5503    7.8382  -23.9079 C   0  0  0  0  0  0  0  0  0  0  0  0
  -31.3536    6.9531  -24.1129 O   0  0  0  0  0  0  0  0  0  0  0  0
  -29.2508    7.5297  -23.2097 C   0  0  0  0  0  0  0  0  0  0  0  0
  -28.6151   11.6740  -24.3289 H   0  0  0  0  0  0  0  0  0  0  0  0
  -28.7262   10.4177  -23.0505 H   0  0  0  0  0  0  0  0  0  0  0  0
  -30.1435   11.4598  -23.4109 H   0  0  0  0  0  0  0  0  0  0  0  0
  -28.9196    9.2836  -25.1897 H   0  0  0  0  0  0  0  0  0  0  0  0
  -30.1511   10.4585  -25.7641 H   0  0  0  0  0  0  0  0  0  0  0  0
  -32.3997   10.3017  -25.0027 H   0  0  0  0  0  0  0  0  0  0  0  0
  -32.2370   10.2103  -23.2162 H   0  0  0  0  0  0  0  0  0  0  0  0
  -33.3275    8.3991  -26.2661 H   0  0  0  0  0  0  0  0  0  0  0  0
  -34.9622    6.5338  -26.2147 H   0  0  0  0  0  0  0  0  0  0  0  0
  -35.7197    5.6008  -24.0439 H   0  0  0  0  0  0  0  0  0  0  0  0
  -34.8275    6.5174  -21.9181 H   0  0  0  0  0  0  0  0  0  0  0  0
  -32.7114    7.8787  -20.9886 H   0  0  0  0  0  0  0  0  0  0  0  0
  -34.1420   10.2958  -21.3423 H   0  0  0  0  0  0  0  0  0  0  0  0
  -32.6648   10.4697  -22.3493 H   0  0  0  0  0  0  0  0  0  0  0  0
  -31.8966   15.7724  -21.3568 H   0  0  0  0  0  0  0  0  0  0  0  0
  -33.4293   15.6425  -20.4762 H   0  0  0  0  0  0  0  0  0  0  0  0
  -33.2617   14.8055  -22.0917 H   0  0  0  0  0  0  0  0  0  0  0  0
  -30.4712   14.3643  -16.8619 H   0  0  0  0  0  0  0  0  0  0  0  0
  -29.7977   12.6992  -16.8808 H   0  0  0  0  0  0  0  0  0  0  0  0
  -28.7831   14.3934  -19.0931 H   0  0  0  0  0  0  0  0  0  0  0  0
  -27.7995   12.4453  -17.0010 H   0  0  0  0  0  0  0  0  0  0  0  0
  -26.6025   13.5615  -17.7405 H   0  0  0  0  0  0  0  0  0  0  0  0
  -27.5506   12.4451  -18.7793 H   0  0  0  0  0  0  0  0  0  0  0  0
  -28.9245   15.5011  -16.3704 H   0  0  0  0  0  0  0  0  0  0  0  0
  -28.3662   16.2755  -17.8915 H   0  0  0  0  0  0  0  0  0  0  0  0
  -27.2242   15.2971  -16.9103 H   0  0  0  0  0  0  0  0  0  0  0  0
  -30.9316    9.9877  -18.2022 H   0  0  0  0  0  0  0  0  0  0  0  0
  -29.8644   11.1803  -17.4113 H   0  0  0  0  0  0  0  0  0  0  0  0
  -29.3094    8.0582  -22.2468 H   0  0  0  0  0  0  0  0  0  0  0  0
  -28.4763    8.0293  -23.8102 H   0  0  0  0  0  0  0  0  0  0  0  0
  -29.0586    6.4535  -23.0874 H   0  0  0  0  0  0  0  0  0  0  0  0
  1  2  1  0  0  0  0
  1 32  1  0  0  0  0
  1 33  1  0  0  0  0
  1 34  1  0  0  0  0
  2  3  1  0  0  0  0
  2 35  1  0  0  0  0
  2 36  1  0  0  0  0
  3  4  1  0  0  0  0
  3 29  1  0  0  0  0
  4  5  1  0  0  0  0
  4 37  1  0  0  0  0
  4 38  1  0  0  0  0
  5 10  2  0  0  0  0
  5  6  1  0  0  0  0
  6  7  2  0  0  0  0
  6 39  1  0  0  0  0
  7  8  1  0  0  0  0
  7 40  1  0  0  0  0
  8  9  2  0  0  0  0
  8 41  1  0  0  0  0
  9 10  1  0  0  0  0
  9 42  1  0  0  0  0
 10 11  1  0  0  0  0
 11 12  1  0  0  0  0
 11 43  1  0  0  0  0
 12 13  1  0  0  0  0
 12 44  1  0  0  0  0
 12 45  1  0  0  0  0
 13 14  2  0  0  0  0
 13 15  1  0  0  0  0
 15 21  1  0  0  0  0
 15 16  2  0  0  0  0
 16 17  1  0  0  0  0
 16 28  1  0  0  0  0
 17 18  1  0  0  0  0
 17 24  1  0  0  0  0
 18 19  2  0  0  0  0
 18 20  1  0  0  0  0
 20 21  1  0  0  0  0
 20 23  1  0  0  0  0
 21 22  2  0  0  0  0
 23 46  1  0  0  0  0
 23 47  1  0  0  0  0
 23 48  1  0  0  0  0
 24 25  1  0  0  0  0
 24 49  1  0  0  0  0
 24 50  1  0  0  0  0
 25 26  1  0  0  0  0
 25 27  1  0  0  0  0
 25 51  1  0  0  0  0
 26 52  1  0  0  0  0
 26 53  1  0  0  0  0
 26 54  1  0  0  0  0
 27 55  1  0  0  0  0
 27 56  1  0  0  0  0
 27 57  1  0  0  0  0
 28 58  1  0  0  0  0
 28 59  1  0  0  0  0
 29 30  2  0  0  0  0
 29 31  1  0  0  0  0
 31 60  1  0  0  0  0
 31 61  1  0  0  0  0
 31 62  1  0  0  0  0
M  END
> <Name>
ZINC29647851

> <reference>
BDB4946

> <quality>
0.749

> <status>
decoy

> <atoms in reference ligand area>
21

> <score>
-26.9466

$$$$
ZINC10329109
      BALL 1.4.0 (Jan  4 2012, 23:22:29)

 42 44  0999  0  0  0  0  0  0999 V2000
  -28.0523   15.1227  -17.8331 C   0  0  0  0  0  0  0  0  0  0  0  0
  -27.1312   14.1891  -18.6210 C   0  0  0  0  0  0  0  0  0  0  0  0
  -27.9038   13.5033  -19.6598 N   0  0  0  0  0  0  0  0  0  0  0  0
  -28.9443   12.7219  -19.3061 C   0  0  0  0  0  0  0  0  0  0  0  0
  -29.2401   12.5871  -18.1316 O   0  0  0  0  0  0  0  0  0  0  0  0
  -29.6855   12.0633  -20.3046 C   0  0  0  0  0  0  0  0  0  0  0  0
  -29.3234   12.2361  -21.6395 C   0  0  0  0  0  0  0  0  0  0  0  0
  -30.1706   11.5219  -22.3871 N   0  0  0  0  0  0  0  0  0  0  0  0
  -31.0329   10.9094  -21.6179 C   0  0  0  0  0  0  0  0  0  0  0  0
  -30.7726   11.2155  -20.3098 N   0  0  0  0  0  0  0  0  0  0  0  0
  -31.5575   10.6874  -19.1957 C   0  0  0  0  0  0  0  0  0  0  0  0
  -32.8082   10.0391  -19.7227 C   0  0  0  0  0  0  0  0  0  0  0  0
  -33.0122    9.7765  -20.9478 N   0  0  0  0  0  0  0  0  0  0  0  0
  -32.0816   10.0755  -21.9566 N   0  0  0  0  0  0  0  0  0  0  0  0
  -32.2169    9.5275  -23.3084 C   0  0  0  0  0  0  0  0  0  0  0  0
  -33.5638    8.8665  -23.4500 C   0  0  0  0  0  0  0  0  0  0  0  0
  -34.1800    8.5280  -22.4617 O   0  0  0  0  0  0  0  0  0  0  0  0
  -34.0835    8.6513  -24.6748 N   0  0  0  0  0  0  0  0  0  0  0  0
  -35.4171    8.8481  -24.8950 N   0  0  0  0  0  0  0  0  0  0  0  0
  -33.8868    9.6781  -18.7341 C   0  0  0  0  0  0  0  0  0  0  0  0
  -28.2445   13.0516  -21.9387 N   0  0  0  0  0  0  0  0  0  0  0  0
  -27.5642   13.6625  -20.9506 C   0  0  0  0  0  0  0  0  0  0  0  0
  -26.6199   14.3750  -21.2324 O   0  0  0  0  0  0  0  0  0  0  0  0
  -27.8431   13.2501  -23.3335 C   0  0  0  0  0  0  0  0  0  0  0  0
  -27.7956   15.0766  -16.7644 H   0  0  0  0  0  0  0  0  0  0  0  0
  -29.0980   14.8110  -17.9722 H   0  0  0  0  0  0  0  0  0  0  0  0
  -27.9270   16.1539  -18.1950 H   0  0  0  0  0  0  0  0  0  0  0  0
  -26.6921   13.4450  -17.9402 H   0  0  0  0  0  0  0  0  0  0  0  0
  -26.3278   14.7764  -19.0898 H   0  0  0  0  0  0  0  0  0  0  0  0
  -31.8297   11.5085  -18.5162 H   0  0  0  0  0  0  0  0  0  0  0  0
  -30.9617    9.9420  -18.6484 H   0  0  0  0  0  0  0  0  0  0  0  0
  -31.4247    8.7853  -23.4855 H   0  0  0  0  0  0  0  0  0  0  0  0
  -32.1289   10.3404  -24.0442 H   0  0  0  0  0  0  0  0  0  0  0  0
  -33.4751    8.3385  -25.4448 H   0  0  0  0  0  0  0  0  0  0  0  0
  -35.7275    9.5390  -25.5931 H   0  0  0  0  0  0  0  0  0  0  0  0
  -36.1125    8.3056  -24.3629 H   0  0  0  0  0  0  0  0  0  0  0  0
  -33.3918    9.0722  -17.9608 H   0  0  0  0  0  0  0  0  0  0  0  0
  -34.5793    9.0175  -19.2764 H   0  0  0  0  0  0  0  0  0  0  0  0
  -34.3988   10.5536  -18.3083 H   0  0  0  0  0  0  0  0  0  0  0  0
  -26.8255   13.6647  -23.2817 H   0  0  0  0  0  0  0  0  0  0  0  0
  -28.5002   14.0483  -23.7091 H   0  0  0  0  0  0  0  0  0  0  0  0
  -27.8949   12.3392  -23.9481 H   0  0  0  0  0  0  0  0  0  0  0  0
  1  2  1  0  0  0  0
  1 25  1  0  0  0  0
  1 26  1  0  0  0  0
  1 27  1  0  0  0  0
  2  3  1  0  0  0  0
  2 28  1  0  0  0  0
  2 29  1  0  0  0  0
  3 22  1  0  0  0  0
  3  4  1  0  0  0  0
  4  5  2  0  0  0  0
  4  6  1  0  0  0  0
  6 10  1  0  0  0  0
  6  7  2  0  0  0  0
  7  8  1  0  0  0  0
  7 21  1  0  0  0  0
  8  9  2  0  0  0  0
  9 14  1  0  0  0  0
  9 10  1  0  0  0  0
 10 11  1  0  0  0  0
 11 12  1  0  0  0  0
 11 30  1  0  0  0  0
 11 31  1  0  0  0  0
 12 13  2  0  0  0  0
 12 20  1  0  0  0  0
 13 14  1  0  0  0  0
 14 15  1  0  0  0  0
 15 16  1  0  0  0  0
 15 32  1  0  0  0  0
 15 33  1  0  0  0  0
 16 17  2  0  0  0  0
 16 18  1  0  0  0  0
 18 19  1  0  0  0  0
 18 34  1  0  0  0  0
 19 35  1  0  0  0  0
 19 36  1  0  0  0  0
 20 37  1  0  0  0  0
 20 38  1  0  0  0  0
 20 39  1  0  0  0  0
 21 22  1  0  0  0  0
 21 24  1  0  0  0  0
 22 23  2  0  0  0  0
 24 40  1  0  0  0  0
 24 41  1  0  0  0  0
 24 42  1  0  0  0  0
M  END
> <Name>
ZINC10329109

> <reference>
BDB4977

> <quality>
0.673

> <status>
decoy

> <atoms in reference ligand area>
20

> <score>
-26.8624

$$$$
ZINC18517895
      BALL 1.4.0 (Jan  4 2012, 23:22:29)

 50 52  0999  0  0  0  0  0  0999 V2000
  -30.6483    9.9793  -24.6281 C   0  0  0  0  0  0  0  0  0  0  0  0
  -31.8054    9.8976  -23.8752 C   0  0  0  0  0  0  0  0  0  0  0  0
  -31.7751   10.1903  -22.5258 C   0  0  0  0  0  0  0  0  0  0  0  0
  -30.5809   10.5665  -21.9251 C   0  0  0  0  0  0  0  0  0  0  0  0
  -29.4217   10.6524  -22.6850 C   0  0  0  0  0  0  0  0  0  0  0  0
  -29.4577   10.3539  -24.0329 C   0  0  0  0  0  0  0  0  0  0  0  0
  -30.5469   10.8646  -20.5569 N   0  0  0  0  0  0  0  0  0  0  0  0
  -31.5849   10.7329  -19.6862 C   0  0  0  0  0  0  0  0  0  0  0  0
  -31.1079   11.1417  -18.4305 C   0  0  0  0  0  0  0  0  0  0  0  0
  -29.7611   11.5155  -18.5962 C   0  0  0  0  0  0  0  0  0  0  0  0
  -29.4394   11.3493  -19.8499 N   0  0  0  0  0  0  0  0  0  0  0  0
  -32.0307   11.1007  -17.2963 C   0  0  0  0  0  0  0  0  0  0  0  0
  -31.6774   11.4420  -16.1814 O   0  0  0  0  0  0  0  0  0  0  0  0
  -33.2920   10.6690  -17.5318 N   0  0  0  0  0  0  0  0  0  0  0  0
  -33.6643   10.2931  -18.7814 C   0  0  0  0  0  0  0  0  0  0  0  0
  -32.8571   10.3227  -19.8012 N   0  0  0  0  0  0  0  0  0  0  0  0
  -35.0783    9.8191  -18.9977 C   0  0  0  0  0  0  0  0  0  0  0  0
  -35.1037    8.2897  -19.0333 C   0  0  0  0  0  0  0  0  0  0  0  0
  -35.6372    7.8270  -20.3647 C   0  0  0  0  0  0  0  0  0  0  0  0
  -36.8232    7.6487  -20.5112 O   0  0  0  0  0  0  0  0  0  0  0  0
  -34.7948    7.6131  -21.3876 O   0  0  0  0  0  0  0  0  0  0  0  0
  -35.1754    6.5983  -22.3539 C   0  0  0  0  0  0  0  0  0  0  0  0
  -35.3008    7.2257  -23.7182 C   0  0  0  0  0  0  0  0  0  0  0  0
  -35.0902    8.4110  -23.8621 O   0  0  0  0  0  0  0  0  0  0  0  0
  -35.6471    6.4693  -24.7785 N   0  0  0  0  0  0  0  0  0  0  0  0
  -35.7592    7.0303  -25.9988 C   0  0  0  0  0  0  0  0  0  0  0  0
  -35.7285    8.2396  -26.1168 O   0  0  0  0  0  0  0  0  0  0  0  0
  -35.9055    6.2505  -27.0882 N   0  0  0  0  0  0  0  0  0  0  0  0
  -36.8277    6.6477  -28.1550 C   0  0  0  0  0  0  0  0  0  0  0  0
  -36.1107    6.5698  -29.5043 C   0  0  0  0  0  0  0  0  0  0  0  0
  -35.4815    5.3263  -29.6271 F   0  0  0  0  0  0  0  0  0  0  0  0
  -37.0418    6.7253  -30.5368 F   0  0  0  0  0  0  0  0  0  0  0  0
  -35.1531    7.5867  -29.5830 F   0  0  0  0  0  0  0  0  0  0  0  0
  -30.6751    9.7459  -25.7027 H   0  0  0  0  0  0  0  0  0  0  0  0
  -32.7509    9.5991  -24.3515 H   0  0  0  0  0  0  0  0  0  0  0  0
  -32.6959   10.1254  -21.9275 H   0  0  0  0  0  0  0  0  0  0  0  0
  -28.4758   10.9579  -22.2138 H   0  0  0  0  0  0  0  0  0  0  0  0
  -28.5382   10.4141  -24.6336 H   0  0  0  0  0  0  0  0  0  0  0  0
  -29.0934   11.8847  -17.8038 H   0  0  0  0  0  0  0  0  0  0  0  0
  -33.9718   10.6257  -16.7592 H   0  0  0  0  0  0  0  0  0  0  0  0
  -35.7150   10.1767  -18.1750 H   0  0  0  0  0  0  0  0  0  0  0  0
  -35.4566   10.2137  -19.9523 H   0  0  0  0  0  0  0  0  0  0  0  0
  -35.7524    7.9138  -18.2285 H   0  0  0  0  0  0  0  0  0  0  0  0
  -34.0836    7.9026  -18.8931 H   0  0  0  0  0  0  0  0  0  0  0  0
  -36.1406    6.1576  -22.0637 H   0  0  0  0  0  0  0  0  0  0  0  0
  -34.4068    5.8118  -22.3818 H   0  0  0  0  0  0  0  0  0  0  0  0
  -35.8260    5.4623  -24.6563 H   0  0  0  0  0  0  0  0  0  0  0  0
  -35.3688    5.3753  -27.1709 H   0  0  0  0  0  0  0  0  0  0  0  0
  -37.1690    7.6789  -27.9811 H   0  0  0  0  0  0  0  0  0  0  0  0
  -37.6946    5.9707  -28.1614 H   0  0  0  0  0  0  0  0  0  0  0  0
  1  6  2  0  0  0  0
  1  2  1  0  0  0  0
  1 34  1  0  0  0  0
  2  3  2  0  0  0  0
  2 35  1  0  0  0  0
  3  4  1  0  0  0  0
  3 36  1  0  0  0  0
  4  5  2  0  0  0  0
  4  7  1  0  0  0  0
  5  6  1  0  0  0  0
  5 37  1  0  0  0  0
  6 38  1  0  0  0  0
  7 11  1  0  0  0  0
  7  8  1  0  0  0  0
  8 16  1  0  0  0  0
  8  9  2  0  0  0  0
  9 10  1  0  0  0  0
  9 12  1  0  0  0  0
 10 11  2  0  0  0  0
 10 39  1  0  0  0  0
 12 13  2  0  0  0  0
 12 14  1  0  0  0  0
 14 15  1  0  0  0  0
 14 40  1  0  0  0  0
 15 16  2  0  0  0  0
 15 17  1  0  0  0  0
 17 18  1  0  0  0  0
 17 41  1  0  0  0  0
 17 42  1  0  0  0  0
 18 19  1  0  0  0  0
 18 43  1  0  0  0  0
 18 44  1  0  0  0  0
 19 20  2  0  0  0  0
 19 21  1  0  0  0  0
 21 22  1  0  0  0  0
 22 23  1  0  0  0  0
 22 45  1  0  0  0  0
 22 46  1  0  0  0  0
 23 24  2  0  0  0  0
 23 25  1  0  0  0  0
 25 26  1  0  0  0  0
 25 47  1  0  0  0  0
 26 27  2  0  0  0  0
 26 28  1  0  0  0  0
 28 29  1  0  0  0  0
 28 48  1  0  0  0  0
 29 30  1  0  0  0  0
 29 49  1  0  0  0  0
 29 50  1  0  0  0  0
 30 31  1  0  0  0  0
 30 32  1  0  0  0  0
 30 33  1  0  0  0  0
M  END
> <Name>
ZINC18517895

> <reference>
BDB4972

> <quality>
0.698

> <status>
decoy

> <atoms in reference ligand area>
16

> <score>
-26.8524

$$$$
ZINC01731417
      BALL 1.4.0 (Jan  4 2012, 23:22:29)

 35 35  0999  0  0  0  0  0  0999 V2000
  -33.6717   11.2471  -21.2520 C   0  0  0  0  0  0  0  0  0  0  0  0
  -33.7980   12.6013  -20.6029 C   0  0  0  0  0  0  0  0  0  0  0  0
  -33.0659   12.5489  -18.9561 Cl  0  0  0  0  0  0  0  0  0  0  0  0
  -32.4920   10.8731  -21.8255 N   0  0  0  0  0  0  0  0  0  0  0  0
  -31.5242   10.6325  -21.1262 O   0  0  0  0  0  0  0  0  0  0  0  0
  -30.3677   11.2316  -21.4578 C   0  0  0  0  0  0  0  0  0  0  0  0
  -29.8713   11.0325  -22.5494 O   0  0  0  0  0  0  0  0  0  0  0  0
  -29.7006   12.1306  -20.4968 C   0  0  0  0  0  0  0  0  0  0  0  0
  -30.0104   12.0549  -19.1364 C   0  0  0  0  0  0  0  0  0  0  0  0
  -29.3798   12.8945  -18.2375 C   0  0  0  0  0  0  0  0  0  0  0  0
  -28.4451   13.8231  -18.6882 C   0  0  0  0  0  0  0  0  0  0  0  0
  -28.1385   13.9041  -20.0440 C   0  0  0  0  0  0  0  0  0  0  0  0
  -28.7620   13.0631  -20.9462 C   0  0  0  0  0  0  0  0  0  0  0  0
  -27.2248   14.8120  -20.4807 O   0  0  0  0  0  0  0  0  0  0  0  0
  -26.1876   14.3283  -21.3363 C   0  0  0  0  0  0  0  0  0  0  0  0
  -27.8311   14.6515  -17.8031 O   0  0  0  0  0  0  0  0  0  0  0  0
  -28.3379   15.9838  -17.7023 C   0  0  0  0  0  0  0  0  0  0  0  0
  -29.6764   12.8173  -16.9125 O   0  0  0  0  0  0  0  0  0  0  0  0
  -31.0600   12.8339  -16.5555 C   0  0  0  0  0  0  0  0  0  0  0  0
  -34.6618   10.3798  -21.2989 N   0  0  0  0  0  0  0  0  0  0  0  0
  -34.8609   12.8728  -20.5223 H   0  0  0  0  0  0  0  0  0  0  0  0
  -33.2732   13.3510  -21.2132 H   0  0  0  0  0  0  0  0  0  0  0  0
  -32.4195   10.7942  -22.8499 H   0  0  0  0  0  0  0  0  0  0  0  0
  -30.7556   11.3280  -18.7811 H   0  0  0  0  0  0  0  0  0  0  0  0
  -28.5195   13.1277  -22.0172 H   0  0  0  0  0  0  0  0  0  0  0  0
  -25.9463   15.1511  -22.0253 H   0  0  0  0  0  0  0  0  0  0  0  0
  -26.6293   13.5121  -21.9268 H   0  0  0  0  0  0  0  0  0  0  0  0
  -25.3000   13.9918  -20.7805 H   0  0  0  0  0  0  0  0  0  0  0  0
  -29.2536   16.0132  -18.3112 H   0  0  0  0  0  0  0  0  0  0  0  0
  -27.5926   16.6353  -18.1821 H   0  0  0  0  0  0  0  0  0  0  0  0
  -28.5324   16.2875  -16.6631 H   0  0  0  0  0  0  0  0  0  0  0  0
  -31.1548   12.2080  -15.6559 H   0  0  0  0  0  0  0  0  0  0  0  0
  -31.5966   12.3318  -17.3739 H   0  0  0  0  0  0  0  0  0  0  0  0
  -31.4428   13.8507  -16.3837 H   0  0  0  0  0  0  0  0  0  0  0  0
  -35.5573   10.6521  -20.8689 H   0  0  0  0  0  0  0  0  0  0  0  0
  1  2  1  0  0  0  0
  1  4  1  0  0  0  0
  1 20  2  0  0  0  0
  2  3  1  0  0  0  0
  2 21  1  0  0  0  0
  2 22  1  0  0  0  0
  4  5  1  0  0  0  0
  4 23  1  0  0  0  0
  5  6  1  0  0  0  0
  6  7  2  0  0  0  0
  6  8  1  0  0  0  0
  8 13  2  0  0  0  0
  8  9  1  0  0  0  0
  9 10  2  0  0  0  0
  9 24  1  0  0  0  0
 10 11  1  0  0  0  0
 10 18  1  0  0  0  0
 11 12  2  0  0  0  0
 11 16  1  0  0  0  0
 12 13  1  0  0  0  0
 12 14  1  0  0  0  0
 13 25  1  0  0  0  0
 14 15  1  0  0  0  0
 15 26  1  0  0  0  0
 15 27  1  0  0  0  0
 15 28  1  0  0  0  0
 16 17  1  0  0  0  0
 17 29  1  0  0  0  0
 17 30  1  0  0  0  0
 17 31  1  0  0  0  0
 18 19  1  0  0  0  0
 19 32  1  0  0  0  0
 19 33  1  0  0  0  0
 19 34  1  0  0  0  0
 20 35  1  0  0  0  0
M  END
> <Name>
ZINC01731417

> <reference>
BDB4986

> <quality>
0.750

> <status>
decoy

> <atoms in reference ligand area>
21

> <score>
-26.4942

$$$$
ZINC28069362
      BALL 1.4.0 (Jan  4 2012, 23:22:29)

 46 47  0999  0  0  0  0  0  0999 V2000
  -30.5215    4.4150  -30.5015 C   0  0  0  0  0  0  0  0  0  0  0  0
  -31.5516    4.6155  -29.3881 C   0  0  0  0  0  0  0  0  0  0  0  0
  -30.8968    5.3416  -28.2098 C   0  0  0  0  0  0  0  0  0  0  0  0
  -31.9464    5.5935  -27.1250 C   0  0  0  0  0  0  0  0  0  0  0  0
  -33.0382    6.4052  -27.6777 N   0  3  0  0  0  0  0  0  0  0  0  0
  -33.7128    5.7081  -28.7800 C   0  0  0  0  0  0  0  0  0  0  0  0
  -32.7159    5.4595  -29.9143 C   0  0  0  0  0  0  0  0  0  0  0  0
  -33.9957    6.7833  -26.6297 C   0  0  0  0  0  0  0  0  0  0  0  0
  -33.4438    7.9713  -25.8392 C   0  0  0  0  0  0  0  0  0  0  0  0
  -33.0585    7.5123  -24.4314 C   0  0  0  0  0  0  0  0  0  0  0  0
  -32.7574    8.6816  -23.6018 N   0  0  0  0  0  0  0  0  0  0  0  0
  -31.5559    9.2847  -23.6975 C   0  0  0  0  0  0  0  0  0  0  0  0
  -30.7216    8.8581  -24.4725 O   0  0  0  0  0  0  0  0  0  0  0  0
  -31.2529   10.4622  -22.8621 C   0  0  0  0  0  0  0  0  0  0  0  0
  -32.1127   10.8395  -21.8238 C   0  0  0  0  0  0  0  0  0  0  0  0
  -31.7834   11.9514  -21.0696 C   0  0  0  0  0  0  0  0  0  0  0  0
  -30.6259   12.6518  -21.3595 C   0  0  0  0  0  0  0  0  0  0  0  0
  -29.8300   12.2786  -22.3426 N   0  0  0  0  0  0  0  0  0  0  0  0
  -30.0979   11.2239  -23.0938 C   0  0  0  0  0  0  0  0  0  0  0  0
  -29.2518   10.8766  -24.0927 O   0  0  0  0  0  0  0  0  0  0  0  0
  -32.6622   12.3883  -19.9615 N   0  0  0  0  0  0  0  0  0  0  0  0
  -32.1894   12.6127  -18.8616 O   0  0  0  0  0  0  0  0  0  0  0  0
  -33.8579   12.5234  -20.1495 O   0  0  0  0  0  0  0  0  0  0  0  0
  -29.6089    3.9672  -30.0813 H   0  0  0  0  0  0  0  0  0  0  0  0
  -30.2768    5.3868  -30.9550 H   0  0  0  0  0  0  0  0  0  0  0  0
  -30.9364    3.7467  -31.2704 H   0  0  0  0  0  0  0  0  0  0  0  0
  -31.9249    3.6352  -29.0573 H   0  0  0  0  0  0  0  0  0  0  0  0
  -30.0873    4.7201  -27.7995 H   0  0  0  0  0  0  0  0  0  0  0  0
  -30.4857    6.3028  -28.5521 H   0  0  0  0  0  0  0  0  0  0  0  0
  -31.4833    6.1281  -26.2826 H   0  0  0  0  0  0  0  0  0  0  0  0
  -32.3475    4.6317  -26.7726 H   0  0  0  0  0  0  0  0  0  0  0  0
  -32.6258    7.2691  -28.0579 H   0  0  0  0  0  0  0  0  0  0  0  0
  -34.5435    6.3256  -29.1519 H   0  0  0  0  0  0  0  0  0  0  0  0
  -34.1047    4.7455  -28.4197 H   0  0  0  0  0  0  0  0  0  0  0  0
  -33.2186    4.9238  -30.7331 H   0  0  0  0  0  0  0  0  0  0  0  0
  -32.3338    6.4225  -30.2841 H   0  0  0  0  0  0  0  0  0  0  0  0
  -34.9535    7.0643  -27.0919 H   0  0  0  0  0  0  0  0  0  0  0  0
  -34.1521    5.9325  -25.9501 H   0  0  0  0  0  0  0  0  0  0  0  0
  -32.5554    8.3709  -26.3501 H   0  0  0  0  0  0  0  0  0  0  0  0
  -34.2115    8.7561  -25.7709 H   0  0  0  0  0  0  0  0  0  0  0  0
  -33.8946    6.9530  -23.9863 H   0  0  0  0  0  0  0  0  0  0  0  0
  -32.1714    6.8641  -24.4859 H   0  0  0  0  0  0  0  0  0  0  0  0
  -33.4641    9.0429  -22.9453 H   0  0  0  0  0  0  0  0  0  0  0  0
  -33.0274   10.2662  -21.6130 H   0  0  0  0  0  0  0  0  0  0  0  0
  -30.3649   13.5359  -20.7592 H   0  0  0  0  0  0  0  0  0  0  0  0
  -28.9763   12.8235  -22.5303 H   0  0  0  0  0  0  0  0  0  0  0  0
  1  2  1  0  0  0  0
  1 24  1  0  0  0  0
  1 25  1  0  0  0  0
  1 26  1  0  0  0  0
  2  7  1  0  0  0  0
  2  3  1  0  0  0  0
  2 27  1  0  0  0  0
  3  4  1  0  0  0  0
  3 28  1  0  0  0  0
  3 29  1  0  0  0  0
  4  5  1  0  0  0  0
  4 30  1  0  0  0  0
  4 31  1  0  0  0  0
  5  6  1  0  0  0  0
  5  8  1  0  0  0  0
  5 32  1  0  0  0  0
  6  7  1  0  0  0  0
  6 33  1  0  0  0  0
  6 34  1  0  0  0  0
  7 35  1  0  0  0  0
  7 36  1  0  0  0  0
  8  9  1  0  0  0  0
  8 37  1  0  0  0  0
  8 38  1  0  0  0  0
  9 10  1  0  0  0  0
  9 39  1  0  0  0  0
  9 40  1  0  0  0  0
 10 11  1  0  0  0  0
 10 41  1  0  0  0  0
 10 42  1  0  0  0  0
 11 12  1  0  0  0  0
 11 43  1  0  0  0  0
 12 13  2  0  0  0  0
 12 14  1  0  0  0  0
 14 15  2  0  0  0  0
 14 19  1  0  0  0  0
 15 16  1  0  0  0  0
 15 44  1  0  0  0  0
 16 17  2  0  0  0  0
 16 21  1  0  0  0  0
 17 18  1  0  0  0  0
 17 45  1  0  0  0  0
 18 19  1  0  0  0  0
 18 46  1  0  0  0  0
 19 20  2  0  0  0  0
 21 22  2  0  0  0  0
 21 23  2  0  0  0  0
M  END
> <Name>
ZINC28069362

> <reference>
BDB5195

> <quality>
0.744

> <status>
decoy

> <atoms in reference ligand area>
13

> <score>
-26.3984

$$$$
ZINC05425837
      BALL 1.4.0 (Jan  4 2012, 23:22:29)

 39 40  0999  0  0  0  0  0  0999 V2000
  -32.0550    9.2263  -22.9401 C   0  0  0  0  0  0  0  0  0  0  0  0
  -31.2869    9.6136  -24.2068 C   0  0  0  0  0  0  0  0  0  0  0  0
  -29.8574   10.0093  -23.8299 C   0  0  0  0  0  0  0  0  0  0  0  0
  -30.5835   10.7758  -21.6487 C   0  0  0  0  0  0  0  0  0  0  0  0
  -32.0347   10.4030  -21.9605 C   0  0  0  0  0  0  0  0  0  0  0  0
  -28.5373   11.6351  -22.6156 C   0  0  0  0  0  0  0  0  0  0  0  0
  -28.6247   12.9529  -21.8431 C   0  0  0  0  0  0  0  0  0  0  0  0
  -28.1694   12.7430  -20.4665 N   0  0  0  0  0  0  0  0  0  0  0  0
  -28.8190   13.2865  -19.4748 C   0  0  0  0  0  0  0  0  0  0  0  0
  -29.6185   14.5328  -19.6172 C   0  0  0  0  0  0  0  0  0  0  0  0
  -30.5880   14.7657  -18.6923 C   0  0  0  0  0  0  0  0  0  0  0  0
  -30.8325   13.9518  -17.6708 N   0  0  0  0  0  0  0  0  0  0  0  0
  -30.0692   12.9527  -17.3236 C   0  0  0  0  0  0  0  0  0  0  0  0
  -28.8251   12.7087  -18.0860 C   0  0  0  0  0  0  0  0  0  0  0  0
  -27.8136   12.0458  -17.5927 N   0  0  0  0  0  0  0  0  0  0  0  0
  -29.3834   15.4253  -20.6556 N   0  0  0  0  0  0  0  0  0  0  0  0
  -28.2610   15.2487  -21.5007 O   0  0  0  0  0  0  0  0  0  0  0  0
  -30.2662   16.5118  -20.8688 O   0  0  0  0  0  0  0  0  0  0  0  0
  -29.9066   11.1617  -22.9051 N   0  3  0  0  0  0  0  0  0  0  0  0
  -33.0953    8.9828  -23.2021 H   0  0  0  0  0  0  0  0  0  0  0  0
  -31.5772    8.3518  -22.4743 H   0  0  0  0  0  0  0  0  0  0  0  0
  -31.2604    8.7572  -24.8966 H   0  0  0  0  0  0  0  0  0  0  0  0
  -31.7859   10.4640  -24.6945 H   0  0  0  0  0  0  0  0  0  0  0  0
  -29.3008   10.2892  -24.7364 H   0  0  0  0  0  0  0  0  0  0  0  0
  -29.3593    9.1623  -23.3355 H   0  0  0  0  0  0  0  0  0  0  0  0
  -30.5637   11.6216  -20.9457 H   0  0  0  0  0  0  0  0  0  0  0  0
  -30.0679    9.9118  -21.2041 H   0  0  0  0  0  0  0  0  0  0  0  0
  -32.5474   10.1167  -21.0304 H   0  0  0  0  0  0  0  0  0  0  0  0
  -32.5459   11.2659  -22.4123 H   0  0  0  0  0  0  0  0  0  0  0  0
  -28.0096   10.8852  -22.0080 H   0  0  0  0  0  0  0  0  0  0  0  0
  -27.9965   11.7968  -23.5597 H   0  0  0  0  0  0  0  0  0  0  0  0
  -27.9868   13.7059  -22.3289 H   0  0  0  0  0  0  0  0  0  0  0  0
  -29.6667   13.3055  -21.8341 H   0  0  0  0  0  0  0  0  0  0  0  0
  -31.2005   15.6736  -18.7949 H   0  0  0  0  0  0  0  0  0  0  0  0
  -30.3453   12.3037  -16.4794 H   0  0  0  0  0  0  0  0  0  0  0  0
  -26.9833   11.9203  -18.1891 H   0  0  0  0  0  0  0  0  0  0  0  0
  -27.7589   16.0999  -21.4403 H   0  0  0  0  0  0  0  0  0  0  0  0
  -30.5698   16.4145  -21.8061 H   0  0  0  0  0  0  0  0  0  0  0  0
  -30.4380   11.9237  -23.3499 H   0  0  0  0  0  0  0  0  0  0  0  0
  1  5  1  0  0  0  0
  1  2  1  0  0  0  0
  1 20  1  0  0  0  0
  1 21  1  0  0  0  0
  2  3  1  0  0  0  0
  2 22  1  0  0  0  0
  2 23  1  0  0  0  0
  3 19  1  0  0  0  0
  3 24  1  0  0  0  0
  3 25  1  0  0  0  0
  4  5  1  0  0  0  0
  4 19  1  0  0  0  0
  4 26  1  0  0  0  0
  4 27  1  0  0  0  0
  5 28  1  0  0  0  0
  5 29  1  0  0  0  0
  6  7  1  0  0  0  0
  6 19  1  0  0  0  0
  6 30  1  0  0  0  0
  6 31  1  0  0  0  0
  7  8  1  0  0  0  0
  7 32  1  0  0  0  0
  7 33  1  0  0  0  0
  8  9  2  0  0  0  0
  9 14  1  0  0  0  0
  9 10  1  0  0  0  0
 10 11  2  0  0  0  0
 10 16  1  0  0  0  0
 11 12  1  0  0  0  0
 11 34  1  0  0  0  0
 12 13  2  0  0  0  0
 13 14  1  0  0  0  0
 13 35  1  0  0  0  0
 14 15  2  0  0  0  0
 15 36  1  0  0  0  0
 16 17  1  0  0  0  0
 16 18  1  0  0  0  0
 17 37  1  0  0  0  0
 18 38  1  0  0  0  0
 19 39  1  0  0  0  0
M  END
> <Name>
ZINC05425837

> <reference>
BDB5233

> <quality>
0.734

> <status>
decoy

> <atoms in reference ligand area>
22

> <score>
-26.3912

$$$$
ZINC31687708
      BALL 1.4.0 (Jan  4 2012, 23:22:29)

 31 31  0999  0  0  0  0  0  0999 V2000
  -30.6110   11.8364  -19.7514 C   0  0  0  0  0  0  0  0  0  0  0  0
  -30.4024   11.3650  -21.1227 N   0  0  0  0  0  0  0  0  0  0  0  0
  -31.2799   10.4539  -21.6793 C   0  0  0  0  0  0  0  0  0  0  0  0
  -31.0646   10.0190  -22.9816 C   0  0  0  0  0  0  0  0  0  0  0  0
  -29.9651   10.5187  -23.6867 C   0  0  0  0  0  0  0  0  0  0  0  0
  -29.7542   10.1533  -24.8314 O   0  0  0  0  0  0  0  0  0  0  0  0
  -29.1403   11.4054  -23.0974 N   0  0  0  0  0  0  0  0  0  0  0  0
  -29.3539   11.8164  -21.8353 C   0  0  0  0  0  0  0  0  0  0  0  0
  -28.5879   12.6139  -21.3298 O   0  0  0  0  0  0  0  0  0  0  0  0
  -27.9898   11.9252  -23.8406 C   0  0  0  0  0  0  0  0  0  0  0  0
  -32.3233    9.9960  -20.9732 N   0  0  0  0  0  0  0  0  0  0  0  0
  -32.6959    8.7256  -21.0865 C   0  0  0  0  0  0  0  0  0  0  0  0
  -31.8364    7.8039  -21.6319 N   0  3  0  0  0  0  0  0  0  0  0  0
  -33.9105    8.3439  -20.6686 N   0  0  0  0  0  0  0  0  0  0  0  0
  -34.9896    8.9687  -21.1124 C   0  0  0  0  0  0  0  0  0  0  0  0
  -34.8751    9.9258  -22.0781 N   0  0  0  0  0  0  0  0  0  0  0  0
  -36.2165    8.6558  -20.6040 N   0  0  0  0  0  0  0  0  0  0  0  0
  -29.6011   11.9939  -19.3449 H   0  0  0  0  0  0  0  0  0  0  0  0
  -31.0484   10.9804  -19.2166 H   0  0  0  0  0  0  0  0  0  0  0  0
  -31.2366   12.7385  -19.6814 H   0  0  0  0  0  0  0  0  0  0  0  0
  -31.7472    9.2944  -23.4497 H   0  0  0  0  0  0  0  0  0  0  0  0
  -27.4474   11.0363  -24.1952 H   0  0  0  0  0  0  0  0  0  0  0  0
  -27.3563   12.4178  -23.0882 H   0  0  0  0  0  0  0  0  0  0  0  0
  -28.2642   12.6022  -24.6630 H   0  0  0  0  0  0  0  0  0  0  0  0
  -32.8361   10.6290  -20.3429 H   0  0  0  0  0  0  0  0  0  0  0  0
  -30.9028    8.0973  -21.9532 H   0  0  0  0  0  0  0  0  0  0  0  0
  -32.1252    6.8191  -21.7198 H   0  0  0  0  0  0  0  0  0  0  0  0
  -33.9800   10.0557  -22.5708 H   0  0  0  0  0  0  0  0  0  0  0  0
  -35.6837   10.5184  -22.3143 H   0  0  0  0  0  0  0  0  0  0  0  0
  -36.3605    7.7565  -20.1228 H   0  0  0  0  0  0  0  0  0  0  0  0
  -36.9987    9.3187  -20.7015 H   0  0  0  0  0  0  0  0  0  0  0  0
  1  2  1  0  0  0  0
  1 18  1  0  0  0  0
  1 19  1  0  0  0  0
  1 20  1  0  0  0  0
  2  8  1  0  0  0  0
  2  3  1  0  0  0  0
  3  4  2  0  0  0  0
  3 11  1  0  0  0  0
  4  5  1  0  0  0  0
  4 21  1  0  0  0  0
  5  6  2  0  0  0  0
  5  7  1  0  0  0  0
  7  8  1  0  0  0  0
  7 10  1  0  0  0  0
  8  9  2  0  0  0  0
 10 22  1  0  0  0  0
 10 23  1  0  0  0  0
 10 24  1  0  0  0  0
 11 12  1  0  0  0  0
 11 25  1  0  0  0  0
 12 13  2  0  0  0  0
 12 14  1  0  0  0  0
 13 26  1  0  0  0  0
 13 27  1  0  0  0  0
 14 15  2  0  0  0  0
 15 16  1  0  0  0  0
 15 17  1  0  0  0  0
 16 28  1  0  0  0  0
 16 29  1  0  0  0  0
 17 30  1  0  0  0  0
 17 31  1  0  0  0  0
M  END
> <Name>
ZINC31687708

> <reference>
BDB5008

> <quality>
0.766

> <status>
decoy

> <atoms in reference ligand area>
16

> <score>
-26.391

$$$$
ZINC05677679
      BALL 1.4.0 (Jan  4 2012, 23:22:29)

 46 47  0999  0  0  0  0  0  0999 V2000
  -30.5244   12.7601  -21.5353 C   0  0  0  0  0  0  0  0  0  0  0  0
  -29.1698   12.0487  -21.5312 C   0  0  0  0  0  0  0  0  0  0  0  0
  -28.4502   12.3580  -22.8432 C   0  0  0  0  0  0  0  0  0  0  0  0
  -27.5795   13.6326  -22.6973 C   0  0  0  0  0  0  0  0  0  0  0  0
  -26.9223   13.3613  -20.9929 S   0  0  0  0  0  0  0  0  0  0  0  0
  -26.7658   14.6173  -20.3470 O   0  0  0  0  0  0  0  0  0  0  0  0
  -25.8259   12.4593  -21.0529 O   0  0  0  0  0  0  0  0  0  0  0  0
  -28.3825   12.4930  -20.2829 C   0  0  0  0  0  0  0  0  0  0  0  0
  -29.4001   10.6041  -21.4513 N   0  0  0  0  0  0  0  0  0  0  0  0
  -30.4760   10.0590  -22.0527 C   0  0  0  0  0  0  0  0  0  0  0  0
  -31.0469   10.7023  -23.5330 S   0  0  0  0  0  0  0  0  0  0  0  0
  -31.1027    9.0076  -21.4886 N   0  0  0  0  0  0  0  0  0  0  0  0
  -32.4815    8.6877  -21.8664 C   0  0  0  0  0  0  0  0  0  0  0  0
  -32.4832    7.9275  -23.1942 C   0  0  0  0  0  0  0  0  0  0  0  0
  -33.9646    7.3225  -25.0114 C   0  0  0  0  0  0  0  0  0  0  0  0
  -35.0210    6.2310  -25.2511 C   0  0  0  0  0  0  0  0  0  0  0  0
  -35.3608    6.1475  -26.7587 C   0  0  0  0  0  0  0  0  0  0  0  0
  -35.0327    7.8606  -27.3421 S   0  0  0  0  0  0  0  0  0  0  0  0
  -33.9766    7.8310  -28.2923 O   0  0  0  0  0  0  0  0  0  0  0  0
  -36.2665    8.4761  -27.6859 O   0  0  0  0  0  0  0  0  0  0  0  0
  -34.4088    8.6025  -25.7752 C   0  0  0  0  0  0  0  0  0  0  0  0
  -33.8744    7.6094  -23.5672 N   0  3  0  0  0  0  0  0  0  0  0  0
  -31.2661   12.1555  -20.9930 H   0  0  0  0  0  0  0  0  0  0  0  0
  -30.8615   12.9167  -22.5707 H   0  0  0  0  0  0  0  0  0  0  0  0
  -30.4213   13.7358  -21.0381 H   0  0  0  0  0  0  0  0  0  0  0  0
  -29.1933   12.5146  -23.6390 H   0  0  0  0  0  0  0  0  0  0  0  0
  -27.8075   11.5078  -23.1152 H   0  0  0  0  0  0  0  0  0  0  0  0
  -26.7531   13.6301  -23.4234 H   0  0  0  0  0  0  0  0  0  0  0  0
  -28.2010   14.5399  -22.7199 H   0  0  0  0  0  0  0  0  0  0  0  0
  -28.0510   11.6183  -19.7042 H   0  0  0  0  0  0  0  0  0  0  0  0
  -28.9783   13.1956  -19.6818 H   0  0  0  0  0  0  0  0  0  0  0  0
  -28.7397   10.0051  -20.9357 H   0  0  0  0  0  0  0  0  0  0  0  0
  -30.6122    8.4289  -20.7918 H   0  0  0  0  0  0  0  0  0  0  0  0
  -32.9400    8.0625  -21.0860 H   0  0  0  0  0  0  0  0  0  0  0  0
  -33.0579    9.6180  -21.9766 H   0  0  0  0  0  0  0  0  0  0  0  0
  -32.0274    8.5525  -23.9762 H   0  0  0  0  0  0  0  0  0  0  0  0
  -31.9101    6.9949  -23.0858 H   0  0  0  0  0  0  0  0  0  0  0  0
  -32.9794    6.9900  -25.3703 H   0  0  0  0  0  0  0  0  0  0  0  0
  -34.6284    5.2613  -24.9111 H   0  0  0  0  0  0  0  0  0  0  0  0
  -35.9325    6.4723  -24.6845 H   0  0  0  0  0  0  0  0  0  0  0  0
  -36.4230    5.9009  -26.9030 H   0  0  0  0  0  0  0  0  0  0  0  0
  -34.6862    5.4436  -27.2682 H   0  0  0  0  0  0  0  0  0  0  0  0
  -33.5468    9.2527  -25.9854 H   0  0  0  0  0  0  0  0  0  0  0  0
  -35.2300    9.1084  -25.2465 H   0  0  0  0  0  0  0  0  0  0  0  0
  -34.1906    6.7856  -23.0357 H   0  0  0  0  0  0  0  0  0  0  0  0
  -34.4813    8.4101  -23.3405 H   0  0  0  0  0  0  0  0  0  0  0  0
  1  2  1  0  0  0  0
  1 23  1  0  0  0  0
  1 24  1  0  0  0  0
  1 25  1  0  0  0  0
  2  8  1  0  0  0  0
  2  3  1  0  0  0  0
  2  9  1  0  0  0  0
  3  4  1  0  0  0  0
  3 26  1  0  0  0  0
  3 27  1  0  0  0  0
  4  5  1  0  0  0  0
  4 28  1  0  0  0  0
  4 29  1  0  0  0  0
  5  6  2  0  0  0  0
  5  7  2  0  0  0  0
  5  8  1  0  0  0  0
  8 30  1  0  0  0  0
  8 31  1  0  0  0  0
  9 10  1  0  0  0  0
  9 32  1  0  0  0  0
 10 11  2  0  0  0  0
 10 12  1  0  0  0  0
 12 13  1  0  0  0  0
 12 33  1  0  0  0  0
 13 14  1  0  0  0  0
 13 34  1  0  0  0  0
 13 35  1  0  0  0  0
 14 22  1  0  0  0  0
 14 36  1  0  0  0  0
 14 37  1  0  0  0  0
 15 21  1  0  0  0  0
 15 16  1  0  0  0  0
 15 22  1  0  0  0  0
 15 38  1  0  0  0  0
 16 17  1  0  0  0  0
 16 39  1  0  0  0  0
 16 40  1  0  0  0  0
 17 18  1  0  0  0  0
 17 41  1  0  0  0  0
 17 42  1  0  0  0  0
 18 19  2  0  0  0  0
 18 20  2  0  0  0  0
 18 21  1  0  0  0  0
 21 43  1  0  0  0  0
 21 44  1  0  0  0  0
 22 45  1  0  0  0  0
 22 46  1  0  0  0  0
M  END
> <Name>
ZINC05677679

> <reference>
BDB4952

> <quality>
0.712

> <status>
decoy

> <atoms in reference ligand area>
19

> <score>
-26.3829

$$$$
ZINC15910386
      BALL 1.4.0 (Jan  4 2012, 23:22:29)

 54 55  0999  0  0  0  0  0  0999 V2000
  -34.9457   12.8257  -13.9660 C   0  0  0  0  0  0  0  0  0  0  0  0
  -34.3567   12.4469  -15.3003 C   0  0  0  0  0  0  0  0  0  0  0  0
  -33.8781   13.4250  -16.1476 C   0  0  0  0  0  0  0  0  0  0  0  0
  -33.3326   13.0786  -17.3708 C   0  0  0  0  0  0  0  0  0  0  0  0
  -33.2728   11.7512  -17.7576 C   0  0  0  0  0  0  0  0  0  0  0  0
  -33.7478   10.7636  -16.9199 C   0  0  0  0  0  0  0  0  0  0  0  0
  -34.2945   11.1060  -15.6820 C   0  0  0  0  0  0  0  0  0  0  0  0
  -34.8060   10.0527  -14.7793 C   0  0  0  0  0  0  0  0  0  0  0  0
  -34.5125   10.0678  -13.5999 O   0  0  0  0  0  0  0  0  0  0  0  0
  -35.5978    9.0757  -15.2643 N   0  0  0  0  0  0  0  0  0  0  0  0
  -35.4359    7.7572  -14.8191 N   0  0  0  0  0  0  0  0  0  0  0  0
  -36.2277    6.7802  -15.3040 C   0  0  0  0  0  0  0  0  0  0  0  0
  -36.0299    5.1690  -14.7601 S   0  0  0  0  0  0  0  0  0  0  0  0
  -37.1751    7.0717  -16.2173 N   0  0  0  0  0  0  0  0  0  0  0  0
  -38.0357    6.0097  -16.7444 C   0  0  0  0  0  0  0  0  0  0  0  0
  -39.0168    6.6038  -17.7569 C   0  0  0  0  0  0  0  0  0  0  0  0
  -38.2969    7.6479  -18.6127 C   0  0  0  0  0  0  0  0  0  0  0  0
  -39.2280    8.6508  -19.0242 O   0  0  0  0  0  0  0  0  0  0  0  0
  -39.8782    8.3664  -20.2644 C   0  0  0  0  0  0  0  0  0  0  0  0
  -32.5818   11.3213  -19.3203 S   0  0  0  0  0  0  0  0  0  0  0  0
  -33.6735   11.0095  -20.1750 O   0  0  0  0  0  0  0  0  0  0  0  0
  -31.5308   10.4009  -19.0603 O   0  0  0  0  0  0  0  0  0  0  0  0
  -31.8743   12.6864  -19.9352 N   0  0  0  0  0  0  0  0  0  0  0  0
  -32.5559   13.4992  -20.9552 C   0  0  0  0  0  0  0  0  0  0  0  0
  -32.5395   14.9641  -20.4900 C   0  0  0  0  0  0  0  0  0  0  0  0
  -31.1973   15.3402  -20.1720 O   0  0  0  0  0  0  0  0  0  0  0  0
  -30.6222   14.5997  -19.0927 C   0  0  0  0  0  0  0  0  0  0  0  0
  -30.5428   13.1192  -19.4822 C   0  0  0  0  0  0  0  0  0  0  0  0
  -35.9996   12.5156  -14.0217 H   0  0  0  0  0  0  0  0  0  0  0  0
  -34.9318   13.9255  -13.9506 H   0  0  0  0  0  0  0  0  0  0  0  0
  -34.4213   12.3852  -13.1052 H   0  0  0  0  0  0  0  0  0  0  0  0
  -33.9303   14.4826  -15.8498 H   0  0  0  0  0  0  0  0  0  0  0  0
  -32.9447   13.8617  -18.0390 H   0  0  0  0  0  0  0  0  0  0  0  0
  -33.6959    9.7085  -17.2268 H   0  0  0  0  0  0  0  0  0  0  0  0
  -36.3218    9.2984  -15.9622 H   0  0  0  0  0  0  0  0  0  0  0  0
  -34.7119    7.5345  -14.1212 H   0  0  0  0  0  0  0  0  0  0  0  0
  -37.2940    8.0410  -16.5445 H   0  0  0  0  0  0  0  0  0  0  0  0
  -37.4162    5.2472  -17.2391 H   0  0  0  0  0  0  0  0  0  0  0  0
  -38.5968    5.5473  -15.9190 H   0  0  0  0  0  0  0  0  0  0  0  0
  -39.4048    5.8039  -18.4045 H   0  0  0  0  0  0  0  0  0  0  0  0
  -39.8520    7.0810  -17.2232 H   0  0  0  0  0  0  0  0  0  0  0  0
  -37.4932    8.1139  -18.0239 H   0  0  0  0  0  0  0  0  0  0  0  0
  -37.8663    7.1619  -19.5007 H   0  0  0  0  0  0  0  0  0  0  0  0
  -39.5162    9.0961  -21.0036 H   0  0  0  0  0  0  0  0  0  0  0  0
  -40.9567    8.5258  -20.1176 H   0  0  0  0  0  0  0  0  0  0  0  0
  -39.6774    7.3382  -20.5997 H   0  0  0  0  0  0  0  0  0  0  0  0
  -33.5960   13.1592  -21.0667 H   0  0  0  0  0  0  0  0  0  0  0  0
  -32.0252   13.4107  -21.9146 H   0  0  0  0  0  0  0  0  0  0  0  0
  -32.9206   15.6096  -21.2951 H   0  0  0  0  0  0  0  0  0  0  0  0
  -33.1726   15.0744  -19.5973 H   0  0  0  0  0  0  0  0  0  0  0  0
  -29.6108   14.9788  -18.8847 H   0  0  0  0  0  0  0  0  0  0  0  0
  -31.2488   14.7094  -18.1954 H   0  0  0  0  0  0  0  0  0  0  0  0
  -30.2380   12.5242  -18.6087 H   0  0  0  0  0  0  0  0  0  0  0  0
  -29.8144   12.9911  -20.2965 H   0  0  0  0  0  0  0  0  0  0  0  0
  1  2  1  0  0  0  0
  1 29  1  0  0  0  0
  1 30  1  0  0  0  0
  1 31  1  0  0  0  0
  2  7  2  0  0  0  0
  2  3  1  0  0  0  0
  3  4  2  0  0  0  0
  3 32  1  0  0  0  0
  4  5  1  0  0  0  0
  4 33  1  0  0  0  0
  5  6  2  0  0  0  0
  5 20  1  0  0  0  0
  6  7  1  0  0  0  0
  6 34  1  0  0  0  0
  7  8  1  0  0  0  0
  8  9  2  0  0  0  0
  8 10  1  0  0  0  0
 10 11  1  0  0  0  0
 10 35  1  0  0  0  0
 11 12  1  0  0  0  0
 11 36  1  0  0  0  0
 12 13  2  0  0  0  0
 12 14  1  0  0  0  0
 14 15  1  0  0  0  0
 14 37  1  0  0  0  0
 15 16  1  0  0  0  0
 15 38  1  0  0  0  0
 15 39  1  0  0  0  0
 16 17  1  0  0  0  0
 16 40  1  0  0  0  0
 16 41  1  0  0  0  0
 17 18  1  0  0  0  0
 17 42  1  0  0  0  0
 17 43  1  0  0  0  0
 18 19  1  0  0  0  0
 19 44  1  0  0  0  0
 19 45  1  0  0  0  0
 19 46  1  0  0  0  0
 20 21  2  0  0  0  0
 20 22  2  0  0  0  0
 20 23  1  0  0  0  0
 23 28  1  0  0  0  0
 23 24  1  0  0  0  0
 24 25  1  0  0  0  0
 24 47  1  0  0  0  0
 24 48  1  0  0  0  0
 25 26  1  0  0  0  0
 25 49  1  0  0  0  0
 25 50  1  0  0  0  0
 26 27  1  0  0  0  0
 27 28  1  0  0  0  0
 27 51  1  0  0  0  0
 27 52  1  0  0  0  0
 28 53  1  0  0  0  0
 28 54  1  0  0  0  0
M  END
> <Name>
ZINC15910386

> <reference>
BDB4946

> <quality>
0.736

> <status>
decoy

> <atoms in reference ligand area>
14

> <score>
-26.1819

$$$$
ZINC28887676
      BALL 1.4.0 (Jan  4 2012, 23:22:29)

 56 59  0999  0  0  0  0  0  0999 V2000
  -30.6636   17.0487  -20.2119 C   0  0  0  0  0  0  0  0  0  0  0  0
  -30.7033   15.6291  -20.3714 O   0  0  0  0  0  0  0  0  0  0  0  0
  -30.5965   14.8778  -19.2428 C   0  0  0  0  0  0  0  0  0  0  0  0
  -29.7103   15.2469  -18.2444 C   0  0  0  0  0  0  0  0  0  0  0  0
  -29.6027   14.4820  -17.0973 C   0  0  0  0  0  0  0  0  0  0  0  0
  -30.3779   13.3476  -16.9432 C   0  0  0  0  0  0  0  0  0  0  0  0
  -31.2684   12.9752  -17.9326 C   0  0  0  0  0  0  0  0  0  0  0  0
  -31.3778   13.7348  -19.0883 C   0  0  0  0  0  0  0  0  0  0  0  0
  -32.2751   13.3570  -20.0939 N   0  5  0  0  0  0  0  0  0  0  0  0
  -33.7284   12.6722  -19.6924 S   0  0  0  0  0  0  0  0  0  0  0  0
  -34.5278   12.6980  -20.8671 O   0  0  0  0  0  0  0  0  0  0  0  0
  -34.1418   13.2801  -18.4764 O   0  0  0  0  0  0  0  0  0  0  0  0
  -33.4223   10.9756  -19.3288 C   0  0  0  0  0  0  0  0  0  0  0  0
  -32.8806   10.1497  -20.2965 C   0  0  0  0  0  0  0  0  0  0  0  0
  -32.6386    8.8176  -20.0172 C   0  0  0  0  0  0  0  0  0  0  0  0
  -32.9389    8.3063  -18.7649 C   0  0  0  0  0  0  0  0  0  0  0  0
  -33.4895    9.1365  -17.7913 C   0  0  0  0  0  0  0  0  0  0  0  0
  -33.7247   10.4734  -18.0772 C   0  0  0  0  0  0  0  0  0  0  0  0
  -33.8006    8.6238  -16.5249 N   0  0  0  0  0  0  0  0  0  0  0  0
  -34.0445    9.4634  -15.4993 C   0  0  0  0  0  0  0  0  0  0  0  0
  -33.8960   10.6583  -15.6452 O   0  0  0  0  0  0  0  0  0  0  0  0
  -34.5016    8.9175  -14.1710 C   0  0  0  0  0  0  0  0  0  0  0  0
  -34.5133   10.0251  -13.0920 C   0  0  0  0  0  0  0  0  0  0  0  0
  -35.7299    9.7100  -12.2500 C   0  0  0  0  0  0  0  0  0  0  0  0
  -35.9461   10.1613  -11.1453 O   0  0  0  0  0  0  0  0  0  0  0  0
  -36.5370    8.8574  -12.9047 N   0  0  0  0  0  0  0  0  0  0  0  0
  -35.9914    8.5124  -14.2228 C   0  0  0  0  0  0  0  0  0  0  0  0
  -37.7993    8.3393  -12.3713 C   0  0  0  0  0  0  0  0  0  0  0  0
  -38.9432    9.2738  -12.7702 C   0  0  0  0  0  0  0  0  0  0  0  0
  -38.6495   10.7750  -12.8048 C   0  0  0  0  0  0  0  0  0  0  0  0
  -39.5170   10.1900  -11.6874 C   0  0  0  0  0  0  0  0  0  0  0  0
  -32.7019    6.9962  -18.4888 O   0  0  0  0  0  0  0  0  0  0  0  0
  -30.5951   17.2365  -19.1302 H   0  0  0  0  0  0  0  0  0  0  0  0
  -31.6368   17.4262  -20.5589 H   0  0  0  0  0  0  0  0  0  0  0  0
  -29.8302   17.5150  -20.7576 H   0  0  0  0  0  0  0  0  0  0  0  0
  -29.0919   16.1488  -18.3638 H   0  0  0  0  0  0  0  0  0  0  0  0
  -28.8985   14.7768  -16.3055 H   0  0  0  0  0  0  0  0  0  0  0  0
  -30.2856   12.7398  -16.0310 H   0  0  0  0  0  0  0  0  0  0  0  0
  -31.8901   12.0770  -17.8037 H   0  0  0  0  0  0  0  0  0  0  0  0
  -32.6416   10.5538  -21.2914 H   0  0  0  0  0  0  0  0  0  0  0  0
  -32.2075    8.1634  -20.7893 H   0  0  0  0  0  0  0  0  0  0  0  0
  -34.1517   11.1337  -17.3081 H   0  0  0  0  0  0  0  0  0  0  0  0
  -33.8428    7.6052  -16.3779 H   0  0  0  0  0  0  0  0  0  0  0  0
  -33.8188    8.0840  -13.9492 H   0  0  0  0  0  0  0  0  0  0  0  0
  -34.6249   11.0126  -13.5637 H   0  0  0  0  0  0  0  0  0  0  0  0
  -33.6022    9.9650  -12.4785 H   0  0  0  0  0  0  0  0  0  0  0  0
  -36.0810    7.4298  -14.3956 H   0  0  0  0  0  0  0  0  0  0  0  0
  -36.5090    9.0855  -15.0063 H   0  0  0  0  0  0  0  0  0  0  0  0
  -37.7391    8.2819  -11.2745 H   0  0  0  0  0  0  0  0  0  0  0  0
  -37.9865    7.3358  -12.7813 H   0  0  0  0  0  0  0  0  0  0  0  0
  -39.3664    8.5471  -13.4792 H   0  0  0  0  0  0  0  0  0  0  0  0
  -39.2607   11.2886  -13.5615 H   0  0  0  0  0  0  0  0  0  0  0  0
  -37.6316   10.9949  -12.4507 H   0  0  0  0  0  0  0  0  0  0  0  0
  -38.9553   10.1031  -10.7456 H   0  0  0  0  0  0  0  0  0  0  0  0
  -40.5843   10.3953  -11.8571 H   0  0  0  0  0  0  0  0  0  0  0  0
  -33.4077    6.5017  -18.9761 H   0  0  0  0  0  0  0  0  0  0  0  0
  1  2  1  0  0  0  0
  1 33  1  0  0  0  0
  1 34  1  0  0  0  0
  1 35  1  0  0  0  0
  2  3  1  0  0  0  0
  3  8  2  0  0  0  0
  3  4  1  0  0  0  0
  4  5  2  0  0  0  0
  4 36  1  0  0  0  0
  5  6  1  0  0  0  0
  5 37  1  0  0  0  0
  6  7  2  0  0  0  0
  6 38  1  0  0  0  0
  7  8  1  0  0  0  0
  7 39  1  0  0  0  0
  8  9  1  0  0  0  0
  9 10  1  0  0  0  0
 10 11  2  0  0  0  0
 10 12  2  0  0  0  0
 10 13  1  0  0  0  0
 13 18  2  0  0  0  0
 13 14  1  0  0  0  0
 14 15  2  0  0  0  0
 14 40  1  0  0  0  0
 15 16  1  0  0  0  0
 15 41  1  0  0  0  0
 16 17  2  0  0  0  0
 16 32  1  0  0  0  0
 17 18  1  0  0  0  0
 17 19  1  0  0  0  0
 18 42  1  0  0  0  0
 19 20  1  0  0  0  0
 19 43  1  0  0  0  0
 20 21  2  0  0  0  0
 20 22  1  0  0  0  0
 22 27  1  0  0  0  0
 22 23  1  0  0  0  0
 22 44  1  0  0  0  0
 23 24  1  0  0  0  0
 23 45  1  0  0  0  0
 23 46  1  0  0  0  0
 24 25  2  0  0  0  0
 24 26  1  0  0  0  0
 26 27  1  0  0  0  0
 26 28  1  0  0  0  0
 27 47  1  0  0  0  0
 27 48  1  0  0  0  0
 28 29  1  0  0  0  0
 28 49  1  0  0  0  0
 28 50  1  0  0  0  0
 29 31  1  0  0  0  0
 29 30  1  0  0  0  0
 29 51  1  0  0  0  0
 30 31  1  0  0  0  0
 30 52  1  0  0  0  0
 30 53  1  0  0  0  0
 31 54  1  0  0  0  0
 31 55  1  0  0  0  0
 32 56  1  0  0  0  0
M  END
> <Name>
ZINC28887676

> <reference>
BDB4968

> <quality>
0.761

> <status>
decoy

> <atoms in reference ligand area>
10

> <score>
-26.0976

$$$$
ZINC30924904
      BALL 1.4.0 (Jan  4 2012, 23:22:29)

 52 53  0999  0  0  0  0  0  0999 V2000
  -35.4086    3.8569  -10.8107 C   0  0  0  0  0  0  0  0  0  0  0  0
  -35.8532    4.7966  -11.9016 C   0  0  0  0  0  0  0  0  0  0  0  0
  -35.6970    6.1611  -11.7447 C   0  0  0  0  0  0  0  0  0  0  0  0
  -36.1049    7.0231  -12.7453 C   0  0  0  0  0  0  0  0  0  0  0  0
  -36.6682    6.5206  -13.9034 C   0  0  0  0  0  0  0  0  0  0  0  0
  -36.8288    5.1565  -14.0584 C   0  0  0  0  0  0  0  0  0  0  0  0
  -36.4169    4.2941  -13.0595 C   0  0  0  0  0  0  0  0  0  0  0  0
  -37.1881    7.6194  -15.1789 S   0  0  0  0  0  0  0  0  0  0  0  0
  -37.4089    6.8238  -16.3354 O   0  0  0  0  0  0  0  0  0  0  0  0
  -36.2803    8.7126  -15.1682 O   0  0  0  0  0  0  0  0  0  0  0  0
  -38.6634    8.2249  -14.7323 N   0  0  0  0  0  0  0  0  0  0  0  0
  -38.8796    8.6889  -13.3596 C   0  0  0  0  0  0  0  0  0  0  0  0
  -38.0049    9.8862  -13.0904 C   0  0  0  0  0  0  0  0  0  0  0  0
  -38.1602   10.5353  -12.0779 O   0  0  0  0  0  0  0  0  0  0  0  0
  -37.0501   10.2357  -13.9752 N   0  0  0  0  0  0  0  0  0  0  0  0
  -36.1998   11.3996  -13.7136 C   0  0  0  0  0  0  0  0  0  0  0  0
  -35.0707   11.4312  -14.7113 C   0  0  0  0  0  0  0  0  0  0  0  0
  -34.4011   10.4378  -14.9010 O   0  0  0  0  0  0  0  0  0  0  0  0
  -34.8050   12.5632  -15.3927 N   0  0  0  0  0  0  0  0  0  0  0  0
  -33.6982   12.6224  -16.2466 C   0  0  0  0  0  0  0  0  0  0  0  0
  -32.8625   13.7320  -16.2264 C   0  0  0  0  0  0  0  0  0  0  0  0
  -31.7669   13.7880  -17.0656 C   0  0  0  0  0  0  0  0  0  0  0  0
  -31.5051   12.7458  -17.9348 C   0  0  0  0  0  0  0  0  0  0  0  0
  -32.3396   11.6375  -17.9634 C   0  0  0  0  0  0  0  0  0  0  0  0
  -33.4371   11.5753  -17.1189 C   0  0  0  0  0  0  0  0  0  0  0  0
  -32.0813   10.6138  -18.8192 O   0  0  0  0  0  0  0  0  0  0  0  0
  -31.0736   10.8336  -19.8082 C   0  0  0  0  0  0  0  0  0  0  0  0
  -31.6079   10.4491  -21.1638 C   0  0  0  0  0  0  0  0  0  0  0  0
  -31.6365    9.2831  -21.4959 O   0  0  0  0  0  0  0  0  0  0  0  0
  -32.0538   11.4012  -22.0073 N   0  0  0  0  0  0  0  0  0  0  0  0
  -35.2911    4.4897   -9.9187 H   0  0  0  0  0  0  0  0  0  0  0  0
  -34.4028    3.5270  -11.1100 H   0  0  0  0  0  0  0  0  0  0  0  0
  -36.0952    3.0143  -10.6417 H   0  0  0  0  0  0  0  0  0  0  0  0
  -35.2481    6.5610  -10.8234 H   0  0  0  0  0  0  0  0  0  0  0  0
  -35.9814    8.1090  -12.6201 H   0  0  0  0  0  0  0  0  0  0  0  0
  -37.2844    4.7570  -14.9765 H   0  0  0  0  0  0  0  0  0  0  0  0
  -36.5377    3.2081  -13.1860 H   0  0  0  0  0  0  0  0  0  0  0  0
  -39.4288    8.2753  -15.4195 H   0  0  0  0  0  0  0  0  0  0  0  0
  -38.6248    7.8837  -12.6547 H   0  0  0  0  0  0  0  0  0  0  0  0
  -39.9351    8.9699  -13.2293 H   0  0  0  0  0  0  0  0  0  0  0  0
  -36.9183    9.6844  -14.8352 H   0  0  0  0  0  0  0  0  0  0  0  0
  -35.7873   11.3325  -12.6961 H   0  0  0  0  0  0  0  0  0  0  0  0
  -36.7971   12.3186  -13.8073 H   0  0  0  0  0  0  0  0  0  0  0  0
  -35.4167   13.3848  -15.2848 H   0  0  0  0  0  0  0  0  0  0  0  0
  -33.0735   14.5665  -15.5415 H   0  0  0  0  0  0  0  0  0  0  0  0
  -31.1015   14.6636  -17.0421 H   0  0  0  0  0  0  0  0  0  0  0  0
  -30.6339   12.7949  -18.6047 H   0  0  0  0  0  0  0  0  0  0  0  0
  -34.0997   10.6976  -17.1401 H   0  0  0  0  0  0  0  0  0  0  0  0
  -30.1902   10.2207  -19.5758 H   0  0  0  0  0  0  0  0  0  0  0  0
  -30.7911   11.8967  -19.8140 H   0  0  0  0  0  0  0  0  0  0  0  0
  -32.8024   11.1833  -22.6804 H   0  0  0  0  0  0  0  0  0  0  0  0
  -31.6460   12.3466  -21.9787 H   0  0  0  0  0  0  0  0  0  0  0  0
  1  2  1  0  0  0  0
  1 31  1  0  0  0  0
  1 32  1  0  0  0  0
  1 33  1  0  0  0  0
  2  7  2  0  0  0  0
  2  3  1  0  0  0  0
  3  4  2  0  0  0  0
  3 34  1  0  0  0  0
  4  5  1  0  0  0  0
  4 35  1  0  0  0  0
  5  6  2  0  0  0  0
  5  8  1  0  0  0  0
  6  7  1  0  0  0  0
  6 36  1  0  0  0  0
  7 37  1  0  0  0  0
  8  9  2  0  0  0  0
  8 10  2  0  0  0  0
  8 11  1  0  0  0  0
 11 12  1  0  0  0  0
 11 38  1  0  0  0  0
 12 13  1  0  0  0  0
 12 39  1  0  0  0  0
 12 40  1  0  0  0  0
 13 14  2  0  0  0  0
 13 15  1  0  0  0  0
 15 16  1  0  0  0  0
 15 41  1  0  0  0  0
 16 17  1  0  0  0  0
 16 42  1  0  0  0  0
 16 43  1  0  0  0  0
 17 18  2  0  0  0  0
 17 19  1  0  0  0  0
 19 20  1  0  0  0  0
 19 44  1  0  0  0  0
 20 25  2  0  0  0  0
 20 21  1  0  0  0  0
 21 22  2  0  0  0  0
 21 45  1  0  0  0  0
 22 23  1  0  0  0  0
 22 46  1  0  0  0  0
 23 24  2  0  0  0  0
 23 47  1  0  0  0  0
 24 25  1  0  0  0  0
 24 26  1  0  0  0  0
 25 48  1  0  0  0  0
 26 27  1  0  0  0  0
 27 28  1  0  0  0  0
 27 49  1  0  0  0  0
 27 50  1  0  0  0  0
 28 29  2  0  0  0  0
 28 30  1  0  0  0  0
 30 51  1  0  0  0  0
 30 52  1  0  0  0  0
M  END
> <Name>
ZINC30924904

> <reference>
BDB4946

> <quality>
0.757

> <status>
decoy

> <atoms in reference ligand area>
11

> <score>
-26.0229

$$$$
ZINC31448830
      BALL 1.4.0 (Jan  4 2012, 23:22:29)

 36 37  0999  0  0  0  0  0  0999 V2000
  -29.1498   12.5351  -20.6841 C   0  0  0  0  0  0  0  0  0  0  0  0
  -29.6313   13.5971  -19.6936 C   0  0  0  0  0  0  0  0  0  0  0  0
  -29.5453   13.0826  -18.2703 C   0  0  0  0  0  0  0  0  0  0  0  0
  -28.5471   12.7363  -17.6757 O   0  0  0  0  0  0  0  0  0  0  0  0
  -30.8097   13.0886  -17.8037 N   0  0  0  0  0  0  0  0  0  0  0  0
  -31.6725   13.5377  -18.7223 C   0  0  0  0  0  0  0  0  0  0  0  0
  -32.8689   13.6384  -18.5333 O   0  0  0  0  0  0  0  0  0  0  0  0
  -31.0679   13.8652  -19.8786 N   0  5  0  0  0  0  0  0  0  0  0  0
  -31.1913   12.6621  -16.4552 C   0  0  0  0  0  0  0  0  0  0  0  0
  -31.5137   11.1664  -16.4654 C   0  0  0  0  0  0  0  0  0  0  0  0
  -33.1885   10.9145  -17.1040 S   0  0  0  0  0  0  0  0  0  0  0  0
  -33.9299   10.1238  -15.7149 C   0  0  0  0  0  0  0  0  0  0  0  0
  -35.1692   10.4461  -15.3743 N   0  3  0  0  0  0  0  0  0  0  0  0
  -35.7631    9.8653  -14.3343 C   0  0  0  0  0  0  0  0  0  0  0  0
  -35.0608    8.9175  -13.5956 C   0  0  0  0  0  0  0  0  0  0  0  0
  -33.7592    8.6089  -13.9801 C   0  0  0  0  0  0  0  0  0  0  0  0
  -33.2317    9.2262  -15.0347 N   0  0  0  0  0  0  0  0  0  0  0  0
  -33.0221    7.6708  -13.2743 N   0  0  0  0  0  0  0  0  0  0  0  0
  -37.0620   10.2037  -13.9884 N   0  0  0  0  0  0  0  0  0  0  0  0
  -28.8194   14.8849  -19.8459 C   0  0  0  0  0  0  0  0  0  0  0  0
  -29.8656   12.4706  -21.5169 H   0  0  0  0  0  0  0  0  0  0  0  0
  -29.1019   11.5627  -20.1723 H   0  0  0  0  0  0  0  0  0  0  0  0
  -28.1545   12.8031  -21.0684 H   0  0  0  0  0  0  0  0  0  0  0  0
  -30.3595   12.8525  -15.7611 H   0  0  0  0  0  0  0  0  0  0  0  0
  -32.0779   13.2253  -16.1284 H   0  0  0  0  0  0  0  0  0  0  0  0
  -30.7935   10.6403  -17.1093 H   0  0  0  0  0  0  0  0  0  0  0  0
  -31.4490   10.7692  -15.4417 H   0  0  0  0  0  0  0  0  0  0  0  0
  -35.6791   11.1546  -15.9209 H   0  0  0  0  0  0  0  0  0  0  0  0
  -35.5236    8.4238  -12.7283 H   0  0  0  0  0  0  0  0  0  0  0  0
  -32.3081    7.1113  -13.7621 H   0  0  0  0  0  0  0  0  0  0  0  0
  -33.1868    7.5331  -12.2669 H   0  0  0  0  0  0  0  0  0  0  0  0
  -37.5697   10.9095  -14.5407 H   0  0  0  0  0  0  0  0  0  0  0  0
  -37.5182    9.7520  -13.1829 H   0  0  0  0  0  0  0  0  0  0  0  0
  -29.3908   15.7213  -19.4169 H   0  0  0  0  0  0  0  0  0  0  0  0
  -28.6480   15.0757  -20.9156 H   0  0  0  0  0  0  0  0  0  0  0  0
  -27.8553   14.7864  -19.3256 H   0  0  0  0  0  0  0  0  0  0  0  0
  1  2  1  0  0  0  0
  1 21  1  0  0  0  0
  1 22  1  0  0  0  0
  1 23  1  0  0  0  0
  2  8  1  0  0  0  0
  2  3  1  0  0  0  0
  2 20  1  0  0  0  0
  3  4  2  0  0  0  0
  3  5  1  0  0  0  0
  5  6  1  0  0  0  0
  5  9  1  0  0  0  0
  6  7  2  0  0  0  0
  6  8  1  0  0  0  0
  9 10  1  0  0  0  0
  9 24  1  0  0  0  0
  9 25  1  0  0  0  0
 10 11  1  0  0  0  0
 10 26  1  0  0  0  0
 10 27  1  0  0  0  0
 11 12  1  0  0  0  0
 12 17  2  0  0  0  0
 12 13  1  0  0  0  0
 13 14  2  0  0  0  0
 13 28  1  0  0  0  0
 14 15  1  0  0  0  0
 14 19  1  0  0  0  0
 15 16  2  0  0  0  0
 15 29  1  0  0  0  0
 16 17  1  0  0  0  0
 16 18  1  0  0  0  0
 18 30  1  0  0  0  0
 18 31  1  0  0  0  0
 19 32  1  0  0  0  0
 19 33  1  0  0  0  0
 20 34  1  0  0  0  0
 20 35  1  0  0  0  0
 20 36  1  0  0  0  0
M  END
> <Name>
ZINC31448830

> <reference>
BDB4937

> <quality>
0.735

> <status>
decoy

> <atoms in reference ligand area>
11

> <score>
-25.9738

$$$$
ZINC31944609
      BALL 1.4.0 (Jan  4 2012, 23:22:29)

 31 31  0999  0  0  0  0  0  0999 V2000
  -30.3238   14.9701  -18.2556 C   0  0  0  0  0  0  0  0  0  0  0  0
  -30.9615   13.9868  -19.2031 C   0  0  0  0  0  0  0  0  0  0  0  0
  -30.6539   12.6418  -19.1118 C   0  0  0  0  0  0  0  0  0  0  0  0
  -31.2366   11.7382  -19.9787 C   0  0  0  0  0  0  0  0  0  0  0  0
  -32.1328   12.1818  -20.9424 C   0  0  0  0  0  0  0  0  0  0  0  0
  -32.4356   13.5339  -21.0348 C   0  0  0  0  0  0  0  0  0  0  0  0
  -31.8535   14.4317  -20.1616 C   0  0  0  0  0  0  0  0  0  0  0  0
  -32.7249   11.2689  -21.8222 N   0  0  0  0  0  0  0  0  0  0  0  0
  -32.8846    9.9828  -21.4519 C   0  0  0  0  0  0  0  0  0  0  0  0
  -32.4330    9.5955  -20.3949 O   0  0  0  0  0  0  0  0  0  0  0  0
  -33.6242    9.0261  -22.3511 C   0  0  0  0  0  0  0  0  0  0  0  0
  -32.7742    8.9193  -23.9501 S   0  0  0  0  0  0  0  0  0  0  0  0
  -32.0482   10.1237  -24.1545 O   0  0  0  0  0  0  0  0  0  0  0  0
  -32.0847    7.6782  -24.0107 O   0  0  0  0  0  0  0  0  0  0  0  0
  -34.1491    8.8704  -25.1324 C   0  5  0  0  0  0  0  0  0  0  0  0
  -34.0849    7.5901  -25.9247 C   0  0  0  0  0  0  0  0  0  0  0  0
  -34.1700    6.1805  -25.1746 S   0  0  0  0  0  0  0  0  0  0  0  0
  -33.9557    7.6332  -27.2655 N   0  0  0  0  0  0  0  0  0  0  0  0
  -29.2549   14.7104  -18.2502 H   0  0  0  0  0  0  0  0  0  0  0  0
  -30.7258   14.7144  -17.2641 H   0  0  0  0  0  0  0  0  0  0  0  0
  -30.4997   16.0227  -18.5223 H   0  0  0  0  0  0  0  0  0  0  0  0
  -29.9442   12.2911  -18.3480 H   0  0  0  0  0  0  0  0  0  0  0  0
  -30.9911   10.6684  -19.9059 H   0  0  0  0  0  0  0  0  0  0  0  0
  -33.1385   13.8896  -21.8027 H   0  0  0  0  0  0  0  0  0  0  0  0
  -32.0996   15.5017  -20.2287 H   0  0  0  0  0  0  0  0  0  0  0  0
  -33.0387   11.5797  -22.7526 H   0  0  0  0  0  0  0  0  0  0  0  0
  -33.6517    8.0306  -21.8841 H   0  0  0  0  0  0  0  0  0  0  0  0
  -34.6516    9.3868  -22.5064 H   0  0  0  0  0  0  0  0  0  0  0  0
  -34.0763    9.7284  -25.8168 H   0  0  0  0  0  0  0  0  0  0  0  0
  -34.4813    6.9720  -27.8551 H   0  0  0  0  0  0  0  0  0  0  0  0
  -33.3315    8.3274  -27.7007 H   0  0  0  0  0  0  0  0  0  0  0  0
  1  2  1  0  0  0  0
  1 19  1  0  0  0  0
  1 20  1  0  0  0  0
  1 21  1  0  0  0  0
  2  7  2  0  0  0  0
  2  3  1  0  0  0  0
  3  4  2  0  0  0  0
  3 22  1  0  0  0  0
  4  5  1  0  0  0  0
  4 23  1  0  0  0  0
  5  6  2  0  0  0  0
  5  8  1  0  0  0  0
  6  7  1  0  0  0  0
  6 24  1  0  0  0  0
  7 25  1  0  0  0  0
  8  9  1  0  0  0  0
  8 26  1  0  0  0  0
  9 10  2  0  0  0  0
  9 11  1  0  0  0  0
 11 12  1  0  0  0  0
 11 27  1  0  0  0  0
 11 28  1  0  0  0  0
 12 13  2  0  0  0  0
 12 14  2  0  0  0  0
 12 15  1  0  0  0  0
 15 16  1  0  0  0  0
 15 29  1  0  0  0  0
 16 17  2  0  0  0  0
 16 18  1  0  0  0  0
 18 30  1  0  0  0  0
 18 31  1  0  0  0  0
M  END
> <Name>
ZINC31944609

> <reference>
BDB5204

> <quality>
0.745

> <status>
decoy

> <atoms in reference ligand area>
12

> <score>
-25.7492

$$$$
ZINC05258154
      BALL 1.4.0 (Jan  4 2012, 23:22:29)

 43 43  0999  0  0  0  0  0  0999 V2000
  -27.5338    5.1140  -13.8919 C   0  0  0  0  0  0  0  0  0  0  0  0
  -27.8359    5.5186  -15.3117 C   0  0  0  0  0  0  0  0  0  0  0  0
  -27.3883    4.7388  -16.3623 C   0  0  0  0  0  0  0  0  0  0  0  0
  -27.6634    5.1068  -17.6665 C   0  0  0  0  0  0  0  0  0  0  0  0
  -28.3870    6.2546  -17.9238 C   0  0  0  0  0  0  0  0  0  0  0  0
  -28.8379    7.0400  -16.8711 C   0  0  0  0  0  0  0  0  0  0  0  0
  -28.5550    6.6708  -15.5626 C   0  0  0  0  0  0  0  0  0  0  0  0
  -29.5708    8.2038  -17.1284 N   0  0  0  0  0  0  0  0  0  0  0  0
  -30.8005    8.1191  -17.6733 C   0  0  0  0  0  0  0  0  0  0  0  0
  -31.2335    7.0435  -18.0287 O   0  0  0  0  0  0  0  0  0  0  0  0
  -31.6376    9.3610  -17.8408 C   0  0  0  0  0  0  0  0  0  0  0  0
  -31.5465    9.8460  -19.2891 C   0  0  0  0  0  0  0  0  0  0  0  0
  -32.7767   10.6473  -19.6288 C   0  0  0  0  0  0  0  0  0  0  0  0
  -33.4518   11.1214  -18.7459 O   0  0  0  0  0  0  0  0  0  0  0  0
  -30.3721   11.7940  -18.4592 C   0  0  0  0  0  0  0  0  0  0  0  0
  -29.1201   12.6545  -18.6409 C   0  0  0  0  0  0  0  0  0  0  0  0
  -29.5318   14.0881  -18.9823 C   0  0  0  0  0  0  0  0  0  0  0  0
  -28.3608   12.6524  -17.4303 O   0  0  0  0  0  0  0  0  0  0  0  0
  -27.1737    4.2539  -18.8085 C   0  0  0  0  0  0  0  0  0  0  0  0
  -33.1224   10.8345  -20.9122 O   0  5  0  0  0  0  0  0  0  0  0  0
  -30.3489   10.6937  -19.4414 N   0  3  0  0  0  0  0  0  0  0  0  0
  -28.2271    5.7024  -13.2730 H   0  0  0  0  0  0  0  0  0  0  0  0
  -26.5203    5.4936  -13.6957 H   0  0  0  0  0  0  0  0  0  0  0  0
  -27.6209    4.0327  -13.7094 H   0  0  0  0  0  0  0  0  0  0  0  0
  -26.8122    3.8238  -16.1600 H   0  0  0  0  0  0  0  0  0  0  0  0
  -28.6059    6.5464  -18.9616 H   0  0  0  0  0  0  0  0  0  0  0  0
  -28.9033    7.2953  -14.7267 H   0  0  0  0  0  0  0  0  0  0  0  0
  -29.1704    9.1253  -16.9013 H   0  0  0  0  0  0  0  0  0  0  0  0
  -31.2670   10.1479  -17.1674 H   0  0  0  0  0  0  0  0  0  0  0  0
  -32.6856    9.1328  -17.5963 H   0  0  0  0  0  0  0  0  0  0  0  0
  -31.4765    8.9814  -19.9656 H   0  0  0  0  0  0  0  0  0  0  0  0
  -30.3872   11.3772  -17.4414 H   0  0  0  0  0  0  0  0  0  0  0  0
  -31.2692   12.4101  -18.6195 H   0  0  0  0  0  0  0  0  0  0  0  0
  -28.5086   12.2442  -19.4580 H   0  0  0  0  0  0  0  0  0  0  0  0
  -29.2749   14.3049  -20.0296 H   0  0  0  0  0  0  0  0  0  0  0  0
  -29.0013   14.7901  -18.3222 H   0  0  0  0  0  0  0  0  0  0  0  0
  -30.6167   14.2023  -18.8408 H   0  0  0  0  0  0  0  0  0  0  0  0
  -28.4987   11.7952  -16.9548 H   0  0  0  0  0  0  0  0  0  0  0  0
  -26.3147    3.6990  -18.4033 H   0  0  0  0  0  0  0  0  0  0  0  0
  -26.7808    4.9660  -19.5492 H   0  0  0  0  0  0  0  0  0  0  0  0
  -27.9429    3.5899  -19.2295 H   0  0  0  0  0  0  0  0  0  0  0  0
  -29.5049   10.1222  -19.2931 H   0  0  0  0  0  0  0  0  0  0  0  0
  -30.3268   11.0870  -20.3931 H   0  0  0  0  0  0  0  0  0  0  0  0
  1  2  1  0  0  0  0
  1 22  1  0  0  0  0
  1 23  1  0  0  0  0
  1 24  1  0  0  0  0
  2  7  2  0  0  0  0
  2  3  1  0  0  0  0
  3  4  2  0  0  0  0
  3 25  1  0  0  0  0
  4  5  1  0  0  0  0
  4 19  1  0  0  0  0
  5  6  2  0  0  0  0
  5 26  1  0  0  0  0
  6  7  1  0  0  0  0
  6  8  1  0  0  0  0
  7 27  1  0  0  0  0
  8  9  1  0  0  0  0
  8 28  1  0  0  0  0
  9 10  2  0  0  0  0
  9 11  1  0  0  0  0
 11 12  1  0  0  0  0
 11 29  1  0  0  0  0
 11 30  1  0  0  0  0
 12 13  1  0  0  0  0
 12 21  1  0  0  0  0
 12 31  1  0  0  0  0
 13 14  2  0  0  0  0
 13 20  1  0  0  0  0
 15 16  1  0  0  0  0
 15 21  1  0  0  0  0
 15 32  1  0  0  0  0
 15 33  1  0  0  0  0
 16 17  1  0  0  0  0
 16 18  1  0  0  0  0
 16 34  1  0  0  0  0
 17 35  1  0  0  0  0
 17 36  1  0  0  0  0
 17 37  1  0  0  0  0
 18 38  1  0  0  0  0
 19 39  1  0  0  0  0
 19 40  1  0  0  0  0
 19 41  1  0  0  0  0
 21 42  1  0  0  0  0
 21 43  1  0  0  0  0
M  END
> <Name>
ZINC05258154

> <reference>
BDB4995

> <quality>
0.787

> <status>
decoy

> <atoms in reference ligand area>
13

> <score>
-25.5716

$$$$
ZINC15775177
      BALL 1.4.0 (Jan  4 2012, 23:22:29)

 38 39  0999  0  0  0  0  0  0999 V2000
  -25.8514   13.7728  -20.3886 C   0  0  0  0  0  0  0  0  0  0  0  0
  -27.0828   13.8845  -19.5272 C   0  0  0  0  0  0  0  0  0  0  0  0
  -27.1410   13.2180  -18.3170 C   0  0  0  0  0  0  0  0  0  0  0  0
  -28.2677   13.3185  -17.5249 C   0  0  0  0  0  0  0  0  0  0  0  0
  -29.3438   14.0899  -17.9454 C   0  0  0  0  0  0  0  0  0  0  0  0
  -29.2846   14.7533  -19.1646 C   0  0  0  0  0  0  0  0  0  0  0  0
  -28.1525   14.6530  -19.9490 C   0  0  0  0  0  0  0  0  0  0  0  0
  -30.4856   14.1939  -17.1464 N   0  0  0  0  0  0  0  0  0  0  0  0
  -31.3750   13.1318  -17.0654 C   0  0  0  0  0  0  0  0  0  0  0  0
  -32.4488   12.9739  -16.3027 N   0  0  0  0  0  0  0  0  0  0  0  0
  -33.1575   11.9322  -16.3599 N   0  0  0  0  0  0  0  0  0  0  0  0
  -32.8726   10.9327  -17.1700 C   0  0  0  0  0  0  0  0  0  0  0  0
  -31.4021   11.5808  -17.9597 S   0  0  0  0  0  0  0  0  0  0  0  0
  -33.5852    9.6211  -17.3776 C   0  0  0  0  0  0  0  0  0  0  0  0
  -32.5599    8.5257  -17.6774 C   0  0  0  0  0  0  0  0  0  0  0  0
  -31.7505    8.2252  -16.4143 C   0  0  0  0  0  0  0  0  0  0  0  0
  -30.3095    7.8861  -16.8006 C   0  0  0  0  0  0  0  0  0  0  0  0
  -29.5837    7.4926  -15.6342 O   0  0  0  0  0  0  0  0  0  0  0  0
  -32.3333    7.1155  -15.7279 O   0  0  0  0  0  0  0  0  0  0  0  0
  -33.2382    7.3416  -18.1015 O   0  0  0  0  0  0  0  0  0  0  0  0
  -34.3128    9.2820  -16.1954 O   0  0  0  0  0  0  0  0  0  0  0  0
  -25.2191   13.0245  -19.8885 H   0  0  0  0  0  0  0  0  0  0  0  0
  -25.3447   14.7444  -20.2912 H   0  0  0  0  0  0  0  0  0  0  0  0
  -26.0635   13.5121  -21.4360 H   0  0  0  0  0  0  0  0  0  0  0  0
  -26.2886   12.6070  -17.9848 H   0  0  0  0  0  0  0  0  0  0  0  0
  -28.3131   12.7883  -16.5621 H   0  0  0  0  0  0  0  0  0  0  0  0
  -30.1384   15.3576  -19.5047 H   0  0  0  0  0  0  0  0  0  0  0  0
  -28.1015   15.1849  -20.9105 H   0  0  0  0  0  0  0  0  0  0  0  0
  -30.6670   15.0589  -16.6175 H   0  0  0  0  0  0  0  0  0  0  0  0
  -34.2823    9.7123  -18.2236 H   0  0  0  0  0  0  0  0  0  0  0  0
  -31.8826    8.8658  -18.4747 H   0  0  0  0  0  0  0  0  0  0  0  0
  -31.7560    9.1070  -15.7568 H   0  0  0  0  0  0  0  0  0  0  0  0
  -30.3092    7.0609  -17.5279 H   0  0  0  0  0  0  0  0  0  0  0  0
  -29.8312    8.7697  -17.2484 H   0  0  0  0  0  0  0  0  0  0  0  0
  -29.1680    8.2892  -15.2185 H   0  0  0  0  0  0  0  0  0  0  0  0
  -31.6308    6.4504  -15.5176 H   0  0  0  0  0  0  0  0  0  0  0  0
  -33.8840    7.5682  -18.8168 H   0  0  0  0  0  0  0  0  0  0  0  0
  -35.2670    9.5169  -16.3153 H   0  0  0  0  0  0  0  0  0  0  0  0
  1  2  1  0  0  0  0
  1 22  1  0  0  0  0
  1 23  1  0  0  0  0
  1 24  1  0  0  0  0
  2  7  2  0  0  0  0
  2  3  1  0  0  0  0
  3  4  2  0  0  0  0
  3 25  1  0  0  0  0
  4  5  1  0  0  0  0
  4 26  1  0  0  0  0
  5  6  2  0  0  0  0
  5  8  1  0  0  0  0
  6  7  1  0  0  0  0
  6 27  1  0  0  0  0
  7 28  1  0  0  0  0
  8  9  1  0  0  0  0
  8 29  1  0  0  0  0
  9 13  1  0  0  0  0
  9 10  2  0  0  0  0
 10 11  1  0  0  0  0
 11 12  2  0  0  0  0
 12 13  1  0  0  0  0
 12 14  1  0  0  0  0
 14 15  1  0  0  0  0
 14 21  1  0  0  0  0
 14 30  1  0  0  0  0
 15 16  1  0  0  0  0
 15 20  1  0  0  0  0
 15 31  1  0  0  0  0
 16 17  1  0  0  0  0
 16 19  1  0  0  0  0
 16 32  1  0  0  0  0
 17 18  1  0  0  0  0
 17 33  1  0  0  0  0
 17 34  1  0  0  0  0
 18 35  1  0  0  0  0
 19 36  1  0  0  0  0
 20 37  1  0  0  0  0
 21 38  1  0  0  0  0
M  END
> <Name>
ZINC15775177

> <reference>
BDB5219

> <quality>
0.676

> <status>
decoy

> <atoms in reference ligand area>
10

> <score>
-25.5027

$$$$
ZINC05677695
      BALL 1.4.0 (Jan  4 2012, 23:22:29)

 38 38  0999  0  0  0  0  0  0999 V2000
  -30.4189   13.0987  -21.3873 C   0  0  0  0  0  0  0  0  0  0  0  0
  -31.6714   12.2695  -21.6784 C   0  0  0  0  0  0  0  0  0  0  0  0
  -31.8441   11.2041  -20.5832 C   0  0  0  0  0  0  0  0  0  0  0  0
  -32.3074   11.9182  -19.2799 C   0  0  0  0  0  0  0  0  0  0  0  0
  -33.5061   13.1346  -19.9716 S   0  0  0  0  0  0  0  0  0  0  0  0
  -33.2873   14.3983  -19.3596 O   0  0  0  0  0  0  0  0  0  0  0  0
  -34.8072   12.5639  -19.9516 O   0  0  0  0  0  0  0  0  0  0  0  0
  -32.9078   13.1998  -21.7095 C   0  0  0  0  0  0  0  0  0  0  0  0
  -30.3600   10.7143  -22.9916 C   0  0  0  0  0  0  0  0  0  0  0  0
  -30.2417   10.0450  -24.3625 C   0  0  0  0  0  0  0  0  0  0  0  0
  -30.5799    8.5583  -24.2350 C   0  0  0  0  0  0  0  0  0  0  0  0
  -29.3753    7.7222  -24.6716 C   0  0  0  0  0  0  0  0  0  0  0  0
  -28.2568    7.8602  -23.6368 C   0  0  0  0  0  0  0  0  0  0  0  0
  -26.9926    7.2437  -24.1782 C   0  0  0  0  0  0  0  0  0  0  0  0
  -27.0440    6.2119  -24.8047 O   0  0  0  0  0  0  0  0  0  0  0  0
  -31.5325   11.6094  -22.9903 N   0  3  0  0  0  0  0  0  0  0  0  0
  -25.8097    7.8410  -23.9644 O   0  5  0  0  0  0  0  0  0  0  0  0
  -30.7087   14.0535  -20.9243 H   0  0  0  0  0  0  0  0  0  0  0  0
  -29.8808   13.2953  -22.3264 H   0  0  0  0  0  0  0  0  0  0  0  0
  -29.7633   12.5439  -20.7002 H   0  0  0  0  0  0  0  0  0  0  0  0
  -30.8847   10.6966  -20.4047 H   0  0  0  0  0  0  0  0  0  0  0  0
  -32.6053   10.4735  -20.8944 H   0  0  0  0  0  0  0  0  0  0  0  0
  -32.8284   11.2156  -18.6129 H   0  0  0  0  0  0  0  0  0  0  0  0
  -31.4689   12.4472  -18.8034 H   0  0  0  0  0  0  0  0  0  0  0  0
  -32.6112   14.2280  -21.9641 H   0  0  0  0  0  0  0  0  0  0  0  0
  -33.6777   12.7981  -22.3848 H   0  0  0  0  0  0  0  0  0  0  0  0
  -30.4853    9.9442  -22.2161 H   0  0  0  0  0  0  0  0  0  0  0  0
  -29.4513   11.2997  -22.7876 H   0  0  0  0  0  0  0  0  0  0  0  0
  -30.9421   10.5209  -25.0646 H   0  0  0  0  0  0  0  0  0  0  0  0
  -29.2138   10.1556  -24.7383 H   0  0  0  0  0  0  0  0  0  0  0  0
  -30.8264    8.3266  -23.1884 H   0  0  0  0  0  0  0  0  0  0  0  0
  -31.4417    8.3209  -24.8761 H   0  0  0  0  0  0  0  0  0  0  0  0
  -29.6716    6.6658  -24.7517 H   0  0  0  0  0  0  0  0  0  0  0  0
  -29.0157    8.0773  -25.6487 H   0  0  0  0  0  0  0  0  0  0  0  0
  -28.5477    7.3444  -22.7098 H   0  0  0  0  0  0  0  0  0  0  0  0
  -28.0829    8.9255  -23.4246 H   0  0  0  0  0  0  0  0  0  0  0  0
  -32.3810   11.0598  -23.1875 H   0  0  0  0  0  0  0  0  0  0  0  0
  -31.4160   12.3243  -23.7226 H   0  0  0  0  0  0  0  0  0  0  0  0
  1  2  1  0  0  0  0
  1 18  1  0  0  0  0
  1 19  1  0  0  0  0
  1 20  1  0  0  0  0
  2  8  1  0  0  0  0
  2  3  1  0  0  0  0
  2 16  1  0  0  0  0
  3  4  1  0  0  0  0
  3 21  1  0  0  0  0
  3 22  1  0  0  0  0
  4  5  1  0  0  0  0
  4 23  1  0  0  0  0
  4 24  1  0  0  0  0
  5  6  2  0  0  0  0
  5  7  2  0  0  0  0
  5  8  1  0  0  0  0
  8 25  1  0  0  0  0
  8 26  1  0  0  0  0
  9 10  1  0  0  0  0
  9 16  1  0  0  0  0
  9 27  1  0  0  0  0
  9 28  1  0  0  0  0
 10 11  1  0  0  0  0
 10 29  1  0  0  0  0
 10 30  1  0  0  0  0
 11 12  1  0  0  0  0
 11 31  1  0  0  0  0
 11 32  1  0  0  0  0
 12 13  1  0  0  0  0
 12 33  1  0  0  0  0
 12 34  1  0  0  0  0
 13 14  1  0  0  0  0
 13 35  1  0  0  0  0
 13 36  1  0  0  0  0
 14 15  2  0  0  0  0
 14 17  1  0  0  0  0
 16 37  1  0  0  0  0
 16 38  1  0  0  0  0
M  END
> <Name>
ZINC05677695

> <reference>
BDB5195

> <quality>
0.816

> <status>
decoy

> <atoms in reference ligand area>
22

> <score>
-25.4638

$$$$
ZINC28090587
      BALL 1.4.0 (Jan  4 2012, 23:22:29)

 52 52  0999  0  0  0  0  0  0999 V2000
  -29.0098    4.6341  -24.4716 C   0  0  0  0  0  0  0  0  0  0  0  0
  -29.5007    6.0200  -24.8953 C   0  0  0  0  0  0  0  0  0  0  0  0
  -30.7108    6.4140  -24.0462 C   0  0  0  0  0  0  0  0  0  0  0  0
  -30.2318    7.0413  -22.7356 C   0  0  0  0  0  0  0  0  0  0  0  0
  -31.5647    7.4256  -24.8135 C   0  0  0  0  0  0  0  0  0  0  0  0
  -32.9574    7.4461  -24.2382 C   0  0  0  0  0  0  0  0  0  0  0  0
  -33.7931    8.1830  -24.7055 O   0  0  0  0  0  0  0  0  0  0  0  0
  -33.2695    6.6457  -23.2068 O   0  0  0  0  0  0  0  0  0  0  0  0
  -34.6786    6.3730  -22.9870 C   0  0  0  0  0  0  0  0  0  0  0  0
  -35.4877    7.6503  -23.2209 C   0  0  0  0  0  0  0  0  0  0  0  0
  -35.3066    8.5579  -22.0853 N   0  0  0  0  0  0  0  0  0  0  0  0
  -34.2468    9.3899  -22.0499 C   0  0  0  0  0  0  0  0  0  0  0  0
  -33.2066    9.0700  -22.5853 O   0  0  0  0  0  0  0  0  0  0  0  0
  -34.3525   10.7149  -21.3398 C   0  0  0  0  0  0  0  0  0  0  0  0
  -32.9714   11.2183  -21.0077 C   0  0  0  0  0  0  0  0  0  0  0  0
  -32.8176   12.3146  -20.1795 C   0  0  0  0  0  0  0  0  0  0  0  0
  -31.5527   12.7767  -19.8673 C   0  0  0  0  0  0  0  0  0  0  0  0
  -30.4358   12.1479  -20.3938 C   0  0  0  0  0  0  0  0  0  0  0  0
  -30.5908   11.0481  -21.2320 C   0  0  0  0  0  0  0  0  0  0  0  0
  -31.8614   10.5865  -21.5364 C   0  0  0  0  0  0  0  0  0  0  0  0
  -29.4977   10.4273  -21.7509 O   0  0  0  0  0  0  0  0  0  0  0  0
  -29.1909   12.6045  -20.0918 O   0  0  0  0  0  0  0  0  0  0  0  0
  -28.6471   12.2181  -18.8281 C   0  0  0  0  0  0  0  0  0  0  0  0
  -36.2449    8.5611  -21.0248 O   0  0  0  0  0  0  0  0  0  0  0  0
  -30.9659    8.7617  -24.6947 N   0  3  0  0  0  0  0  0  0  0  0  0
  -28.0413    4.4251  -24.9496 H   0  0  0  0  0  0  0  0  0  0  0  0
  -29.7424    3.8741  -24.7811 H   0  0  0  0  0  0  0  0  0  0  0  0
  -28.8920    4.6045  -23.3784 H   0  0  0  0  0  0  0  0  0  0  0  0
  -29.7894    5.9993  -25.9565 H   0  0  0  0  0  0  0  0  0  0  0  0
  -28.6956    6.7550  -24.7485 H   0  0  0  0  0  0  0  0  0  0  0  0
  -31.3115    5.5191  -23.8264 H   0  0  0  0  0  0  0  0  0  0  0  0
  -30.9733    7.7751  -22.3865 H   0  0  0  0  0  0  0  0  0  0  0  0
  -29.2677    7.5448  -22.8997 H   0  0  0  0  0  0  0  0  0  0  0  0
  -30.1092    6.2556  -21.9755 H   0  0  0  0  0  0  0  0  0  0  0  0
  -31.6103    7.1372  -25.8741 H   0  0  0  0  0  0  0  0  0  0  0  0
  -34.8296    6.0282  -21.9534 H   0  0  0  0  0  0  0  0  0  0  0  0
  -35.0148    5.5934  -23.6865 H   0  0  0  0  0  0  0  0  0  0  0  0
  -36.5536    7.3974  -23.3207 H   0  0  0  0  0  0  0  0  0  0  0  0
  -35.1396    8.1416  -24.1415 H   0  0  0  0  0  0  0  0  0  0  0  0
  -34.9294   10.5898  -20.4116 H   0  0  0  0  0  0  0  0  0  0  0  0
  -34.8599   11.4411  -21.9918 H   0  0  0  0  0  0  0  0  0  0  0  0
  -33.7036   12.8202  -19.7681 H   0  0  0  0  0  0  0  0  0  0  0  0
  -31.4328   13.6437  -19.2008 H   0  0  0  0  0  0  0  0  0  0  0  0
  -31.9867    9.7173  -22.1988 H   0  0  0  0  0  0  0  0  0  0  0  0
  -29.0379   10.0276  -20.9706 H   0  0  0  0  0  0  0  0  0  0  0  0
  -29.2429   11.3595  -18.4846 H   0  0  0  0  0  0  0  0  0  0  0  0
  -28.8358   13.0561  -18.1410 H   0  0  0  0  0  0  0  0  0  0  0  0
  -27.5764   11.9723  -18.8828 H   0  0  0  0  0  0  0  0  0  0  0  0
  -36.6771    9.4506  -21.0719 H   0  0  0  0  0  0  0  0  0  0  0  0
  -29.9747    8.6724  -24.4295 H   0  0  0  0  0  0  0  0  0  0  0  0
  -31.4666    9.3004  -23.9737 H   0  0  0  0  0  0  0  0  0  0  0  0
  -31.0358    9.2514  -25.5982 H   0  0  0  0  0  0  0  0  0  0  0  0
  1  2  1  0  0  0  0
  1 26  1  0  0  0  0
  1 27  1  0  0  0  0
  1 28  1  0  0  0  0
  2  3  1  0  0  0  0
  2 29  1  0  0  0  0
  2 30  1  0  0  0  0
  3  4  1  0  0  0  0
  3  5  1  0  0  0  0
  3 31  1  0  0  0  0
  4 32  1  0  0  0  0
  4 33  1  0  0  0  0
  4 34  1  0  0  0  0
  5  6  1  0  0  0  0
  5 25  1  0  0  0  0
  5 35  1  0  0  0  0
  6  7  2  0  0  0  0
  6  8  1  0  0  0  0
  8  9  1  0  0  0  0
  9 10  1  0  0  0  0
  9 36  1  0  0  0  0
  9 37  1  0  0  0  0
 10 11  1  0  0  0  0
 10 38  1  0  0  0  0
 10 39  1  0  0  0  0
 11 12  1  0  0  0  0
 11 24  1  0  0  0  0
 12 13  2  0  0  0  0
 12 14  1  0  0  0  0
 14 15  1  0  0  0  0
 14 40  1  0  0  0  0
 14 41  1  0  0  0  0
 15 20  2  0  0  0  0
 15 16  1  0  0  0  0
 16 17  2  0  0  0  0
 16 42  1  0  0  0  0
 17 18  1  0  0  0  0
 17 43  1  0  0  0  0
 18 19  2  0  0  0  0
 18 22  1  0  0  0  0
 19 20  1  0  0  0  0
 19 21  1  0  0  0  0
 20 44  1  0  0  0  0
 21 45  1  0  0  0  0
 22 23  1  0  0  0  0
 23 46  1  0  0  0  0
 23 47  1  0  0  0  0
 23 48  1  0  0  0  0
 24 49  1  0  0  0  0
 25 50  1  0  0  0  0
 25 51  1  0  0  0  0
 25 52  1  0  0  0  0
M  END
> <Name>
ZINC28090587

> <reference>
BDB4997

> <quality>
0.660

> <status>
decoy

> <atoms in reference ligand area>
15

> <score>
-25.2547

$$$$
ZINC06041659
      BALL 1.4.0 (Jan  4 2012, 23:22:29)

 37 38  0999  0  0  0  0  0  0999 V2000
  -33.8346   13.3013  -17.5442 C   0  0  0  0  0  0  0  0  0  0  0  0
  -33.1234   13.9349  -18.6401 O   0  0  0  0  0  0  0  0  0  0  0  0
  -33.0605   13.2584  -19.7977 C   0  0  0  0  0  0  0  0  0  0  0  0
  -32.3361   13.6444  -20.6844 O   0  0  0  0  0  0  0  0  0  0  0  0
  -33.8937   12.0177  -19.9917 C   0  0  0  0  0  0  0  0  0  0  0  0
  -33.6483   11.4686  -21.3274 N   0  0  0  0  0  0  0  0  0  0  0  0
  -32.7170   10.1109  -21.5062 S   0  0  0  0  0  0  0  0  0  0  0  0
  -32.5282    9.5736  -20.2043 O   0  0  0  0  0  0  0  0  0  0  0  0
  -31.6294   10.4722  -22.3463 O   0  0  0  0  0  0  0  0  0  0  0  0
  -33.6764    8.9354  -22.4018 C   0  0  0  0  0  0  0  0  0  0  0  0
  -34.4862    8.0419  -21.7160 C   0  0  0  0  0  0  0  0  0  0  0  0
  -35.2435    7.1161  -22.4028 C   0  0  0  0  0  0  0  0  0  0  0  0
  -35.1962    7.0768  -23.7884 C   0  0  0  0  0  0  0  0  0  0  0  0
  -34.3780    7.9792  -24.4880 C   0  0  0  0  0  0  0  0  0  0  0  0
  -33.6170    8.9109  -23.7770 C   0  0  0  0  0  0  0  0  0  0  0  0
  -34.5341    7.7164  -25.8117 N   0  0  0  0  0  0  0  0  0  0  0  0
  -35.3733    6.7243  -25.9667 C   0  0  0  0  0  0  0  0  0  0  0  0
  -35.8145    6.2944  -24.7487 N   0  0  0  0  0  0  0  0  0  0  0  0
  -35.7604    6.1935  -27.1853 N   0  0  0  0  0  0  0  0  0  0  0  0
  -35.1162    6.5543  -28.3128 C   0  0  0  0  0  0  0  0  0  0  0  0
  -34.6181    7.6590  -28.4008 O   0  0  0  0  0  0  0  0  0  0  0  0
  -35.0246    5.6908  -29.3415 O   0  0  0  0  0  0  0  0  0  0  0  0
  -33.9777    5.9364  -30.3172 C   0  0  0  0  0  0  0  0  0  0  0  0
  -34.9039   13.3545  -17.7966 H   0  0  0  0  0  0  0  0  0  0  0  0
  -33.6644   13.9314  -16.6587 H   0  0  0  0  0  0  0  0  0  0  0  0
  -33.5102   12.2644  -17.3720 H   0  0  0  0  0  0  0  0  0  0  0  0
  -34.9594   12.2708  -19.8902 H   0  0  0  0  0  0  0  0  0  0  0  0
  -33.6205   11.2700  -19.2325 H   0  0  0  0  0  0  0  0  0  0  0  0
  -34.0549   11.9268  -22.1553 H   0  0  0  0  0  0  0  0  0  0  0  0
  -34.5245    8.0720  -20.6171 H   0  0  0  0  0  0  0  0  0  0  0  0
  -35.8835    6.4104  -21.8529 H   0  0  0  0  0  0  0  0  0  0  0  0
  -32.9727    9.6223  -24.3143 H   0  0  0  0  0  0  0  0  0  0  0  0
  -36.4831    5.5301  -24.5762 H   0  0  0  0  0  0  0  0  0  0  0  0
  -36.5409    5.5228  -27.2303 H   0  0  0  0  0  0  0  0  0  0  0  0
  -33.1070    6.3009  -29.7524 H   0  0  0  0  0  0  0  0  0  0  0  0
  -34.3351    6.7583  -30.9550 H   0  0  0  0  0  0  0  0  0  0  0  0
  -33.7314    5.0423  -30.9087 H   0  0  0  0  0  0  0  0  0  0  0  0
  1  2  1  0  0  0  0
  1 24  1  0  0  0  0
  1 25  1  0  0  0  0
  1 26  1  0  0  0  0
  2  3  1  0  0  0  0
  3  4  2  0  0  0  0
  3  5  1  0  0  0  0
  5  6  1  0  0  0  0
  5 27  1  0  0  0  0
  5 28  1  0  0  0  0
  6  7  1  0  0  0  0
  6 29  1  0  0  0  0
  7  8  2  0  0  0  0
  7  9  2  0  0  0  0
  7 10  1  0  0  0  0
 10 15  1  0  0  0  0
 10 11  2  0  0  0  0
 11 12  1  0  0  0  0
 11 30  1  0  0  0  0
 12 13  2  0  0  0  0
 12 31  1  0  0  0  0
 13 18  1  0  0  0  0
 13 14  1  0  0  0  0
 14 15  2  0  0  0  0
 14 16  1  0  0  0  0
 15 32  1  0  0  0  0
 16 17  2  0  0  0  0
 17 18  1  0  0  0  0
 17 19  1  0  0  0  0
 18 33  1  0  0  0  0
 19 20  1  0  0  0  0
 19 34  1  0  0  0  0
 20 21  2  0  0  0  0
 20 22  1  0  0  0  0
 22 23  1  0  0  0  0
 23 35  1  0  0  0  0
 23 36  1  0  0  0  0
 23 37  1  0  0  0  0
M  END
> <Name>
ZINC06041659

> <reference>
BDB4942

> <quality>
0.611

> <status>
decoy

> <atoms in reference ligand area>
10

> <score>
-25.1473

$$$$
ZINC06088021
      BALL 1.4.0 (Jan  4 2012, 23:22:29)

 38 39  0999  0  0  0  0  0  0999 V2000
  -33.5927    8.2709  -22.3811 C   0  0  0  0  0  0  0  0  0  0  0  0
  -33.4770    7.7258  -23.6416 C   0  0  0  0  0  0  0  0  0  0  0  0
  -34.3842    8.0647  -24.6326 C   0  0  0  0  0  0  0  0  0  0  0  0
  -35.4172    8.9481  -24.3629 C   0  0  0  0  0  0  0  0  0  0  0  0
  -35.5490    9.4962  -23.1055 C   0  0  0  0  0  0  0  0  0  0  0  0
  -34.6365    9.1590  -22.1001 C   0  0  0  0  0  0  0  0  0  0  0  0
  -34.7703    9.7402  -20.7555 C   0  0  0  0  0  0  0  0  0  0  0  0
  -35.6909    9.4073  -20.0399 O   0  0  0  0  0  0  0  0  0  0  0  0
  -33.7633   10.7495  -20.2673 C   0  0  0  0  0  0  0  0  0  0  0  0
  -32.4814   10.6320  -21.0941 C   0  0  0  0  0  0  0  0  0  0  0  0
  -31.3619   12.3631  -22.3638 C   0  0  0  0  0  0  0  0  0  0  0  0
  -30.1304   11.4558  -22.3968 C   0  0  0  0  0  0  0  0  0  0  0  0
  -30.3751   10.3111  -23.3460 C   0  0  0  0  0  0  0  0  0  0  0  0
  -29.4885    9.3638  -23.7067 C   0  0  0  0  0  0  0  0  0  0  0  0
  -30.0954    8.5341  -24.5683 N   0  0  0  0  0  0  0  0  0  0  0  0
  -31.3269    8.9266  -24.7488 C   0  0  0  0  0  0  0  0  0  0  0  0
  -31.5415   10.0342  -24.0068 N   0  0  0  0  0  0  0  0  0  0  0  0
  -31.2785   13.2799  -21.1706 C   0  0  0  0  0  0  0  0  0  0  0  0
  -30.2573   13.3437  -20.5281 O   0  0  0  0  0  0  0  0  0  0  0  0
  -34.2263    7.3788  -26.2196 Cl  0  0  0  0  0  0  0  0  0  0  0  0
  -32.5746   11.5298  -22.2608 N   0  3  0  0  0  0  0  0  0  0  0  0
  -32.3388   14.0254  -20.8216 O   0  5  0  0  0  0  0  0  0  0  0  0
  -32.8662    8.0084  -21.5980 H   0  0  0  0  0  0  0  0  0  0  0  0
  -32.6625    7.0200  -23.8615 H   0  0  0  0  0  0  0  0  0  0  0  0
  -36.1338    9.2125  -25.1545 H   0  0  0  0  0  0  0  0  0  0  0  0
  -36.3697   10.1971  -22.8927 H   0  0  0  0  0  0  0  0  0  0  0  0
  -34.1773   11.7628  -20.3758 H   0  0  0  0  0  0  0  0  0  0  0  0
  -33.5346   10.5584  -19.2084 H   0  0  0  0  0  0  0  0  0  0  0  0
  -31.6180   10.9207  -20.4767 H   0  0  0  0  0  0  0  0  0  0  0  0
  -32.3588    9.5945  -21.4386 H   0  0  0  0  0  0  0  0  0  0  0  0
  -31.4035   12.9649  -23.2837 H   0  0  0  0  0  0  0  0  0  0  0  0
  -29.2582   12.0334  -22.7369 H   0  0  0  0  0  0  0  0  0  0  0  0
  -29.9378   11.0603  -21.3885 H   0  0  0  0  0  0  0  0  0  0  0  0
  -28.4489    9.2843  -23.3563 H   0  0  0  0  0  0  0  0  0  0  0  0
  -32.0674    8.4363  -25.3979 H   0  0  0  0  0  0  0  0  0  0  0  0
  -32.4189   10.5706  -23.9489 H   0  0  0  0  0  0  0  0  0  0  0  0
  -32.6753   10.9671  -23.1176 H   0  0  0  0  0  0  0  0  0  0  0  0
  -33.3989   12.1391  -22.1588 H   0  0  0  0  0  0  0  0  0  0  0  0
  1  6  2  0  0  0  0
  1  2  1  0  0  0  0
  1 23  1  0  0  0  0
  2  3  2  0  0  0  0
  2 24  1  0  0  0  0
  3  4  1  0  0  0  0
  3 20  1  0  0  0  0
  4  5  2  0  0  0  0
  4 25  1  0  0  0  0
  5  6  1  0  0  0  0
  5 26  1  0  0  0  0
  6  7  1  0  0  0  0
  7  8  2  0  0  0  0
  7  9  1  0  0  0  0
  9 10  1  0  0  0  0
  9 27  1  0  0  0  0
  9 28  1  0  0  0  0
 10 21  1  0  0  0  0
 10 29  1  0  0  0  0
 10 30  1  0  0  0  0
 11 12  1  0  0  0  0
 11 18  1  0  0  0  0
 11 21  1  0  0  0  0
 11 31  1  0  0  0  0
 12 13  1  0  0  0  0
 12 32  1  0  0  0  0
 12 33  1  0  0  0  0
 13 17  1  0  0  0  0
 13 14  2  0  0  0  0
 14 15  1  0  0  0  0
 14 34  1  0  0  0  0
 15 16  2  0  0  0  0
 16 17  1  0  0  0  0
 16 35  1  0  0  0  0
 17 36  1  0  0  0  0
 18 19  2  0  0  0  0
 18 22  1  0  0  0  0
 21 37  1  0  0  0  0
 21 38  1  0  0  0  0
M  END
> <Name>
ZINC06088021

> <reference>
BDB5023

> <quality>
0.735

> <status>
decoy

> <atoms in reference ligand area>
18

> <score>
-24.9359

$$$$
ZINC28314515
      BALL 1.4.0 (Jan  4 2012, 23:22:29)

 59 60  0999  0  0  0  0  0  0999 V2000
  -36.1477    9.2634  -23.7909 C   0  0  0  0  0  0  0  0  0  0  0  0
  -35.7637    8.1322  -24.5752 O   0  0  0  0  0  0  0  0  0  0  0  0
  -34.5386    7.5964  -24.3275 C   0  0  0  0  0  0  0  0  0  0  0  0
  -33.9016    7.8482  -23.1218 C   0  0  0  0  0  0  0  0  0  0  0  0
  -32.6559    7.3047  -22.8695 C   0  0  0  0  0  0  0  0  0  0  0  0
  -32.0378    6.5129  -23.8192 C   0  0  0  0  0  0  0  0  0  0  0  0
  -32.6708    6.2514  -25.0249 C   0  0  0  0  0  0  0  0  0  0  0  0
  -33.9231    6.7962  -25.2827 C   0  0  0  0  0  0  0  0  0  0  0  0
  -34.5452    6.5464  -26.4670 O   0  0  0  0  0  0  0  0  0  0  0  0
  -34.4701    7.5648  -27.4667 C   0  0  0  0  0  0  0  0  0  0  0  0
  -34.9917    7.0253  -28.7736 C   0  0  0  0  0  0  0  0  0  0  0  0
  -34.8799    5.8452  -29.0303 O   0  0  0  0  0  0  0  0  0  0  0  0
  -35.5825    7.8541  -29.6571 N   0  0  0  0  0  0  0  0  0  0  0  0
  -32.0642    5.4680  -25.9564 O   0  0  0  0  0  0  0  0  0  0  0  0
  -31.9927    5.9809  -27.2883 C   0  0  0  0  0  0  0  0  0  0  0  0
  -31.9671    7.5813  -21.5580 C   0  0  0  0  0  0  0  0  0  0  0  0
  -32.9593    8.0159  -20.5657 N   0  3  0  0  0  0  0  0  0  0  0  0
  -33.2962    9.4345  -20.7444 C   0  0  0  0  0  0  0  0  0  0  0  0
  -32.0527   10.2703  -20.5822 C   0  0  0  0  0  0  0  0  0  0  0  0
  -31.7006   10.7491  -19.3338 C   0  0  0  0  0  0  0  0  0  0  0  0
  -30.5551   11.5125  -19.1815 C   0  0  0  0  0  0  0  0  0  0  0  0
  -29.7641   11.8072  -20.2880 C   0  0  0  0  0  0  0  0  0  0  0  0
  -30.1182   11.3269  -21.5378 C   0  0  0  0  0  0  0  0  0  0  0  0
  -31.2631   10.5578  -21.6851 C   0  0  0  0  0  0  0  0  0  0  0  0
  -31.6114   10.0859  -22.9120 O   0  0  0  0  0  0  0  0  0  0  0  0
  -30.7526   10.4209  -24.0038 C   0  0  0  0  0  0  0  0  0  0  0  0
  -28.6418   12.5611  -20.1412 O   0  0  0  0  0  0  0  0  0  0  0  0
  -28.2164   12.8378  -18.8053 C   0  0  0  0  0  0  0  0  0  0  0  0
  -30.2063   11.9786  -17.9516 O   0  0  0  0  0  0  0  0  0  0  0  0
  -31.2208   12.6471  -17.1993 C   0  0  0  0  0  0  0  0  0  0  0  0
  -36.0989   10.1348  -24.4604 H   0  0  0  0  0  0  0  0  0  0  0  0
  -35.3705    9.3848  -23.0220 H   0  0  0  0  0  0  0  0  0  0  0  0
  -37.1464    9.1517  -23.3434 H   0  0  0  0  0  0  0  0  0  0  0  0
  -34.3882    8.4811  -22.3652 H   0  0  0  0  0  0  0  0  0  0  0  0
  -31.0426    6.0897  -23.6181 H   0  0  0  0  0  0  0  0  0  0  0  0
  -33.4238    7.8802  -27.5925 H   0  0  0  0  0  0  0  0  0  0  0  0
  -35.0785    8.4276  -27.1578 H   0  0  0  0  0  0  0  0  0  0  0  0
  -35.3998    7.7471  -30.6651 H   0  0  0  0  0  0  0  0  0  0  0  0
  -36.2166    8.5943  -29.3243 H   0  0  0  0  0  0  0  0  0  0  0  0
  -31.9960    7.0771  -27.1982 H   0  0  0  0  0  0  0  0  0  0  0  0
  -32.9265    5.6805  -27.7860 H   0  0  0  0  0  0  0  0  0  0  0  0
  -31.1084    5.6221  -27.8355 H   0  0  0  0  0  0  0  0  0  0  0  0
  -31.4717    6.6654  -21.2036 H   0  0  0  0  0  0  0  0  0  0  0  0
  -31.2169    8.3738  -21.6967 H   0  0  0  0  0  0  0  0  0  0  0  0
  -33.8132    7.4490  -20.6685 H   0  0  0  0  0  0  0  0  0  0  0  0
  -32.5789    7.8745  -19.6191 H   0  0  0  0  0  0  0  0  0  0  0  0
  -34.0392    9.7339  -19.9905 H   0  0  0  0  0  0  0  0  0  0  0  0
  -33.7123    9.5888  -21.7509 H   0  0  0  0  0  0  0  0  0  0  0  0
  -32.3307   10.5234  -18.4609 H   0  0  0  0  0  0  0  0  0  0  0  0
  -29.4921   11.5552  -22.4129 H   0  0  0  0  0  0  0  0  0  0  0  0
  -29.7268   10.2138  -23.6651 H   0  0  0  0  0  0  0  0  0  0  0  0
  -30.8470   11.5071  -24.1494 H   0  0  0  0  0  0  0  0  0  0  0  0
  -30.9958    9.8664  -24.9222 H   0  0  0  0  0  0  0  0  0  0  0  0
  -29.0889   13.2581  -18.2837 H   0  0  0  0  0  0  0  0  0  0  0  0
  -27.4552   13.6284  -18.8805 H   0  0  0  0  0  0  0  0  0  0  0  0
  -27.8264   11.9477  -18.2899 H   0  0  0  0  0  0  0  0  0  0  0  0
  -31.5005   13.5379  -17.7808 H   0  0  0  0  0  0  0  0  0  0  0  0
  -30.7422   12.9878  -16.2694 H   0  0  0  0  0  0  0  0  0  0  0  0
  -32.0914   12.0064  -16.9957 H   0  0  0  0  0  0  0  0  0  0  0  0
  1  2  1  0  0  0  0
  1 31  1  0  0  0  0
  1 32  1  0  0  0  0
  1 33  1  0  0  0  0
  2  3  1  0  0  0  0
  3  8  2  0  0  0  0
  3  4  1  0  0  0  0
  4  5  2  0  0  0  0
  4 34  1  0  0  0  0
  5  6  1  0  0  0  0
  5 16  1  0  0  0  0
  6  7  2  0  0  0  0
  6 35  1  0  0  0  0
  7  8  1  0  0  0  0
  7 14  1  0  0  0  0
  8  9  1  0  0  0  0
  9 10  1  0  0  0  0
 10 11  1  0  0  0  0
 10 36  1  0  0  0  0
 10 37  1  0  0  0  0
 11 12  2  0  0  0  0
 11 13  1  0  0  0  0
 13 38  1  0  0  0  0
 13 39  1  0  0  0  0
 14 15  1  0  0  0  0
 15 40  1  0  0  0  0
 15 41  1  0  0  0  0
 15 42  1  0  0  0  0
 16 17  1  0  0  0  0
 16 43  1  0  0  0  0
 16 44  1  0  0  0  0
 17 18  1  0  0  0  0
 17 45  1  0  0  0  0
 17 46  1  0  0  0  0
 18 19  1  0  0  0  0
 18 47  1  0  0  0  0
 18 48  1  0  0  0  0
 19 24  2  0  0  0  0
 19 20  1  0  0  0  0
 20 21  2  0  0  0  0
 20 49  1  0  0  0  0
 21 22  1  0  0  0  0
 21 29  1  0  0  0  0
 22 23  2  0  0  0  0
 22 27  1  0  0  0  0
 23 24  1  0  0  0  0
 23 50  1  0  0  0  0
 24 25  1  0  0  0  0
 25 26  1  0  0  0  0
 26 51  1  0  0  0  0
 26 52  1  0  0  0  0
 26 53  1  0  0  0  0
 27 28  1  0  0  0  0
 28 54  1  0  0  0  0
 28 55  1  0  0  0  0
 28 56  1  0  0  0  0
 29 30  1  0  0  0  0
 30 57  1  0  0  0  0
 30 58  1  0  0  0  0
 30 59  1  0  0  0  0
M  END
> <Name>
ZINC28314515

> <reference>
BDB4948

> <quality>
0.751

> <status>
decoy

> <atoms in reference ligand area>
18

> <score>
-24.5265

$$$$
ZINC20306535
      BALL 1.4.0 (Jan  4 2012, 23:22:29)

 33 33  0999  0  0  0  0  0  0999 V2000
  -30.3207   10.4647  -23.9710 C   0  0  0  0  0  0  0  0  0  0  0  0
  -30.6464   10.9350  -22.6364 O   0  0  0  0  0  0  0  0  0  0  0  0
  -31.8040   10.5016  -22.1008 C   0  0  0  0  0  0  0  0  0  0  0  0
  -32.6057    9.9035  -22.7900 O   0  0  0  0  0  0  0  0  0  0  0  0
  -32.0984   10.7539  -20.6753 C   0  0  0  0  0  0  0  0  0  0  0  0
  -33.0961   11.6621  -20.3154 C   0  0  0  0  0  0  0  0  0  0  0  0
  -33.3661   11.8926  -18.9825 C   0  0  0  0  0  0  0  0  0  0  0  0
  -32.6511   11.2262  -18.0031 C   0  0  0  0  0  0  0  0  0  0  0  0
  -31.6576   10.3289  -18.3527 C   0  0  0  0  0  0  0  0  0  0  0  0
  -31.3807   10.0849  -19.6818 C   0  0  0  0  0  0  0  0  0  0  0  0
  -32.9515   11.4836  -16.5489 C   0  0  0  0  0  0  0  0  0  0  0  0
  -34.2268   10.3254  -15.9808 S   0  0  0  0  0  0  0  0  0  0  0  0
  -34.0463   10.3249  -14.1757 C   0  0  0  0  0  0  0  0  0  0  0  0
  -35.3342    9.8044  -13.5346 C   0  0  0  0  0  0  0  0  0  0  0  0
  -35.2816   10.0315  -12.0457 C   0  0  0  0  0  0  0  0  0  0  0  0
  -34.2499    9.8506  -11.4432 O   0  0  0  0  0  0  0  0  0  0  0  0
  -36.3806   10.4346  -11.3889 O   0  5  0  0  0  0  0  0  0  0  0  0
  -36.4861   10.5204  -14.0987 N   0  3  0  0  0  0  0  0  0  0  0  0
  -29.6158   11.1957  -24.3937 H   0  0  0  0  0  0  0  0  0  0  0  0
  -31.2521   10.5170  -24.5539 H   0  0  0  0  0  0  0  0  0  0  0  0
  -29.8992    9.4486  -23.9711 H   0  0  0  0  0  0  0  0  0  0  0  0
  -33.6654   12.1925  -21.0929 H   0  0  0  0  0  0  0  0  0  0  0  0
  -34.1518   12.6079  -18.6974 H   0  0  0  0  0  0  0  0  0  0  0  0
  -31.0872    9.8090  -17.5689 H   0  0  0  0  0  0  0  0  0  0  0  0
  -30.5963    9.3650  -19.9584 H   0  0  0  0  0  0  0  0  0  0  0  0
  -32.0369   11.3414  -15.9546 H   0  0  0  0  0  0  0  0  0  0  0  0
  -33.3128   12.5152  -16.4249 H   0  0  0  0  0  0  0  0  0  0  0  0
  -33.2066    9.6737  -13.8912 H   0  0  0  0  0  0  0  0  0  0  0  0
  -33.8511   11.3491  -13.8254 H   0  0  0  0  0  0  0  0  0  0  0  0
  -35.4361    8.7282  -13.7380 H   0  0  0  0  0  0  0  0  0  0  0  0
  -36.5231   10.3656  -15.1163 H   0  0  0  0  0  0  0  0  0  0  0  0
  -36.3918   11.5283  -13.9085 H   0  0  0  0  0  0  0  0  0  0  0  0
  -37.3535   10.1705  -13.6675 H   0  0  0  0  0  0  0  0  0  0  0  0
  1  2  1  0  0  0  0
  1 19  1  0  0  0  0
  1 20  1  0  0  0  0
  1 21  1  0  0  0  0
  2  3  1  0  0  0  0
  3  4  2  0  0  0  0
  3  5  1  0  0  0  0
  5 10  2  0  0  0  0
  5  6  1  0  0  0  0
  6  7  2  0  0  0  0
  6 22  1  0  0  0  0
  7  8  1  0  0  0  0
  7 23  1  0  0  0  0
  8  9  2  0  0  0  0
  8 11  1  0  0  0  0
  9 10  1  0  0  0  0
  9 24  1  0  0  0  0
 10 25  1  0  0  0  0
 11 12  1  0  0  0  0
 11 26  1  0  0  0  0
 11 27  1  0  0  0  0
 12 13  1  0  0  0  0
 13 14  1  0  0  0  0
 13 28  1  0  0  0  0
 13 29  1  0  0  0  0
 14 15  1  0  0  0  0
 14 18  1  0  0  0  0
 14 30  1  0  0  0  0
 15 16  2  0  0  0  0
 15 17  1  0  0  0  0
 18 31  1  0  0  0  0
 18 32  1  0  0  0  0
 18 33  1  0  0  0  0
M  END
> <Name>
ZINC20306535

> <reference>
BDB4995

> <quality>
0.764

> <status>
decoy

> <atoms in reference ligand area>
12

> <score>
-24.4422

$$$$
ZINC15418382
      BALL 1.4.0 (Jan  4 2012, 23:22:29)

 43 44  0999  0  0  0  0  0  0999 V2000
  -27.1758    6.7436  -27.3589 C   0  0  0  0  0  0  0  0  0  0  0  0
  -27.9844    5.8026  -26.6500 O   0  0  0  0  0  0  0  0  0  0  0  0
  -29.1958    6.2370  -26.2105 C   0  0  0  0  0  0  0  0  0  0  0  0
  -29.2682    7.1550  -25.1777 C   0  0  0  0  0  0  0  0  0  0  0  0
  -30.5104    7.6000  -24.7274 C   0  0  0  0  0  0  0  0  0  0  0  0
  -31.6780    7.1151  -25.3153 C   0  0  0  0  0  0  0  0  0  0  0  0
  -31.6021    6.2004  -26.3507 C   0  0  0  0  0  0  0  0  0  0  0  0
  -30.3617    5.7577  -26.7992 C   0  0  0  0  0  0  0  0  0  0  0  0
  -30.2889    4.8550  -27.8138 O   0  0  0  0  0  0  0  0  0  0  0  0
  -29.4104    5.1659  -28.8971 C   0  0  0  0  0  0  0  0  0  0  0  0
  -32.7406    5.7304  -26.9273 O   0  0  0  0  0  0  0  0  0  0  0  0
  -33.7043    6.6996  -27.3445 C   0  0  0  0  0  0  0  0  0  0  0  0
  -30.5898    8.5830  -23.6210 C   0  0  0  0  0  0  0  0  0  0  0  0
  -29.4809    9.1797  -23.2039 N   0  0  0  0  0  0  0  0  0  0  0  0
  -29.5173   10.0611  -22.2195 C   0  0  0  0  0  0  0  0  0  0  0  0
  -30.7331   10.3586  -21.6223 C   0  0  0  0  0  0  0  0  0  0  0  0
  -31.8731    9.7167  -22.0825 C   0  0  0  0  0  0  0  0  0  0  0  0
  -31.7680    8.8453  -23.0710 N   0  0  0  0  0  0  0  0  0  0  0  0
  -30.8139   11.3584  -20.4975 C   0  0  0  0  0  0  0  0  0  0  0  0
  -32.1807   12.0457  -20.5233 C   0  0  0  0  0  0  0  0  0  0  0  0
  -32.0299   13.4434  -21.0661 C   0  0  0  0  0  0  0  0  0  0  0  0
  -32.9413   13.9588  -21.6692 O   0  0  0  0  0  0  0  0  0  0  0  0
  -30.8832   14.1159  -20.8796 O   0  5  0  0  0  0  0  0  0  0  0  0
  -30.6407   10.6860  -19.1979 N   0  3  0  0  0  0  0  0  0  0  0  0
  -26.1502    6.6159  -26.9820 H   0  0  0  0  0  0  0  0  0  0  0  0
  -27.5249    7.7416  -27.0556 H   0  0  0  0  0  0  0  0  0  0  0  0
  -27.2259    6.6111  -28.4498 H   0  0  0  0  0  0  0  0  0  0  0  0
  -28.3462    7.5335  -24.7123 H   0  0  0  0  0  0  0  0  0  0  0  0
  -32.6590    7.4596  -24.9561 H   0  0  0  0  0  0  0  0  0  0  0  0
  -28.4591    5.4805  -28.4432 H   0  0  0  0  0  0  0  0  0  0  0  0
  -29.8454    6.0380  -29.4074 H   0  0  0  0  0  0  0  0  0  0  0  0
  -29.2702    4.3210  -29.5872 H   0  0  0  0  0  0  0  0  0  0  0  0
  -33.1336    7.5544  -27.7364 H   0  0  0  0  0  0  0  0  0  0  0  0
  -34.2245    7.0305  -26.4336 H   0  0  0  0  0  0  0  0  0  0  0  0
  -34.4081    6.3052  -28.0923 H   0  0  0  0  0  0  0  0  0  0  0  0
  -28.5944   10.5526  -21.8780 H   0  0  0  0  0  0  0  0  0  0  0  0
  -32.8529    9.9300  -21.6304 H   0  0  0  0  0  0  0  0  0  0  0  0
  -30.0136   12.1015  -20.6292 H   0  0  0  0  0  0  0  0  0  0  0  0
  -32.5886   12.0915  -19.5028 H   0  0  0  0  0  0  0  0  0  0  0  0
  -32.8662   11.4749  -21.1670 H   0  0  0  0  0  0  0  0  0  0  0  0
  -29.9122    9.9634  -19.2869 H   0  0  0  0  0  0  0  0  0  0  0  0
  -31.5292   10.2403  -18.9281 H   0  0  0  0  0  0  0  0  0  0  0  0
  -30.3642   11.3722  -18.4812 H   0  0  0  0  0  0  0  0  0  0  0  0
  1  2  1  0  0  0  0
  1 25  1  0  0  0  0
  1 26  1  0  0  0  0
  1 27  1  0  0  0  0
  2  3  1  0  0  0  0
  3  8  2  0  0  0  0
  3  4  1  0  0  0  0
  4  5  2  0  0  0  0
  4 28  1  0  0  0  0
  5  6  1  0  0  0  0
  5 13  1  0  0  0  0
  6  7  2  0  0  0  0
  6 29  1  0  0  0  0
  7  8  1  0  0  0  0
  7 11  1  0  0  0  0
  8  9  1  0  0  0  0
  9 10  1  0  0  0  0
 10 30  1  0  0  0  0
 10 31  1  0  0  0  0
 10 32  1  0  0  0  0
 11 12  1  0  0  0  0
 12 33  1  0  0  0  0
 12 34  1  0  0  0  0
 12 35  1  0  0  0  0
 13 18  2  0  0  0  0
 13 14  1  0  0  0  0
 14 15  2  0  0  0  0
 15 16  1  0  0  0  0
 15 36  1  0  0  0  0
 16 17  2  0  0  0  0
 16 19  1  0  0  0  0
 17 18  1  0  0  0  0
 17 37  1  0  0  0  0
 19 20  1  0  0  0  0
 19 24  1  0  0  0  0
 19 38  1  0  0  0  0
 20 21  1  0  0  0  0
 20 39  1  0  0  0  0
 20 40  1  0  0  0  0
 21 22  2  0  0  0  0
 21 23  1  0  0  0  0
 24 41  1  0  0  0  0
 24 42  1  0  0  0  0
 24 43  1  0  0  0  0
M  END
> <Name>
ZINC15418382

> <reference>
BDB4934

> <quality>
0.656

> <status>
decoy

> <atoms in reference ligand area>
13

> <score>
-24.3827

$$$$
ZINC04372269
      BALL 1.4.0 (Jan  4 2012, 23:22:29)

 36 37  0999  0  0  0  0  0  0999 V2000
  -27.9823   15.3233  -18.2593 C   0  0  0  0  0  0  0  0  0  0  0  0
  -28.9125   14.3858  -17.8407 C   0  0  0  0  0  0  0  0  0  0  0  0
  -28.8262   13.0939  -18.3531 C   0  0  0  0  0  0  0  0  0  0  0  0
  -27.8237   12.7972  -19.2673 C   0  0  0  0  0  0  0  0  0  0  0  0
  -26.9617   13.7208  -19.6427 N   0  0  0  0  0  0  0  0  0  0  0  0
  -27.0133   14.9518  -19.1724 C   0  0  0  0  0  0  0  0  0  0  0  0
  -29.7400   12.1105  -17.9572 N   0  0  0  0  0  0  0  0  0  0  0  0
  -30.7264   11.7313  -18.7935 C   0  0  0  0  0  0  0  0  0  0  0  0
  -30.7726   12.1794  -19.9196 O   0  0  0  0  0  0  0  0  0  0  0  0
  -31.7721   10.7504  -18.3295 C   0  0  0  0  0  0  0  0  0  0  0  0
  -32.8995   10.6805  -19.3616 C   0  0  0  0  0  0  0  0  0  0  0  0
  -33.2748   12.0753  -19.7909 C   0  0  0  0  0  0  0  0  0  0  0  0
  -33.8652   12.2491  -20.8307 O   0  0  0  0  0  0  0  0  0  0  0  0
  -33.3439   10.1257  -21.6761 C   0  0  0  0  0  0  0  0  0  0  0  0
  -32.8470    9.3305  -22.8558 C   0  0  0  0  0  0  0  0  0  0  0  0
  -33.0366    8.0135  -23.0528 C   0  0  0  0  0  0  0  0  0  0  0  0
  -32.4068    7.6873  -24.2758 C   0  0  0  0  0  0  0  0  0  0  0  0
  -31.8701    8.8246  -24.7532 C   0  0  0  0  0  0  0  0  0  0  0  0
  -32.1448    9.8177  -23.8918 O   0  0  0  0  0  0  0  0  0  0  0  0
  -32.9531   13.1248  -19.0184 O   0  5  0  0  0  0  0  0  0  0  0  0
  -32.4367    9.9124  -20.5327 N   0  3  0  0  0  0  0  0  0  0  0  0
  -28.0145   16.3514  -17.8695 H   0  0  0  0  0  0  0  0  0  0  0  0
  -29.6997   14.6552  -17.1212 H   0  0  0  0  0  0  0  0  0  0  0  0
  -27.7483   11.7812  -19.6821 H   0  0  0  0  0  0  0  0  0  0  0  0
  -26.2748   15.6933  -19.5114 H   0  0  0  0  0  0  0  0  0  0  0  0
  -29.6585   11.6767  -17.0266 H   0  0  0  0  0  0  0  0  0  0  0  0
  -32.1811   11.0788  -17.3625 H   0  0  0  0  0  0  0  0  0  0  0  0
  -31.3172    9.7553  -18.2162 H   0  0  0  0  0  0  0  0  0  0  0  0
  -33.7772   10.1870  -18.9188 H   0  0  0  0  0  0  0  0  0  0  0  0
  -33.3628   11.1946  -21.9351 H   0  0  0  0  0  0  0  0  0  0  0  0
  -34.3572    9.7926  -21.4075 H   0  0  0  0  0  0  0  0  0  0  0  0
  -33.5778    7.3227  -22.3894 H   0  0  0  0  0  0  0  0  0  0  0  0
  -32.3640    6.6941  -24.7467 H   0  0  0  0  0  0  0  0  0  0  0  0
  -31.3025    8.9243  -25.6901 H   0  0  0  0  0  0  0  0  0  0  0  0
  -31.4875   10.2194  -20.7889 H   0  0  0  0  0  0  0  0  0  0  0  0
  -32.4148    8.9098  -20.2978 H   0  0  0  0  0  0  0  0  0  0  0  0
  1  6  2  0  0  0  0
  1  2  1  0  0  0  0
  1 22  1  0  0  0  0
  2  3  2  0  0  0  0
  2 23  1  0  0  0  0
  3  4  1  0  0  0  0
  3  7  1  0  0  0  0
  4  5  2  0  0  0  0
  4 24  1  0  0  0  0
  5  6  1  0  0  0  0
  6 25  1  0  0  0  0
  7  8  1  0  0  0  0
  7 26  1  0  0  0  0
  8  9  2  0  0  0  0
  8 10  1  0  0  0  0
 10 11  1  0  0  0  0
 10 27  1  0  0  0  0
 10 28  1  0  0  0  0
 11 12  1  0  0  0  0
 11 21  1  0  0  0  0
 11 29  1  0  0  0  0
 12 13  2  0  0  0  0
 12 20  1  0  0  0  0
 14 15  1  0  0  0  0
 14 21  1  0  0  0  0
 14 30  1  0  0  0  0
 14 31  1  0  0  0  0
 15 19  1  0  0  0  0
 15 16  2  0  0  0  0
 16 17  1  0  0  0  0
 16 32  1  0  0  0  0
 17 18  2  0  0  0  0
 17 33  1  0  0  0  0
 18 19  1  0  0  0  0
 18 34  1  0  0  0  0
 21 35  1  0  0  0  0
 21 36  1  0  0  0  0
M  END
> <Name>
ZINC04372269

> <reference>
BDB4995

> <quality>
0.784

> <status>
decoy

> <atoms in reference ligand area>
17

> <score>
-24.3601

$$$$
ZINC06380326
      BALL 1.4.0 (Jan  4 2012, 23:22:29)

 44 45  0999  0  0  0  0  0  0999 V2000
  -35.2113    8.6495  -25.7118 C   0  0  0  0  0  0  0  0  0  0  0  0
  -35.0350    8.7110  -24.2950 O   0  0  0  0  0  0  0  0  0  0  0  0
  -34.5426    7.5002  -23.7175 C   0  0  0  0  0  0  0  0  0  0  0  0
  -33.9269    7.8010  -22.3485 C   0  0  0  0  0  0  0  0  0  0  0  0
  -32.7362    8.7473  -22.5296 C   0  0  0  0  0  0  0  0  0  0  0  0
  -31.7306    8.1067  -23.4912 C   0  0  0  0  0  0  0  0  0  0  0  0
  -32.4310    7.7941  -24.8161 C   0  0  0  0  0  0  0  0  0  0  0  0
  -33.5467    6.9349  -24.5724 O   0  0  0  0  0  0  0  0  0  0  0  0
  -31.4489    7.0993  -25.7613 C   0  0  0  0  0  0  0  0  0  0  0  0
  -32.0667    6.9113  -27.0361 O   0  0  0  0  0  0  0  0  0  0  0  0
  -30.6496    9.0118  -23.7245 O   0  0  0  0  0  0  0  0  0  0  0  0
  -32.1102    8.9755  -21.2655 O   0  0  0  0  0  0  0  0  0  0  0  0
  -32.0881   10.3476  -20.8670 C   0  0  0  0  0  0  0  0  0  0  0  0
  -31.0289   11.0980  -21.6784 C   0  0  0  0  0  0  0  0  0  0  0  0
  -31.0528   12.5792  -21.2885 C   0  0  0  0  0  0  0  0  0  0  0  0
  -32.4621   13.1336  -21.5186 C   0  0  0  0  0  0  0  0  0  0  0  0
  -33.4660   12.3046  -20.7133 C   0  0  0  0  0  0  0  0  0  0  0  0
  -33.3703   10.9330  -21.1027 O   0  0  0  0  0  0  0  0  0  0  0  0
  -32.5147   14.4963  -21.0916 O   0  0  0  0  0  0  0  0  0  0  0  0
  -30.1180   13.3005  -22.0933 O   0  0  0  0  0  0  0  0  0  0  0  0
  -29.7382   10.5517  -21.3997 O   0  0  0  0  0  0  0  0  0  0  0  0
  -33.4821    6.5834  -21.7471 O   0  0  0  0  0  0  0  0  0  0  0  0
  -35.4214    7.6023  -25.9746 H   0  0  0  0  0  0  0  0  0  0  0  0
  -34.2583    8.9407  -26.1775 H   0  0  0  0  0  0  0  0  0  0  0  0
  -36.0268    9.3075  -26.0465 H   0  0  0  0  0  0  0  0  0  0  0  0
  -35.3721    6.7875  -23.5986 H   0  0  0  0  0  0  0  0  0  0  0  0
  -34.6795    8.2731  -21.6999 H   0  0  0  0  0  0  0  0  0  0  0  0
  -33.0835    9.7069  -22.9404 H   0  0  0  0  0  0  0  0  0  0  0  0
  -31.3385    7.1777  -23.0517 H   0  0  0  0  0  0  0  0  0  0  0  0
  -32.7816    8.7299  -25.2759 H   0  0  0  0  0  0  0  0  0  0  0  0
  -30.5497    7.7220  -25.8785 H   0  0  0  0  0  0  0  0  0  0  0  0
  -31.1661    6.1216  -25.3439 H   0  0  0  0  0  0  0  0  0  0  0  0
  -31.8891    7.6987  -27.6093 H   0  0  0  0  0  0  0  0  0  0  0  0
  -29.8227    8.4991  -23.9074 H   0  0  0  0  0  0  0  0  0  0  0  0
  -31.8455   10.4139  -19.7962 H   0  0  0  0  0  0  0  0  0  0  0  0
  -31.2434   10.9945  -22.7523 H   0  0  0  0  0  0  0  0  0  0  0  0
  -30.7789   12.6888  -20.2289 H   0  0  0  0  0  0  0  0  0  0  0  0
  -32.7116   13.0786  -22.5885 H   0  0  0  0  0  0  0  0  0  0  0  0
  -34.4851   12.6702  -20.9081 H   0  0  0  0  0  0  0  0  0  0  0  0
  -33.2415   12.3974  -19.6405 H   0  0  0  0  0  0  0  0  0  0  0  0
  -33.4552   14.8056  -21.0881 H   0  0  0  0  0  0  0  0  0  0  0  0
  -30.5987   13.7582  -22.8280 H   0  0  0  0  0  0  0  0  0  0  0  0
  -29.8258    9.8135  -20.7458 H   0  0  0  0  0  0  0  0  0  0  0  0
  -34.0639    6.3632  -20.9770 H   0  0  0  0  0  0  0  0  0  0  0  0
  1  2  1  0  0  0  0
  1 23  1  0  0  0  0
  1 24  1  0  0  0  0
  1 25  1  0  0  0  0
  2  3  1  0  0  0  0
  3  8  1  0  0  0  0
  3  4  1  0  0  0  0
  3 26  1  0  0  0  0
  4  5  1  0  0  0  0
  4 22  1  0  0  0  0
  4 27  1  0  0  0  0
  5  6  1  0  0  0  0
  5 12  1  0  0  0  0
  5 28  1  0  0  0  0
  6  7  1  0  0  0  0
  6 11  1  0  0  0  0
  6 29  1  0  0  0  0
  7  8  1  0  0  0  0
  7  9  1  0  0  0  0
  7 30  1  0  0  0  0
  9 10  1  0  0  0  0
  9 31  1  0  0  0  0
  9 32  1  0  0  0  0
 10 33  1  0  0  0  0
 11 34  1  0  0  0  0
 12 13  1  0  0  0  0
 13 18  1  0  0  0  0
 13 14  1  0  0  0  0
 13 35  1  0  0  0  0
 14 15  1  0  0  0  0
 14 21  1  0  0  0  0
 14 36  1  0  0  0  0
 15 16  1  0  0  0  0
 15 20  1  0  0  0  0
 15 37  1  0  0  0  0
 16 17  1  0  0  0  0
 16 19  1  0  0  0  0
 16 38  1  0  0  0  0
 17 18  1  0  0  0  0
 17 39  1  0  0  0  0
 17 40  1  0  0  0  0
 19 41  1  0  0  0  0
 20 42  1  0  0  0  0
 21 43  1  0  0  0  0
 22 44  1  0  0  0  0
M  END
> <Name>
ZINC06380326

> <reference>
BDB4932

> <quality>
0.692

> <status>
decoy

> <atoms in reference ligand area>
15

> <score>
-24.304

$$$$
ZINC06509720
      BALL 1.4.0 (Jan  4 2012, 23:22:29)

 41 42  0999  0  0  0  0  0  0999 V2000
  -30.7243    9.9603  -24.7523 C   0  0  0  0  0  0  0  0  0  0  0  0
  -32.0813   10.2332  -22.7656 C   0  0  0  0  0  0  0  0  0  0  0  0
  -31.1143   10.2243  -21.6099 C   0  0  0  0  0  0  0  0  0  0  0  0
  -29.9179   10.2128  -21.8192 O   0  0  0  0  0  0  0  0  0  0  0  0
  -31.5987   10.2294  -20.2844 C   0  0  0  0  0  0  0  0  0  0  0  0
  -31.7447    9.0331  -19.5609 C   0  0  0  0  0  0  0  0  0  0  0  0
  -32.2172    9.0889  -18.2807 N   0  0  0  0  0  0  0  0  0  0  0  0
  -32.5417   10.2582  -17.7071 C   0  0  0  0  0  0  0  0  0  0  0  0
  -32.9574   10.2544  -16.5651 O   0  0  0  0  0  0  0  0  0  0  0  0
  -32.4234   11.4321  -18.3486 N   0  0  0  0  0  0  0  0  0  0  0  0
  -31.9656   11.4847  -19.6164 C   0  0  0  0  0  0  0  0  0  0  0  0
  -31.8589   12.5504  -20.1947 O   0  0  0  0  0  0  0  0  0  0  0  0
  -32.7959   12.6717  -17.6623 C   0  0  0  0  0  0  0  0  0  0  0  0
  -32.3735    7.8476  -17.5184 C   0  0  0  0  0  0  0  0  0  0  0  0
  -31.0367    7.1634  -17.3933 C   0  0  0  0  0  0  0  0  0  0  0  0
  -30.9145    5.8225  -17.7066 C   0  0  0  0  0  0  0  0  0  0  0  0
  -29.6872    5.1960  -17.5964 C   0  0  0  0  0  0  0  0  0  0  0  0
  -28.5843    5.9077  -17.1628 C   0  0  0  0  0  0  0  0  0  0  0  0
  -28.7076    7.2472  -16.8446 C   0  0  0  0  0  0  0  0  0  0  0  0
  -29.9337    7.8751  -16.9597 C   0  0  0  0  0  0  0  0  0  0  0  0
  -31.4154    7.8394  -20.1248 N   0  0  0  0  0  0  0  0  0  0  0  0
  -31.4592   10.9237  -23.9112 N   0  3  0  0  0  0  0  0  0  0  0  0
  -30.9604    8.9383  -24.4209 H   0  0  0  0  0  0  0  0  0  0  0  0
  -29.6440   10.1365  -24.6434 H   0  0  0  0  0  0  0  0  0  0  0  0
  -31.0157   10.0849  -25.8057 H   0  0  0  0  0  0  0  0  0  0  0  0
  -32.3251    9.1987  -23.0490 H   0  0  0  0  0  0  0  0  0  0  0  0
  -33.0002   10.7624  -22.4733 H   0  0  0  0  0  0  0  0  0  0  0  0
  -32.3268   12.6059  -16.6695 H   0  0  0  0  0  0  0  0  0  0  0  0
  -33.8842   12.6066  -17.5160 H   0  0  0  0  0  0  0  0  0  0  0  0
  -32.5012   13.5826  -18.2039 H   0  0  0  0  0  0  0  0  0  0  0  0
  -33.0778    7.1823  -18.0393 H   0  0  0  0  0  0  0  0  0  0  0  0
  -32.7614    8.0794  -16.5155 H   0  0  0  0  0  0  0  0  0  0  0  0
  -31.7940    5.2541  -18.0435 H   0  0  0  0  0  0  0  0  0  0  0  0
  -29.5881    4.1312  -17.8538 H   0  0  0  0  0  0  0  0  0  0  0  0
  -27.6086    5.4082  -17.0711 H   0  0  0  0  0  0  0  0  0  0  0  0
  -27.8299    7.8136  -16.4997 H   0  0  0  0  0  0  0  0  0  0  0  0
  -30.0317    8.9410  -16.7063 H   0  0  0  0  0  0  0  0  0  0  0  0
  -30.4257    7.6169  -20.3033 H   0  0  0  0  0  0  0  0  0  0  0  0
  -32.1504    7.1615  -20.3722 H   0  0  0  0  0  0  0  0  0  0  0  0
  -30.8065   11.6406  -23.5634 H   0  0  0  0  0  0  0  0  0  0  0  0
  -32.1923   11.3794  -24.4732 H   0  0  0  0  0  0  0  0  0  0  0  0
  1 22  1  0  0  0  0
  1 23  1  0  0  0  0
  1 24  1  0  0  0  0
  1 25  1  0  0  0  0
  2  3  1  0  0  0  0
  2 22  1  0  0  0  0
  2 26  1  0  0  0  0
  2 27  1  0  0  0  0
  3  4  2  0  0  0  0
  3  5  1  0  0  0  0
  5 11  1  0  0  0  0
  5  6  2  0  0  0  0
  6  7  1  0  0  0  0
  6 21  1  0  0  0  0
  7  8  1  0  0  0  0
  7 14  1  0  0  0  0
  8  9  2  0  0  0  0
  8 10  1  0  0  0  0
 10 11  1  0  0  0  0
 10 13  1  0  0  0  0
 11 12  2  0  0  0  0
 13 28  1  0  0  0  0
 13 29  1  0  0  0  0
 13 30  1  0  0  0  0
 14 15  1  0  0  0  0
 14 31  1  0  0  0  0
 14 32  1  0  0  0  0
 15 20  2  0  0  0  0
 15 16  1  0  0  0  0
 16 17  2  0  0  0  0
 16 33  1  0  0  0  0
 17 18  1  0  0  0  0
 17 34  1  0  0  0  0
 18 19  2  0  0  0  0
 18 35  1  0  0  0  0
 19 20  1  0  0  0  0
 19 36  1  0  0  0  0
 20 37  1  0  0  0  0
 21 38  1  0  0  0  0
 21 39  1  0  0  0  0
 22 40  1  0  0  0  0
 22 41  1  0  0  0  0
M  END
> <Name>
ZINC06509720

> <reference>
BDB4983

> <quality>
0.733

> <status>
decoy

> <atoms in reference ligand area>
15

> <score>
-24.0576

$$$$
ZINC26140662
      BALL 1.4.0 (Jan  4 2012, 23:22:29)

 39 41  0999  0  0  0  0  0  0999 V2000
  -28.0907   12.6634  -19.2930 C   0  0  0  0  0  0  0  0  0  0  0  0
  -28.3438   13.6790  -18.3481 C   0  0  0  0  0  0  0  0  0  0  0  0
  -29.4012   13.5968  -17.5217 C   0  0  0  0  0  0  0  0  0  0  0  0
  -30.2621   12.5271  -17.5884 N   0  0  0  0  0  0  0  0  0  0  0  0
  -30.0385   11.5167  -18.5051 C   0  0  0  0  0  0  0  0  0  0  0  0
  -28.9217   11.5961  -19.3752 C   0  0  0  0  0  0  0  0  0  0  0  0
  -30.9849   10.6170  -18.3701 N   0  0  0  0  0  0  0  0  0  0  0  0
  -31.8429   11.0450  -17.3478 N   0  0  0  0  0  0  0  0  0  0  0  0
  -31.3724   12.2221  -16.8870 C   0  0  0  0  0  0  0  0  0  0  0  0
  -31.8639   12.8914  -15.9947 O   0  0  0  0  0  0  0  0  0  0  0  0
  -33.0350   10.3417  -16.8674 C   0  0  0  0  0  0  0  0  0  0  0  0
  -32.6410    8.9836  -16.3466 C   0  0  0  0  0  0  0  0  0  0  0  0
  -33.4238    8.0593  -16.4101 O   0  0  0  0  0  0  0  0  0  0  0  0
  -31.4188    8.7960  -15.8104 N   0  0  0  0  0  0  0  0  0  0  0  0
  -31.0359    7.4756  -15.3041 C   0  0  0  0  0  0  0  0  0  0  0  0
  -29.5798    7.1892  -15.6767 C   0  0  0  0  0  0  0  0  0  0  0  0
  -29.5315    6.5227  -16.9805 N   0  0  0  0  0  0  0  0  0  0  0  0
  -28.3447    6.1721  -17.5144 C   0  0  0  0  0  0  0  0  0  0  0  0
  -27.3133    6.4090  -16.9135 O   0  0  0  0  0  0  0  0  0  0  0  0
  -28.2963    5.5049  -18.8195 C   0  0  0  0  0  0  0  0  0  0  0  0
  -27.4674    4.4761  -19.1644 C   0  0  0  0  0  0  0  0  0  0  0  0
  -27.7605    4.1515  -20.4982 C   0  0  0  0  0  0  0  0  0  0  0  0
  -28.7430    4.9858  -20.9038 C   0  0  0  0  0  0  0  0  0  0  0  0
  -29.0668    5.7963  -19.8880 O   0  0  0  0  0  0  0  0  0  0  0  0
  -27.2207   12.7374  -19.9620 H   0  0  0  0  0  0  0  0  0  0  0  0
  -27.6701   14.5463  -18.2865 H   0  0  0  0  0  0  0  0  0  0  0  0
  -29.5792   14.3937  -16.7847 H   0  0  0  0  0  0  0  0  0  0  0  0
  -28.7318   10.7993  -20.1095 H   0  0  0  0  0  0  0  0  0  0  0  0
  -33.7504   10.2231  -17.6944 H   0  0  0  0  0  0  0  0  0  0  0  0
  -33.5024   10.9225  -16.0586 H   0  0  0  0  0  0  0  0  0  0  0  0
  -30.7541    9.5809  -15.7565 H   0  0  0  0  0  0  0  0  0  0  0  0
  -31.1442    7.4569  -14.2096 H   0  0  0  0  0  0  0  0  0  0  0  0
  -31.6855    6.7081  -15.7501 H   0  0  0  0  0  0  0  0  0  0  0  0
  -29.0215    8.1356  -15.7284 H   0  0  0  0  0  0  0  0  0  0  0  0
  -29.1268    6.5372  -14.9154 H   0  0  0  0  0  0  0  0  0  0  0  0
  -30.4045    6.3221  -17.4890 H   0  0  0  0  0  0  0  0  0  0  0  0
  -26.7156    3.9949  -18.5216 H   0  0  0  0  0  0  0  0  0  0  0  0
  -27.2808    3.3656  -21.1001 H   0  0  0  0  0  0  0  0  0  0  0  0
  -29.2014    4.9974  -21.9037 H   0  0  0  0  0  0  0  0  0  0  0  0
  1  6  2  0  0  0  0
  1  2  1  0  0  0  0
  1 25  1  0  0  0  0
  2  3  2  0  0  0  0
  2 26  1  0  0  0  0
  3  4  1  0  0  0  0
  3 27  1  0  0  0  0
  4  9  1  0  0  0  0
  4  5  1  0  0  0  0
  5  6  1  0  0  0  0
  5  7  2  0  0  0  0
  6 28  1  0  0  0  0
  7  8  1  0  0  0  0
  8  9  1  0  0  0  0
  8 11  1  0  0  0  0
  9 10  2  0  0  0  0
 11 12  1  0  0  0  0
 11 29  1  0  0  0  0
 11 30  1  0  0  0  0
 12 13  2  0  0  0  0
 12 14  1  0  0  0  0
 14 15  1  0  0  0  0
 14 31  1  0  0  0  0
 15 16  1  0  0  0  0
 15 32  1  0  0  0  0
 15 33  1  0  0  0  0
 16 17  1  0  0  0  0
 16 34  1  0  0  0  0
 16 35  1  0  0  0  0
 17 18  1  0  0  0  0
 17 36  1  0  0  0  0
 18 19  2  0  0  0  0
 18 20  1  0  0  0  0
 20 24  1  0  0  0  0
 20 21  2  0  0  0  0
 21 22  1  0  0  0  0
 21 37  1  0  0  0  0
 22 23  2  0  0  0  0
 22 38  1  0  0  0  0
 23 24  1  0  0  0  0
 23 39  1  0  0  0  0
M  END
> <Name>
ZINC26140662

> <reference>
BDB5228

> <quality>
0.682

> <status>
decoy

> <atoms in reference ligand area>
10

> <score>
-24.046

$$$$
ZINC17218773
      BALL 1.4.0 (Jan  4 2012, 23:22:29)

 33 34  0999  0  0  0  0  0  0999 V2000
  -32.4224    7.0322  -12.2224 C   0  0  0  0  0  0  0  0  0  0  0  0
  -33.2886    6.9174  -13.3532 O   0  0  0  0  0  0  0  0  0  0  0  0
  -32.9827    7.8132  -14.4063 N   0  0  0  0  0  0  0  0  0  0  0  0
  -33.6737    8.9115  -14.5506 C   0  0  0  0  0  0  0  0  0  0  0  0
  -34.8959    9.1226  -13.7557 C   0  0  0  0  0  0  0  0  0  0  0  0
  -34.9262    8.7779  -12.4478 C   0  0  0  0  0  0  0  0  0  0  0  0
  -36.5871    9.2336  -11.9771 S   0  0  0  0  0  0  0  0  0  0  0  0
  -37.1370    9.8465  -13.5616 C   0  0  0  0  0  0  0  0  0  0  0  0
  -38.3019   10.3391  -13.8979 N   0  0  0  0  0  0  0  0  0  0  0  0
  -36.0131    9.6643  -14.3371 N   0  0  0  0  0  0  0  0  0  0  0  0
  -33.2289    9.9456  -15.5138 C   0  0  0  0  0  0  0  0  0  0  0  0
  -33.8480   10.9864  -15.6173 O   0  0  0  0  0  0  0  0  0  0  0  0
  -32.1375    9.7322  -16.2753 N   0  0  0  0  0  0  0  0  0  0  0  0
  -31.7181   10.7067  -17.1831 C   0  0  0  0  0  0  0  0  0  0  0  0
  -30.5639   10.7850  -17.9077 C   0  0  0  0  0  0  0  0  0  0  0  0
  -30.4012   11.8190  -18.7072 N   0  3  0  0  0  0  0  0  0  0  0  0
  -31.3126   12.7574  -18.8096 C   0  0  0  0  0  0  0  0  0  0  0  0
  -32.5435   12.1982  -17.7199 S   0  0  0  0  0  0  0  0  0  0  0  0
  -29.1714   11.9270  -19.4961 C   0  0  0  0  0  0  0  0  0  0  0  0
  -28.0627   12.4626  -18.6273 C   0  0  0  0  0  0  0  0  0  0  0  0
  -28.2776   12.7271  -17.4682 O   0  0  0  0  0  0  0  0  0  0  0  0
  -26.8363   12.6459  -19.1414 O   0  5  0  0  0  0  0  0  0  0  0  0
  -31.4437    6.6212  -12.5111 H   0  0  0  0  0  0  0  0  0  0  0  0
  -32.8398    6.4063  -11.4198 H   0  0  0  0  0  0  0  0  0  0  0  0
  -32.3253    8.0770  -11.8925 H   0  0  0  0  0  0  0  0  0  0  0  0
  -34.1314    8.3315  -11.8321 H   0  0  0  0  0  0  0  0  0  0  0  0
  -38.9613   10.3561  -13.1068 H   0  0  0  0  0  0  0  0  0  0  0  0
  -36.0122    9.9294  -15.3324 H   0  0  0  0  0  0  0  0  0  0  0  0
  -31.6127    8.8502  -16.1875 H   0  0  0  0  0  0  0  0  0  0  0  0
  -29.7913   10.0063  -17.8261 H   0  0  0  0  0  0  0  0  0  0  0  0
  -31.3002   13.6668  -19.4283 H   0  0  0  0  0  0  0  0  0  0  0  0
  -29.3360   12.6104  -20.3421 H   0  0  0  0  0  0  0  0  0  0  0  0
  -28.8911   10.9336  -19.8764 H   0  0  0  0  0  0  0  0  0  0  0  0
  1  2  1  0  0  0  0
  1 23  1  0  0  0  0
  1 24  1  0  0  0  0
  1 25  1  0  0  0  0
  2  3  1  0  0  0  0
  3  4  2  0  0  0  0
  4  5  1  0  0  0  0
  4 11  1  0  0  0  0
  5 10  1  0  0  0  0
  5  6  2  0  0  0  0
  6  7  1  0  0  0  0
  6 26  1  0  0  0  0
  7  8  1  0  0  0  0
  8  9  2  0  0  0  0
  8 10  1  0  0  0  0
  9 27  1  0  0  0  0
 10 28  1  0  0  0  0
 11 12  2  0  0  0  0
 11 13  1  0  0  0  0
 13 14  1  0  0  0  0
 13 29  1  0  0  0  0
 14 18  1  0  0  0  0
 14 15  2  0  0  0  0
 15 16  1  0  0  0  0
 15 30  1  0  0  0  0
 16 17  2  0  0  0  0
 16 19  1  0  0  0  0
 17 18  1  0  0  0  0
 17 31  1  0  0  0  0
 19 20  1  0  0  0  0
 19 32  1  0  0  0  0
 19 33  1  0  0  0  0
 20 21  2  0  0  0  0
 20 22  1  0  0  0  0
M  END
> <Name>
ZINC17218773

> <reference>
BDB5244

> <quality>
0.706

> <status>
decoy

> <atoms in reference ligand area>
10

> <score>
-23.7873

$$$$
ZINC09915296
      BALL 1.4.0 (Jan  4 2012, 23:22:29)

 40 41  0999  0  0  0  0  0  0999 V2000
  -36.3144    5.9970  -29.7506 C   0  0  0  0  0  0  0  0  0  0  0  0
  -36.3292    5.9510  -27.3293 C   0  0  0  0  0  0  0  0  0  0  0  0
  -35.8682    6.7008  -26.0772 C   0  0  0  0  0  0  0  0  0  0  0  0
  -34.4004    6.7731  -26.0654 N   0  0  0  0  0  0  0  0  0  0  0  0
  -33.9003    7.4666  -27.2606 C   0  0  0  0  0  0  0  0  0  0  0  0
  -34.3614    6.7168  -28.5126 C   0  0  0  0  0  0  0  0  0  0  0  0
  -33.9492    7.3753  -24.9253 N   0  0  0  0  0  0  0  0  0  0  0  0
  -32.6258    7.5362  -24.7267 C   0  0  0  0  0  0  0  0  0  0  0  0
  -31.8402    6.7405  -25.1983 O   0  0  0  0  0  0  0  0  0  0  0  0
  -32.1263    8.6939  -23.9263 C   0  0  0  0  0  0  0  0  0  0  0  0
  -32.9076    9.3843  -23.3048 O   0  0  0  0  0  0  0  0  0  0  0  0
  -30.8085    8.9753  -23.8985 N   0  0  0  0  0  0  0  0  0  0  0  0
  -30.3515   10.1174  -23.2339 C   0  0  0  0  0  0  0  0  0  0  0  0
  -28.9876   10.3522  -23.1118 C   0  0  0  0  0  0  0  0  0  0  0  0
  -28.5387   11.4836  -22.4600 C   0  0  0  0  0  0  0  0  0  0  0  0
  -29.4467   12.3782  -21.9182 C   0  0  0  0  0  0  0  0  0  0  0  0
  -30.8064   12.1433  -22.0337 C   0  0  0  0  0  0  0  0  0  0  0  0
  -31.2602   11.0159  -22.6898 C   0  0  0  0  0  0  0  0  0  0  0  0
  -31.7744   13.1015  -21.4540 N   0  0  0  0  0  0  0  0  0  0  0  0
  -31.4178   13.8768  -20.5851 O   0  0  0  0  0  0  0  0  0  0  0  0
  -32.9275   13.1146  -21.8462 O   0  0  0  0  0  0  0  0  0  0  0  0
  -29.0050   13.4820  -21.2764 F   0  0  0  0  0  0  0  0  0  0  0  0
  -35.8388    6.6708  -28.5234 N   0  3  0  0  0  0  0  0  0  0  0  0
  -37.3525    5.6643  -29.6036 H   0  0  0  0  0  0  0  0  0  0  0  0
  -35.6779    5.1236  -29.9557 H   0  0  0  0  0  0  0  0  0  0  0  0
  -36.2676    6.6949  -30.5996 H   0  0  0  0  0  0  0  0  0  0  0  0
  -35.9180    4.9307  -27.3199 H   0  0  0  0  0  0  0  0  0  0  0  0
  -37.4282    5.9090  -27.3509 H   0  0  0  0  0  0  0  0  0  0  0  0
  -36.2159    6.1678  -25.1801 H   0  0  0  0  0  0  0  0  0  0  0  0
  -36.2851    7.7187  -26.0847 H   0  0  0  0  0  0  0  0  0  0  0  0
  -32.8010    7.4967  -27.2358 H   0  0  0  0  0  0  0  0  0  0  0  0
  -34.2956    8.4929  -27.2819 H   0  0  0  0  0  0  0  0  0  0  0  0
  -33.9617    5.6920  -28.4976 H   0  0  0  0  0  0  0  0  0  0  0  0
  -34.0031    7.2428  -29.4098 H   0  0  0  0  0  0  0  0  0  0  0  0
  -34.6202    7.7063  -24.2175 H   0  0  0  0  0  0  0  0  0  0  0  0
  -30.1381    8.3491  -24.3669 H   0  0  0  0  0  0  0  0  0  0  0  0
  -28.2659    9.6374  -23.5341 H   0  0  0  0  0  0  0  0  0  0  0  0
  -27.4590   11.6746  -22.3711 H   0  0  0  0  0  0  0  0  0  0  0  0
  -32.3404   10.8296  -22.7812 H   0  0  0  0  0  0  0  0  0  0  0  0
  -36.2043    7.6336  -28.5078 H   0  0  0  0  0  0  0  0  0  0  0  0
  1 23  1  0  0  0  0
  1 24  1  0  0  0  0
  1 25  1  0  0  0  0
  1 26  1  0  0  0  0
  2  3  1  0  0  0  0
  2 23  1  0  0  0  0
  2 27  1  0  0  0  0
  2 28  1  0  0  0  0
  3  4  1  0  0  0  0
  3 29  1  0  0  0  0
  3 30  1  0  0  0  0
  4  5  1  0  0  0  0
  4  7  1  0  0  0  0
  5  6  1  0  0  0  0
  5 31  1  0  0  0  0
  5 32  1  0  0  0  0
  6 23  1  0  0  0  0
  6 33  1  0  0  0  0
  6 34  1  0  0  0  0
  7  8  1  0  0  0  0
  7 35  1  0  0  0  0
  8  9  2  0  0  0  0
  8 10  1  0  0  0  0
 10 11  2  0  0  0  0
 10 12  1  0  0  0  0
 12 13  1  0  0  0  0
 12 36  1  0  0  0  0
 13 18  2  0  0  0  0
 13 14  1  0  0  0  0
 14 15  2  0  0  0  0
 14 37  1  0  0  0  0
 15 16  1  0  0  0  0
 15 38  1  0  0  0  0
 16 17  2  0  0  0  0
 16 22  1  0  0  0  0
 17 18  1  0  0  0  0
 17 19  1  0  0  0  0
 18 39  1  0  0  0  0
 19 20  2  0  0  0  0
 19 21  2  0  0  0  0
 23 40  1  0  0  0  0
M  END
> <Name>
ZINC09915296

> <reference>
BDB4977

> <quality>
0.669

> <status>
decoy

> <atoms in reference ligand area>
12

> <score>
-23.7387

$$$$
ZINC07699012
      BALL 1.4.0 (Jan  4 2012, 23:22:29)

 40 41  0999  0  0  0  0  0  0999 V2000
  -29.7514    4.9871  -32.1864 C   0  0  0  0  0  0  0  0  0  0  0  0
  -31.0964    4.6280  -31.8637 O   0  0  0  0  0  0  0  0  0  0  0  0
  -31.6954    5.4561  -30.8650 C   0  0  0  0  0  0  0  0  0  0  0  0
  -33.0237    4.8400  -30.4210 C   0  0  0  0  0  0  0  0  0  0  0  0
  -33.5796    5.6231  -29.3148 N   0  0  0  0  0  0  0  0  0  0  0  0
  -32.8839    5.7581  -28.1684 C   0  0  0  0  0  0  0  0  0  0  0  0
  -31.8871    5.0887  -27.9800 O   0  0  0  0  0  0  0  0  0  0  0  0
  -33.2935    6.6353  -27.2308 N   0  0  0  0  0  0  0  0  0  0  0  0
  -32.7248    6.6304  -26.0089 C   0  0  0  0  0  0  0  0  0  0  0  0
  -31.8447    5.8367  -25.7531 O   0  0  0  0  0  0  0  0  0  0  0  0
  -33.1827    7.6113  -24.9605 C   0  0  0  0  0  0  0  0  0  0  0  0
  -31.7459    8.2294  -24.0419 S   0  0  0  0  0  0  0  0  0  0  0  0
  -32.4381    9.3489  -22.8706 C   0  0  0  0  0  0  0  0  0  0  0  0
  -33.6297    9.0350  -22.2290 C   0  0  0  0  0  0  0  0  0  0  0  0
  -34.1733    9.9135  -21.3122 C   0  0  0  0  0  0  0  0  0  0  0  0
  -33.5327   11.1108  -21.0293 C   0  0  0  0  0  0  0  0  0  0  0  0
  -32.3390   11.4268  -21.6673 C   0  0  0  0  0  0  0  0  0  0  0  0
  -31.7936   10.5457  -22.5885 C   0  0  0  0  0  0  0  0  0  0  0  0
  -31.6918   12.5931  -21.3961 O   0  0  0  0  0  0  0  0  0  0  0  0
  -32.4546   13.6179  -20.7499 C   0  0  0  0  0  0  0  0  0  0  0  0
  -33.2304   12.9802  -19.5895 C   0  0  0  0  0  0  0  0  0  0  0  0
  -34.0888   11.9682  -20.1282 O   0  0  0  0  0  0  0  0  0  0  0  0
  -29.7168    5.2091  -33.2632 H   0  0  0  0  0  0  0  0  0  0  0  0
  -29.1180    4.1091  -31.9918 H   0  0  0  0  0  0  0  0  0  0  0  0
  -29.4118    5.8521  -31.5980 H   0  0  0  0  0  0  0  0  0  0  0  0
  -31.8775    6.4588  -31.2793 H   0  0  0  0  0  0  0  0  0  0  0  0
  -31.0206    5.5339  -29.9998 H   0  0  0  0  0  0  0  0  0  0  0  0
  -33.7301    4.8446  -31.2642 H   0  0  0  0  0  0  0  0  0  0  0  0
  -32.8561    3.8049  -30.0886 H   0  0  0  0  0  0  0  0  0  0  0  0
  -34.5021    6.0705  -29.4131 H   0  0  0  0  0  0  0  0  0  0  0  0
  -34.0413    7.3095  -27.4480 H   0  0  0  0  0  0  0  0  0  0  0  0
  -33.6968    8.4538  -25.4461 H   0  0  0  0  0  0  0  0  0  0  0  0
  -33.8737    7.1114  -24.2658 H   0  0  0  0  0  0  0  0  0  0  0  0
  -34.1405    8.0865  -22.4511 H   0  0  0  0  0  0  0  0  0  0  0  0
  -35.1168    9.6630  -20.8051 H   0  0  0  0  0  0  0  0  0  0  0  0
  -30.8499   10.7950  -23.0958 H   0  0  0  0  0  0  0  0  0  0  0  0
  -31.7781   14.3925  -20.3596 H   0  0  0  0  0  0  0  0  0  0  0  0
  -33.1617   14.0618  -21.4661 H   0  0  0  0  0  0  0  0  0  0  0  0
  -33.8354   13.7465  -19.0828 H   0  0  0  0  0  0  0  0  0  0  0  0
  -32.5246   12.5263  -18.8783 H   0  0  0  0  0  0  0  0  0  0  0  0
  1  2  1  0  0  0  0
  1 23  1  0  0  0  0
  1 24  1  0  0  0  0
  1 25  1  0  0  0  0
  2  3  1  0  0  0  0
  3  4  1  0  0  0  0
  3 26  1  0  0  0  0
  3 27  1  0  0  0  0
  4  5  1  0  0  0  0
  4 28  1  0  0  0  0
  4 29  1  0  0  0  0
  5  6  1  0  0  0  0
  5 30  1  0  0  0  0
  6  7  2  0  0  0  0
  6  8  1  0  0  0  0
  8  9  1  0  0  0  0
  8 31  1  0  0  0  0
  9 10  2  0  0  0  0
  9 11  1  0  0  0  0
 11 12  1  0  0  0  0
 11 32  1  0  0  0  0
 11 33  1  0  0  0  0
 12 13  1  0  0  0  0
 13 18  2  0  0  0  0
 13 14  1  0  0  0  0
 14 15  2  0  0  0  0
 14 34  1  0  0  0  0
 15 16  1  0  0  0  0
 15 35  1  0  0  0  0
 16 22  1  0  0  0  0
 16 17  2  0  0  0  0
 17 18  1  0  0  0  0
 17 19  1  0  0  0  0
 18 36  1  0  0  0  0
 19 20  1  0  0  0  0
 20 21  1  0  0  0  0
 20 37  1  0  0  0  0
 20 38  1  0  0  0  0
 21 22  1  0  0  0  0
 21 39  1  0  0  0  0
 21 40  1  0  0  0  0
M  END
> <Name>
ZINC07699012

> <reference>
BDB5198

> <quality>
0.726

> <status>
decoy

> <atoms in reference ligand area>
12

> <score>
-23.5607

$$$$
ZINC05574015
      BALL 1.4.0 (Jan  4 2012, 23:22:29)

 24 23  0999  0  0  0  0  0  0999 V2000
  -25.6900   13.5426  -20.8663 C   0  0  0  0  0  0  0  0  0  0  0  0
  -26.3433   12.5239  -19.9302 C   0  0  0  0  0  0  0  0  0  0  0  0
  -26.9448   13.2167  -18.8049 O   0  0  0  0  0  0  0  0  0  0  0  0
  -28.2729   13.0689  -18.6346 C   0  0  0  0  0  0  0  0  0  0  0  0
  -29.0893   13.2604  -19.6444 N   0  0  0  0  0  0  0  0  0  0  0  0
  -30.4351   13.2234  -19.4477 C   0  0  0  0  0  0  0  0  0  0  0  0
  -30.9238   13.3038  -18.2300 N   0  0  0  0  0  0  0  0  0  0  0  0
  -31.2741   13.1033  -20.5100 N   0  0  0  0  0  0  0  0  0  0  0  0
  -31.9586   14.1459  -20.9287 C   0  0  0  0  0  0  0  0  0  0  0  0
  -32.8805   14.0018  -21.9256 N   0  0  0  0  0  0  0  0  0  0  0  0
  -31.7500   15.3564  -20.3734 O   0  0  0  0  0  0  0  0  0  0  0  0
  -32.8439   16.3091  -20.4391 C   0  0  0  0  0  0  0  0  0  0  0  0
  -28.7632   12.7245  -17.4280 O   0  5  0  0  0  0  0  0  0  0  0  0
  -24.6602   13.2278  -21.0911 H   0  0  0  0  0  0  0  0  0  0  0  0
  -25.6734   14.5298  -20.3812 H   0  0  0  0  0  0  0  0  0  0  0  0
  -26.2659   13.6043  -21.8015 H   0  0  0  0  0  0  0  0  0  0  0  0
  -27.1205   11.9693  -20.4766 H   0  0  0  0  0  0  0  0  0  0  0  0
  -25.5814   11.8209  -19.5623 H   0  0  0  0  0  0  0  0  0  0  0  0
  -30.2880   13.3948  -17.4248 H   0  0  0  0  0  0  0  0  0  0  0  0
  -33.8321   14.3768  -21.8052 H   0  0  0  0  0  0  0  0  0  0  0  0
  -32.6242   13.5180  -22.7981 H   0  0  0  0  0  0  0  0  0  0  0  0
  -33.7489   15.7266  -20.6662 H   0  0  0  0  0  0  0  0  0  0  0  0
  -32.6361   16.9605  -21.3008 H   0  0  0  0  0  0  0  0  0  0  0  0
  -32.9573   16.8887  -19.5112 H   0  0  0  0  0  0  0  0  0  0  0  0
  1  2  1  0  0  0  0
  1 14  1  0  0  0  0
  1 15  1  0  0  0  0
  1 16  1  0  0  0  0
  2  3  1  0  0  0  0
  2 17  1  0  0  0  0
  2 18  1  0  0  0  0
  3  4  1  0  0  0  0
  4  5  2  0  0  0  0
  4 13  1  0  0  0  0
  5  6  1  0  0  0  0
  6  7  2  0  0  0  0
  6  8  1  0  0  0  0
  7 19  1  0  0  0  0
  8  9  2  0  0  0  0
  9 10  1  0  0  0  0
  9 11  1  0  0  0  0
 10 20  1  0  0  0  0
 10 21  1  0  0  0  0
 11 12  1  0  0  0  0
 12 22  1  0  0  0  0
 12 23  1  0  0  0  0
 12 24  1  0  0  0  0
M  END
> <Name>
ZINC05574015

> <reference>
BDB5233

> <quality>
0.719

> <status>
decoy

> <atoms in reference ligand area>
16

> <score>
-23.4503

$$$$
ZINC06382443
      BALL 1.4.0 (Jan  4 2012, 23:22:29)

 40 41  0999  0  0  0  0  0  0999 V2000
  -30.0648    9.5648  -24.2167 C   0  0  0  0  0  0  0  0  0  0  0  0
  -29.8618    8.0999  -24.6089 C   0  0  0  0  0  0  0  0  0  0  0  0
  -30.8369    6.3422  -25.9589 C   0  0  0  0  0  0  0  0  0  0  0  0
  -31.4689    6.3886  -27.3516 C   0  0  0  0  0  0  0  0  0  0  0  0
  -32.1277    7.3615  -24.1819 C   0  0  0  0  0  0  0  0  0  0  0  0
  -32.8428    8.6819  -23.8882 C   0  0  0  0  0  0  0  0  0  0  0  0
  -32.7571    8.9864  -22.3912 C   0  0  0  0  0  0  0  0  0  0  0  0
  -32.7558   10.4371  -22.1872 N   0  0  0  0  0  0  0  0  0  0  0  0
  -32.1126   10.9684  -21.1279 C   0  0  0  0  0  0  0  0  0  0  0  0
  -31.1758   10.2945  -20.4852 N   0  0  0  0  0  0  0  0  0  0  0  0
  -30.5506   10.7412  -19.4018 C   0  0  0  0  0  0  0  0  0  0  0  0
  -31.0189   11.7478  -18.6729 N   0  0  0  0  0  0  0  0  0  0  0  0
  -32.1209   12.3351  -19.1376 C   0  0  0  0  0  0  0  0  0  0  0  0
  -33.2020   12.8123  -18.5625 N   0  0  0  0  0  0  0  0  0  0  0  0
  -34.2009   12.9689  -19.4409 C   0  0  0  0  0  0  0  0  0  0  0  0
  -33.8595   12.6846  -20.6661 N   0  0  0  0  0  0  0  0  0  0  0  0
  -32.4386   12.3504  -20.6277 C   0  0  0  0  0  0  0  0  0  0  0  0
  -34.2144    8.5773  -24.2753 O   0  0  0  0  0  0  0  0  0  0  0  0
  -31.1074    7.5965  -25.2252 N   0  3  0  0  0  0  0  0  0  0  0  0
  -30.9103    9.9882  -24.7786 H   0  0  0  0  0  0  0  0  0  0  0  0
  -29.1526   10.1396  -24.4341 H   0  0  0  0  0  0  0  0  0  0  0  0
  -30.2811    9.6241  -23.1398 H   0  0  0  0  0  0  0  0  0  0  0  0
  -29.6286    7.5063  -23.7127 H   0  0  0  0  0  0  0  0  0  0  0  0
  -29.0363    8.0231  -25.3318 H   0  0  0  0  0  0  0  0  0  0  0  0
  -29.7498    6.2053  -26.0555 H   0  0  0  0  0  0  0  0  0  0  0  0
  -31.2561    5.4948  -25.3966 H   0  0  0  0  0  0  0  0  0  0  0  0
  -32.1871    5.5610  -27.4480 H   0  0  0  0  0  0  0  0  0  0  0  0
  -30.6793    6.2726  -28.1086 H   0  0  0  0  0  0  0  0  0  0  0  0
  -31.9859    7.3485  -27.4975 H   0  0  0  0  0  0  0  0  0  0  0  0
  -32.8558    6.6187  -24.5400 H   0  0  0  0  0  0  0  0  0  0  0  0
  -31.6406    6.9947  -23.2664 H   0  0  0  0  0  0  0  0  0  0  0  0
  -32.3626    9.4929  -24.4555 H   0  0  0  0  0  0  0  0  0  0  0  0
  -33.6235    8.5451  -21.8770 H   0  0  0  0  0  0  0  0  0  0  0  0
  -31.8304    8.5585  -21.9813 H   0  0  0  0  0  0  0  0  0  0  0  0
  -33.2463   11.0512  -22.8530 H   0  0  0  0  0  0  0  0  0  0  0  0
  -29.6098   10.2595  -19.0970 H   0  0  0  0  0  0  0  0  0  0  0  0
  -35.2092   13.3042  -19.1564 H   0  0  0  0  0  0  0  0  0  0  0  0
  -31.8818   13.0605  -21.2568 H   0  0  0  0  0  0  0  0  0  0  0  0
  -34.6378    9.4714  -24.2383 H   0  0  0  0  0  0  0  0  0  0  0  0
  -31.4619    8.3014  -25.8872 H   0  0  0  0  0  0  0  0  0  0  0  0
  1  2  1  0  0  0  0
  1 20  1  0  0  0  0
  1 21  1  0  0  0  0
  1 22  1  0  0  0  0
  2 19  1  0  0  0  0
  2 23  1  0  0  0  0
  2 24  1  0  0  0  0
  3  4  1  0  0  0  0
  3 19  1  0  0  0  0
  3 25  1  0  0  0  0
  3 26  1  0  0  0  0
  4 27  1  0  0  0  0
  4 28  1  0  0  0  0
  4 29  1  0  0  0  0
  5  6  1  0  0  0  0
  5 19  1  0  0  0  0
  5 30  1  0  0  0  0
  5 31  1  0  0  0  0
  6  7  1  0  0  0  0
  6 18  1  0  0  0  0
  6 32  1  0  0  0  0
  7  8  1  0  0  0  0
  7 33  1  0  0  0  0
  7 34  1  0  0  0  0
  8  9  1  0  0  0  0
  8 35  1  0  0  0  0
  9 17  1  0  0  0  0
  9 10  2  0  0  0  0
 10 11  1  0  0  0  0
 11 12  2  0  0  0  0
 11 36  1  0  0  0  0
 12 13  1  0  0  0  0
 13 17  1  0  0  0  0
 13 14  2  0  0  0  0
 14 15  1  0  0  0  0
 15 16  2  0  0  0  0
 15 37  1  0  0  0  0
 16 17  1  0  0  0  0
 17 38  1  0  0  0  0
 18 39  1  0  0  0  0
 19 40  1  0  0  0  0
M  END
> <Name>
ZINC06382443

> <reference>
BDB5222

> <quality>
0.774

> <status>
decoy

> <atoms in reference ligand area>
14

> <score>
-23.3365

$$$$
ZINC29372671
      BALL 1.4.0 (Jan  4 2012, 23:22:29)

 52 53  0999  0  0  0  0  0  0999 V2000
  -28.0241    7.7706  -16.7316 C   0  0  0  0  0  0  0  0  0  0  0  0
  -29.2507    7.0948  -17.3477 C   0  0  0  0  0  0  0  0  0  0  0  0
  -30.3262    8.0626  -17.4702 O   0  0  0  0  0  0  0  0  0  0  0  0
  -31.3107    7.7761  -18.3459 C   0  0  0  0  0  0  0  0  0  0  0  0
  -31.9742    6.7669  -18.2059 O   0  0  0  0  0  0  0  0  0  0  0  0
  -31.5813    8.6823  -19.4677 C   0  0  0  0  0  0  0  0  0  0  0  0
  -32.1404    9.9344  -19.2595 C   0  0  0  0  0  0  0  0  0  0  0  0
  -32.3622   10.7217  -20.3562 C   0  0  0  0  0  0  0  0  0  0  0  0
  -31.7820    9.6997  -21.6968 S   0  0  0  0  0  0  0  0  0  0  0  0
  -31.2789    8.3153  -20.7833 C   0  0  0  0  0  0  0  0  0  0  0  0
  -30.7193    7.1386  -21.2416 N   0  0  0  0  0  0  0  0  0  0  0  0
  -30.3145    7.0393  -22.5233 C   0  0  0  0  0  0  0  0  0  0  0  0
  -30.4416    7.9831  -23.2742 O   0  0  0  0  0  0  0  0  0  0  0  0
  -29.7040    5.7556  -23.0234 C   0  0  0  0  0  0  0  0  0  0  0  0
  -30.7121    4.6156  -22.8649 C   0  0  0  0  0  0  0  0  0  0  0  0
  -29.3501    5.9014  -24.4375 N   0  3  0  0  0  0  0  0  0  0  0  0
  -28.1489    6.3455  -24.7551 C   0  0  0  0  0  0  0  0  0  0  0  0
  -27.7705    6.4986  -26.0767 C   0  0  0  0  0  0  0  0  0  0  0  0
  -28.6692    6.1799  -27.0798 C   0  0  0  0  0  0  0  0  0  0  0  0
  -29.9357    5.7112  -26.7115 C   0  0  0  0  0  0  0  0  0  0  0  0
  -30.2379    5.5803  -25.3553 C   0  0  0  0  0  0  0  0  0  0  0  0
  -30.9346    5.3560  -27.7419 C   0  0  0  0  0  0  0  0  0  0  0  0
  -31.1074    4.1916  -28.0451 O   0  0  0  0  0  0  0  0  0  0  0  0
  -31.6537    6.3232  -28.3452 N   0  0  0  0  0  0  0  0  0  0  0  0
  -32.9335   12.0689  -20.4144 C   0  0  0  0  0  0  0  0  0  0  0  0
  -34.0611   12.2700  -20.0024 O   0  0  0  0  0  0  0  0  0  0  0  0
  -32.2107   13.0858  -20.9240 N   0  0  0  0  0  0  0  0  0  0  0  0
  -32.7821   14.4335  -20.9821 C   0  0  0  0  0  0  0  0  0  0  0  0
  -32.4918   10.4107  -17.8736 C   0  0  0  0  0  0  0  0  0  0  0  0
  -27.2086    7.0382  -16.6386 H   0  0  0  0  0  0  0  0  0  0  0  0
  -28.2807    8.1610  -15.7357 H   0  0  0  0  0  0  0  0  0  0  0  0
  -27.6988    8.6000  -17.3767 H   0  0  0  0  0  0  0  0  0  0  0  0
  -28.9934    6.7054  -18.3438 H   0  0  0  0  0  0  0  0  0  0  0  0
  -29.5765    6.2655  -16.7027 H   0  0  0  0  0  0  0  0  0  0  0  0
  -30.6113    6.3369  -20.6039 H   0  0  0  0  0  0  0  0  0  0  0  0
  -28.7990    5.5286  -22.4405 H   0  0  0  0  0  0  0  0  0  0  0  0
  -31.4739    4.8989  -22.1237 H   0  0  0  0  0  0  0  0  0  0  0  0
  -30.1908    3.7084  -22.5255 H   0  0  0  0  0  0  0  0  0  0  0  0
  -31.1982    4.4180  -23.8316 H   0  0  0  0  0  0  0  0  0  0  0  0
  -27.4367    6.5983  -23.9558 H   0  0  0  0  0  0  0  0  0  0  0  0
  -26.7660    6.8697  -26.3278 H   0  0  0  0  0  0  0  0  0  0  0  0
  -28.3952    6.2920  -28.1392 H   0  0  0  0  0  0  0  0  0  0  0  0
  -31.2262    5.2057  -25.0505 H   0  0  0  0  0  0  0  0  0  0  0  0
  -32.4520    6.0726  -28.9459 H   0  0  0  0  0  0  0  0  0  0  0  0
  -31.4051    7.3130  -28.2054 H   0  0  0  0  0  0  0  0  0  0  0  0
  -31.2565   12.9156  -21.2726 H   0  0  0  0  0  0  0  0  0  0  0  0
  -33.3829   14.4506  -21.9034 H   0  0  0  0  0  0  0  0  0  0  0  0
  -31.9233   15.1024  -21.1403 H   0  0  0  0  0  0  0  0  0  0  0  0
  -33.3692   14.7073  -20.0931 H   0  0  0  0  0  0  0  0  0  0  0  0
  -32.1342   11.4505  -17.8397 H   0  0  0  0  0  0  0  0  0  0  0  0
  -31.8405    9.8265  -17.2070 H   0  0  0  0  0  0  0  0  0  0  0  0
  -33.5576   10.3175  -17.6180 H   0  0  0  0  0  0  0  0  0  0  0  0
  1  2  1  0  0  0  0
  1 30  1  0  0  0  0
  1 31  1  0  0  0  0
  1 32  1  0  0  0  0
  2  3  1  0  0  0  0
  2 33  1  0  0  0  0
  2 34  1  0  0  0  0
  3  4  1  0  0  0  0
  4  5  2  0  0  0  0
  4  6  1  0  0  0  0
  6 10  2  0  0  0  0
  6  7  1  0  0  0  0
  7  8  2  0  0  0  0
  7 29  1  0  0  0  0
  8  9  1  0  0  0  0
  8 25  1  0  0  0  0
  9 10  1  0  0  0  0
 10 11  1  0  0  0  0
 11 12  1  0  0  0  0
 11 35  1  0  0  0  0
 12 13  2  0  0  0  0
 12 14  1  0  0  0  0
 14 15  1  0  0  0  0
 14 16  1  0  0  0  0
 14 36  1  0  0  0  0
 15 37  1  0  0  0  0
 15 38  1  0  0  0  0
 15 39  1  0  0  0  0
 16 21  2  0  0  0  0
 16 17  1  0  0  0  0
 17 18  2  0  0  0  0
 17 40  1  0  0  0  0
 18 19  1  0  0  0  0
 18 41  1  0  0  0  0
 19 20  2  0  0  0  0
 19 42  1  0  0  0  0
 20 21  1  0  0  0  0
 20 22  1  0  0  0  0
 21 43  1  0  0  0  0
 22 23  2  0  0  0  0
 22 24  1  0  0  0  0
 24 44  1  0  0  0  0
 24 45  1  0  0  0  0
 25 26  2  0  0  0  0
 25 27  1  0  0  0  0
 27 28  1  0  0  0  0
 27 46  1  0  0  0  0
 28 47  1  0  0  0  0
 28 48  1  0  0  0  0
 28 49  1  0  0  0  0
 29 50  1  0  0  0  0
 29 51  1  0  0  0  0
 29 52  1  0  0  0  0
M  END
> <Name>
ZINC29372671

> <reference>
BDB4965

> <quality>
0.697

> <status>
decoy

> <atoms in reference ligand area>
11

> <score>
-23.0901

$$$$
ZINC12320688
      BALL 1.4.0 (Jan  4 2012, 23:22:29)

 58 61  0999  0  0  0  0  0  0999 V2000
  -29.5957    5.6850  -23.4879 C   0  0  0  0  0  0  0  0  0  0  0  0
  -29.7109    7.1828  -23.3679 C   0  0  0  0  0  0  0  0  0  0  0  0
  -29.8627    7.7230  -22.2173 N   0  0  0  0  0  0  0  0  0  0  0  0
  -29.9216    6.9218  -21.0695 N   0  0  0  0  0  0  0  0  0  0  0  0
  -31.1123    6.7843  -20.3837 C   0  0  0  0  0  0  0  0  0  0  0  0
  -32.2443    7.3531  -20.7173 N   0  0  0  0  0  0  0  0  0  0  0  0
  -33.2030    7.0068  -19.8226 C   0  0  0  0  0  0  0  0  0  0  0  0
  -34.5665    7.3101  -19.6732 C   0  0  0  0  0  0  0  0  0  0  0  0
  -35.2244    6.7810  -18.6470 N   0  0  0  0  0  0  0  0  0  0  0  0
  -34.6187    5.9874  -17.7825 C   0  0  0  0  0  0  0  0  0  0  0  0
  -33.3433    5.6761  -17.8832 N   0  0  0  0  0  0  0  0  0  0  0  0
  -32.6049    6.1581  -18.8770 C   0  0  0  0  0  0  0  0  0  0  0  0
  -31.2883    6.0312  -19.2550 N   0  0  0  0  0  0  0  0  0  0  0  0
  -30.2621    5.2404  -18.5711 C   0  0  0  0  0  0  0  0  0  0  0  0
  -29.5772    6.0842  -17.4667 C   0  0  0  0  0  0  0  0  0  0  0  0
  -28.2058    5.3640  -17.3534 C   0  0  0  0  0  0  0  0  0  0  0  0
  -27.9464    4.9223  -18.8097 C   0  0  0  0  0  0  0  0  0  0  0  0
  -29.2094    4.8928  -19.4846 O   0  0  0  0  0  0  0  0  0  0  0  0
  -27.3172    3.5277  -18.8248 C   0  0  0  0  0  0  0  0  0  0  0  0
  -26.0221    3.5830  -18.2231 O   0  0  0  0  0  0  0  0  0  0  0  0
  -27.1923    6.2673  -16.9077 O   0  0  0  0  0  0  0  0  0  0  0  0
  -30.3021    6.0097  -16.2375 O   0  0  0  0  0  0  0  0  0  0  0  0
  -35.2104    8.1420  -20.5747 N   0  0  0  0  0  0  0  0  0  0  0  0
  -29.6475    8.0447  -24.6025 C   0  0  0  0  0  0  0  0  0  0  0  0
  -30.4276    9.2247  -24.4003 O   0  0  0  0  0  0  0  0  0  0  0  0
  -29.9484   10.1371  -23.5131 C   0  0  0  0  0  0  0  0  0  0  0  0
  -28.8131   10.8724  -23.8197 C   0  0  0  0  0  0  0  0  0  0  0  0
  -28.3290   11.8027  -22.9206 C   0  0  0  0  0  0  0  0  0  0  0  0
  -28.9726   11.9942  -21.7070 C   0  0  0  0  0  0  0  0  0  0  0  0
  -30.1046   11.2548  -21.3979 C   0  0  0  0  0  0  0  0  0  0  0  0
  -30.5917   10.3283  -22.2993 C   0  0  0  0  0  0  0  0  0  0  0  0
  -28.4934   12.9066  -20.8198 O   0  0  0  0  0  0  0  0  0  0  0  0
  -27.0740   12.9870  -20.6748 C   0  0  0  0  0  0  0  0  0  0  0  0
  -30.2820    5.2795  -22.7299 H   0  0  0  0  0  0  0  0  0  0  0  0
  -28.5710    5.4461  -23.1669 H   0  0  0  0  0  0  0  0  0  0  0  0
  -29.8167    5.3079  -24.4973 H   0  0  0  0  0  0  0  0  0  0  0  0
  -29.0767    6.4353  -20.7372 H   0  0  0  0  0  0  0  0  0  0  0  0
  -35.2012    5.5710  -16.9475 H   0  0  0  0  0  0  0  0  0  0  0  0
  -30.7627    4.3516  -18.1596 H   0  0  0  0  0  0  0  0  0  0  0  0
  -29.5098    7.1592  -17.6901 H   0  0  0  0  0  0  0  0  0  0  0  0
  -28.2001    4.5340  -16.6314 H   0  0  0  0  0  0  0  0  0  0  0  0
  -27.2572    5.6195  -19.3087 H   0  0  0  0  0  0  0  0  0  0  0  0
  -27.2234    3.1777  -19.8634 H   0  0  0  0  0  0  0  0  0  0  0  0
  -27.9542    2.8317  -18.2594 H   0  0  0  0  0  0  0  0  0  0  0  0
  -25.3674    3.9323  -18.8784 H   0  0  0  0  0  0  0  0  0  0  0  0
  -26.6611    6.5638  -17.6887 H   0  0  0  0  0  0  0  0  0  0  0  0
  -30.2998    6.9034  -15.8116 H   0  0  0  0  0  0  0  0  0  0  0  0
  -34.7904    9.0519  -20.8130 H   0  0  0  0  0  0  0  0  0  0  0  0
  -36.1014    7.8548  -21.0041 H   0  0  0  0  0  0  0  0  0  0  0  0
  -28.6026    8.3259  -24.8003 H   0  0  0  0  0  0  0  0  0  0  0  0
  -30.0457    7.4856  -25.4621 H   0  0  0  0  0  0  0  0  0  0  0  0
  -28.2980   10.7147  -24.7788 H   0  0  0  0  0  0  0  0  0  0  0  0
  -27.4333   12.3916  -23.1671 H   0  0  0  0  0  0  0  0  0  0  0  0
  -30.6145   11.4061  -20.4351 H   0  0  0  0  0  0  0  0  0  0  0  0
  -31.4898    9.7423  -22.0544 H   0  0  0  0  0  0  0  0  0  0  0  0
  -26.7876   14.0002  -20.9933 H   0  0  0  0  0  0  0  0  0  0  0  0
  -26.6486   12.2737  -21.3960 H   0  0  0  0  0  0  0  0  0  0  0  0
  -26.7384   12.7747  -19.6490 H   0  0  0  0  0  0  0  0  0  0  0  0
  1  2  1  0  0  0  0
  1 34  1  0  0  0  0
  1 35  1  0  0  0  0
  1 36  1  0  0  0  0
  2  3  2  0  0  0  0
  2 24  1  0  0  0  0
  3  4  1  0  0  0  0
  4  5  1  0  0  0  0
  4 37  1  0  0  0  0
  5 13  1  0  0  0  0
  5  6  2  0  0  0  0
  6  7  1  0  0  0  0
  7 12  1  0  0  0  0
  7  8  2  0  0  0  0
  8  9  1  0  0  0  0
  8 23  1  0  0  0  0
  9 10  2  0  0  0  0
 10 11  1  0  0  0  0
 10 38  1  0  0  0  0
 11 12  2  0  0  0  0
 12 13  1  0  0  0  0
 13 14  1  0  0  0  0
 14 18  1  0  0  0  0
 14 15  1  0  0  0  0
 14 39  1  0  0  0  0
 15 16  1  0  0  0  0
 15 22  1  0  0  0  0
 15 40  1  0  0  0  0
 16 17  1  0  0  0  0
 16 21  1  0  0  0  0
 16 41  1  0  0  0  0
 17 18  1  0  0  0  0
 17 19  1  0  0  0  0
 17 42  1  0  0  0  0
 19 20  1  0  0  0  0
 19 43  1  0  0  0  0
 19 44  1  0  0  0  0
 20 45  1  0  0  0  0
 21 46  1  0  0  0  0
 22 47  1  0  0  0  0
 23 48  1  0  0  0  0
 23 49  1  0  0  0  0
 24 25  1  0  0  0  0
 24 50  1  0  0  0  0
 24 51  1  0  0  0  0
 25 26  1  0  0  0  0
 26 31  2  0  0  0  0
 26 27  1  0  0  0  0
 27 28  2  0  0  0  0
 27 52  1  0  0  0  0
 28 29  1  0  0  0  0
 28 53  1  0  0  0  0
 29 30  2  0  0  0  0
 29 32  1  0  0  0  0
 30 31  1  0  0  0  0
 30 54  1  0  0  0  0
 31 55  1  0  0  0  0
 32 33  1  0  0  0  0
 33 56  1  0  0  0  0
 33 57  1  0  0  0  0
 33 58  1  0  0  0  0
M  END
> <Name>
ZINC12320688

> <reference>
BDB4968

> <quality>
0.734

> <status>
decoy

> <atoms in reference ligand area>
14

> <score>
-22.9715

$$$$
ZINC05114471
      BALL 1.4.0 (Jan  4 2012, 23:22:29)

 41 41  0999  0  0  0  0  0  0999 V2000
  -29.9439   13.1029  -18.3746 C   0  0  0  0  0  0  0  0  0  0  0  0
  -30.9250   12.0997  -18.9848 C   0  0  0  0  0  0  0  0  0  0  0  0
  -32.0233   11.7782  -17.9693 C   0  0  0  0  0  0  0  0  0  0  0  0
  -30.1787   10.8157  -19.3527 C   0  0  0  0  0  0  0  0  0  0  0  0
  -31.1875    9.6919  -19.5976 C   0  0  0  0  0  0  0  0  0  0  0  0
  -31.3361    8.8683  -18.3444 C   0  0  0  0  0  0  0  0  0  0  0  0
  -32.4187    8.7734  -17.8059 O   0  0  0  0  0  0  0  0  0  0  0  0
  -30.2661    8.2372  -17.8218 N   0  0  0  0  0  0  0  0  0  0  0  0
  -32.7913   10.0300  -21.3799 C   0  0  0  0  0  0  0  0  0  0  0  0
  -34.2695   10.3258  -21.6407 C   0  0  0  0  0  0  0  0  0  0  0  0
  -35.1182    9.5169  -20.6939 C   0  0  0  0  0  0  0  0  0  0  0  0
  -34.9151    9.3546  -19.3726 C   0  0  0  0  0  0  0  0  0  0  0  0
  -35.8905    8.5667  -18.8964 N   0  0  0  0  0  0  0  0  0  0  0  0
  -36.6904    8.2345  -19.8725 C   0  0  0  0  0  0  0  0  0  0  0  0
  -36.2473    8.8107  -21.0106 N   0  0  0  0  0  0  0  0  0  0  0  0
  -31.9399   10.9278  -22.2402 C   0  0  0  0  0  0  0  0  0  0  0  0
  -31.7904   10.6768  -23.4126 O   0  0  0  0  0  0  0  0  0  0  0  0
  -32.4908   10.2813  -19.9577 N   0  0  0  0  0  0  0  0  0  0  0  0
  -31.3476   12.0065  -21.7040 O   0  5  0  0  0  0  0  0  0  0  0  0
  -29.3800   11.0169  -20.5745 N   0  3  0  0  0  0  0  0  0  0  0  0
  -30.4341   14.0825  -18.2752 H   0  0  0  0  0  0  0  0  0  0  0  0
  -29.0632   13.1987  -19.0264 H   0  0  0  0  0  0  0  0  0  0  0  0
  -29.6276   12.7499  -17.3819 H   0  0  0  0  0  0  0  0  0  0  0  0
  -31.3773   12.5329  -19.8891 H   0  0  0  0  0  0  0  0  0  0  0  0
  -32.1900   12.6499  -17.3195 H   0  0  0  0  0  0  0  0  0  0  0  0
  -31.7166   10.9179  -17.3561 H   0  0  0  0  0  0  0  0  0  0  0  0
  -32.9551   11.5347  -18.5007 H   0  0  0  0  0  0  0  0  0  0  0  0
  -29.5080   10.5484  -18.5227 H   0  0  0  0  0  0  0  0  0  0  0  0
  -30.8339    9.0482  -20.4165 H   0  0  0  0  0  0  0  0  0  0  0  0
  -29.3862    8.1880  -18.3549 H   0  0  0  0  0  0  0  0  0  0  0  0
  -30.3282    7.8042  -16.8893 H   0  0  0  0  0  0  0  0  0  0  0  0
  -32.5749    8.9795  -21.6239 H   0  0  0  0  0  0  0  0  0  0  0  0
  -34.4629   11.3969  -21.4817 H   0  0  0  0  0  0  0  0  0  0  0  0
  -34.5208   10.0577  -22.6775 H   0  0  0  0  0  0  0  0  0  0  0  0
  -34.0932    9.7916  -18.7865 H   0  0  0  0  0  0  0  0  0  0  0  0
  -37.5786    7.5917  -19.7830 H   0  0  0  0  0  0  0  0  0  0  0  0
  -36.6784    8.7333  -21.9429 H   0  0  0  0  0  0  0  0  0  0  0  0
  -32.4654   11.2971  -19.7892 H   0  0  0  0  0  0  0  0  0  0  0  0
  -29.9955   10.9361  -21.3964 H   0  0  0  0  0  0  0  0  0  0  0  0
  -28.6513   10.2908  -20.6240 H   0  0  0  0  0  0  0  0  0  0  0  0
  -28.9418   11.9489  -20.5586 H   0  0  0  0  0  0  0  0  0  0  0  0
  1  2  1  0  0  0  0
  1 21  1  0  0  0  0
  1 22  1  0  0  0  0
  1 23  1  0  0  0  0
  2  3  1  0  0  0  0
  2  4  1  0  0  0  0
  2 24  1  0  0  0  0
  3 25  1  0  0  0  0
  3 26  1  0  0  0  0
  3 27  1  0  0  0  0
  4  5  1  0  0  0  0
  4 20  1  0  0  0  0
  4 28  1  0  0  0  0
  5  6  1  0  0  0  0
  5 18  1  0  0  0  0
  5 29  1  0  0  0  0
  6  7  2  0  0  0  0
  6  8  1  0  0  0  0
  8 30  1  0  0  0  0
  8 31  1  0  0  0  0
  9 10  1  0  0  0  0
  9 16  1  0  0  0  0
  9 18  1  0  0  0  0
  9 32  1  0  0  0  0
 10 11  1  0  0  0  0
 10 33  1  0  0  0  0
 10 34  1  0  0  0  0
 11 15  1  0  0  0  0
 11 12  2  0  0  0  0
 12 13  1  0  0  0  0
 12 35  1  0  0  0  0
 13 14  2  0  0  0  0
 14 15  1  0  0  0  0
 14 36  1  0  0  0  0
 15 37  1  0  0  0  0
 16 17  2  0  0  0  0
 16 19  1  0  0  0  0
 18 38  1  0  0  0  0
 20 39  1  0  0  0  0
 20 40  1  0  0  0  0
 20 41  1  0  0  0  0
M  END
> <Name>
ZINC05114471

> <reference>
BDB5021

> <quality>
0.683

> <status>
decoy

> <atoms in reference ligand area>
19

> <score>
-22.8892

$$$$
ZINC04642048
      BALL 1.4.0 (Jan  4 2012, 23:22:29)

 52 53  0999  0  0  0  0  0  0999 V2000
  -29.2952   10.8961  -24.1987 C   0  0  0  0  0  0  0  0  0  0  0  0
  -29.5065   10.5425  -22.7251 C   0  0  0  0  0  0  0  0  0  0  0  0
  -31.8419   11.1717  -22.6121 C   0  0  0  0  0  0  0  0  0  0  0  0
  -31.5467   12.1827  -21.5023 C   0  0  0  0  0  0  0  0  0  0  0  0
  -31.2130    9.0053  -23.4917 C   0  0  0  0  0  0  0  0  0  0  0  0
  -30.3536    7.7712  -23.2097 C   0  0  0  0  0  0  0  0  0  0  0  0
  -29.3589    5.8809  -24.4540 C   0  0  0  0  0  0  0  0  0  0  0  0
  -28.6908    5.5333  -23.3701 C   0  0  0  0  0  0  0  0  0  0  0  0
  -29.3072    5.0099  -25.6827 C   0  5  0  0  0  0  0  0  0  0  0  0
  -28.5834    5.7757  -26.7740 C   0  0  0  0  0  0  0  0  0  0  0  0
  -27.4504    6.1768  -26.6150 O   0  0  0  0  0  0  0  0  0  0  0  0
  -29.2475    5.9935  -27.9290 N   0  0  0  0  0  0  0  0  0  0  0  0
  -30.4957    5.5525  -28.1223 C   0  0  0  0  0  0  0  0  0  0  0  0
  -31.0167    5.7887  -29.1941 O   0  0  0  0  0  0  0  0  0  0  0  0
  -31.2144    4.8756  -27.2193 N   0  0  0  0  0  0  0  0  0  0  0  0
  -30.7204    4.5610  -26.0030 C   0  0  0  0  0  0  0  0  0  0  0  0
  -31.3817    3.9431  -25.1965 O   0  0  0  0  0  0  0  0  0  0  0  0
  -32.5759    4.4582  -27.5630 C   0  0  0  0  0  0  0  0  0  0  0  0
  -33.4121    5.6740  -27.8688 C   0  0  0  0  0  0  0  0  0  0  0  0
  -33.9963    5.8156  -29.1136 C   0  0  0  0  0  0  0  0  0  0  0  0
  -34.7641    6.9305  -29.3939 C   0  0  0  0  0  0  0  0  0  0  0  0
  -34.9427    7.9065  -28.4315 C   0  0  0  0  0  0  0  0  0  0  0  0
  -34.3615    7.7630  -27.1854 C   0  0  0  0  0  0  0  0  0  0  0  0
  -33.5950    6.6475  -26.9047 C   0  0  0  0  0  0  0  0  0  0  0  0
  -30.8830   10.0523  -22.5020 N   0  0  0  0  0  0  0  0  0  0  0  0
  -30.1467    7.0680  -24.5230 N   0  3  0  0  0  0  0  0  0  0  0  0
  -30.2748   11.0432  -24.6769 H   0  0  0  0  0  0  0  0  0  0  0  0
  -28.7708   10.0666  -24.6956 H   0  0  0  0  0  0  0  0  0  0  0  0
  -28.6986   11.8164  -24.2821 H   0  0  0  0  0  0  0  0  0  0  0  0
  -28.7904    9.7606  -22.4318 H   0  0  0  0  0  0  0  0  0  0  0  0
  -29.3346   11.4358  -22.1068 H   0  0  0  0  0  0  0  0  0  0  0  0
  -32.8675   10.7902  -22.4999 H   0  0  0  0  0  0  0  0  0  0  0  0
  -31.7301   11.6566  -23.5931 H   0  0  0  0  0  0  0  0  0  0  0  0
  -30.9639   11.7009  -20.7035 H   0  0  0  0  0  0  0  0  0  0  0  0
  -32.4899   12.5694  -21.0889 H   0  0  0  0  0  0  0  0  0  0  0  0
  -30.9657   13.0184  -21.9195 H   0  0  0  0  0  0  0  0  0  0  0  0
  -32.2775    8.7414  -23.4067 H   0  0  0  0  0  0  0  0  0  0  0  0
  -31.0018    9.3774  -24.5051 H   0  0  0  0  0  0  0  0  0  0  0  0
  -29.3824    8.0804  -22.7961 H   0  0  0  0  0  0  0  0  0  0  0  0
  -30.8770    7.1039  -22.5090 H   0  0  0  0  0  0  0  0  0  0  0  0
  -28.0963    4.6079  -23.3636 H   0  0  0  0  0  0  0  0  0  0  0  0
  -28.7286    6.1691  -22.4733 H   0  0  0  0  0  0  0  0  0  0  0  0
  -28.7792    6.5147  -28.6839 H   0  0  0  0  0  0  0  0  0  0  0  0
  -32.5467    3.8024  -28.4457 H   0  0  0  0  0  0  0  0  0  0  0  0
  -33.0184    3.9135  -26.7160 H   0  0  0  0  0  0  0  0  0  0  0  0
  -33.8504    5.0412  -29.8810 H   0  0  0  0  0  0  0  0  0  0  0  0
  -35.2329    7.0410  -30.3829 H   0  0  0  0  0  0  0  0  0  0  0  0
  -35.5472    8.7974  -28.6570 H   0  0  0  0  0  0  0  0  0  0  0  0
  -34.5091    8.5365  -26.4173 H   0  0  0  0  0  0  0  0  0  0  0  0
  -33.1305    6.5344  -25.9140 H   0  0  0  0  0  0  0  0  0  0  0  0
  -29.6974    7.7207  -25.1810 H   0  0  0  0  0  0  0  0  0  0  0  0
  -31.0673    6.8272  -24.9173 H   0  0  0  0  0  0  0  0  0  0  0  0
  1  2  1  0  0  0  0
  1 27  1  0  0  0  0
  1 28  1  0  0  0  0
  1 29  1  0  0  0  0
  2 25  1  0  0  0  0
  2 30  1  0  0  0  0
  2 31  1  0  0  0  0
  3  4  1  0  0  0  0
  3 25  1  0  0  0  0
  3 32  1  0  0  0  0
  3 33  1  0  0  0  0
  4 34  1  0  0  0  0
  4 35  1  0  0  0  0
  4 36  1  0  0  0  0
  5  6  1  0  0  0  0
  5 25  1  0  0  0  0
  5 37  1  0  0  0  0
  5 38  1  0  0  0  0
  6 26  1  0  0  0  0
  6 39  1  0  0  0  0
  6 40  1  0  0  0  0
  7  8  2  0  0  0  0
  7  9  1  0  0  0  0
  7 26  1  0  0  0  0
  8 41  1  0  0  0  0
  8 42  1  0  0  0  0
  9 16  1  0  0  0  0
  9 10  1  0  0  0  0
 10 11  2  0  0  0  0
 10 12  1  0  0  0  0
 12 13  1  0  0  0  0
 12 43  1  0  0  0  0
 13 14  2  0  0  0  0
 13 15  1  0  0  0  0
 15 16  1  0  0  0  0
 15 18  1  0  0  0  0
 16 17  2  0  0  0  0
 18 19  1  0  0  0  0
 18 44  1  0  0  0  0
 18 45  1  0  0  0  0
 19 24  2  0  0  0  0
 19 20  1  0  0  0  0
 20 21  2  0  0  0  0
 20 46  1  0  0  0  0
 21 22  1  0  0  0  0
 21 47  1  0  0  0  0
 22 23  2  0  0  0  0
 22 48  1  0  0  0  0
 23 24  1  0  0  0  0
 23 49  1  0  0  0  0
 24 50  1  0  0  0  0
 26 51  1  0  0  0  0
 26 52  1  0  0  0  0
M  END
> <Name>
ZINC04642048

> <reference>
BDB4997

> <quality>
0.808

> <status>
decoy

> <atoms in reference ligand area>
12

> <score>
-22.7529

$$$$
ZINC15636405
      BALL 1.4.0 (Jan  4 2012, 23:22:29)

 56 59  0999  0  0  0  0  0  0999 V2000
  -29.1496    7.8277  -24.7229 C   0  0  0  0  0  0  0  0  0  0  0  0
  -29.9116    6.8109  -24.1753 C   0  0  0  0  0  0  0  0  0  0  0  0
  -31.0978    7.1020  -23.5345 C   0  0  0  0  0  0  0  0  0  0  0  0
  -31.5295    8.4271  -23.4393 C   0  0  0  0  0  0  0  0  0  0  0  0
  -30.7581    9.4480  -24.0000 C   0  0  0  0  0  0  0  0  0  0  0  0
  -29.5709    9.1427  -24.6325 C   0  0  0  0  0  0  0  0  0  0  0  0
  -32.7965    8.7463  -22.7557 C   0  0  0  0  0  0  0  0  0  0  0  0
  -33.7723    7.8907  -22.7651 N   0  0  0  0  0  0  0  0  0  0  0  0
  -33.6726    6.7228  -23.5326 N   0  0  0  0  0  0  0  0  0  0  0  0
  -33.5930    5.5222  -22.9254 C   0  0  0  0  0  0  0  0  0  0  0  0
  -32.5879    5.2156  -22.3137 O   0  0  0  0  0  0  0  0  0  0  0  0
  -34.7275    4.5782  -23.0031 C   0  0  0  0  0  0  0  0  0  0  0  0
  -34.5533    3.3184  -23.5793 C   0  0  0  0  0  0  0  0  0  0  0  0
  -35.6153    2.4405  -23.6443 C   0  0  0  0  0  0  0  0  0  0  0  0
  -36.8538    2.8102  -23.1500 C   0  0  0  0  0  0  0  0  0  0  0  0
  -37.0332    4.0567  -22.5775 C   0  0  0  0  0  0  0  0  0  0  0  0
  -35.9781    4.9425  -22.5014 C   0  0  0  0  0  0  0  0  0  0  0  0
  -38.3600    4.4412  -22.0459 N   0  0  0  0  0  0  0  0  0  0  0  0
  -38.4795    5.4555  -21.3823 O   0  0  0  0  0  0  0  0  0  0  0  0
  -39.3323    3.7433  -22.2721 O   0  0  0  0  0  0  0  0  0  0  0  0
  -32.9582   10.0658  -22.0460 C   0  0  0  0  0  0  0  0  0  0  0  0
  -33.8215    9.8713  -20.7980 C   0  0  0  0  0  0  0  0  0  0  0  0
  -33.8820   11.1622  -20.0227 C   0  0  0  0  0  0  0  0  0  0  0  0
  -34.5160   12.2849  -20.3809 C   0  0  0  0  0  0  0  0  0  0  0  0
  -33.0594   12.9926  -18.8118 C   0  0  0  0  0  0  0  0  0  0  0  0
  -33.2514   11.4423  -18.6973 C   0  0  0  0  0  0  0  0  0  0  0  0
  -31.9092   10.8850  -18.3745 C   0  0  0  0  0  0  0  0  0  0  0  0
  -31.2424   11.5460  -17.4050 C   0  0  0  0  0  0  0  0  0  0  0  0
  -31.8696   12.7121  -16.7494 C   0  0  0  0  0  0  0  0  0  0  0  0
  -32.7559   13.4809  -17.4367 C   0  0  0  0  0  0  0  0  0  0  0  0
  -35.2139    9.4663  -21.2084 C   0  0  0  0  0  0  0  0  0  0  0  0
  -35.9429    8.9204  -20.4144 O   0  0  0  0  0  0  0  0  0  0  0  0
  -34.3206   13.2789  -19.4341 N   0  3  0  0  0  0  0  0  0  0  0  0
  -35.6441    9.7121  -22.4559 O   0  5  0  0  0  0  0  0  0  0  0  0
  -28.2043    7.5896  -25.2326 H   0  0  0  0  0  0  0  0  0  0  0  0
  -29.5706    5.7679  -24.2513 H   0  0  0  0  0  0  0  0  0  0  0  0
  -31.7025    6.2926  -23.0994 H   0  0  0  0  0  0  0  0  0  0  0  0
  -31.0966   10.4928  -23.9372 H   0  0  0  0  0  0  0  0  0  0  0  0
  -28.9577    9.9464  -25.0661 H   0  0  0  0  0  0  0  0  0  0  0  0
  -33.6601    6.7817  -24.5608 H   0  0  0  0  0  0  0  0  0  0  0  0
  -33.5715    3.0267  -23.9804 H   0  0  0  0  0  0  0  0  0  0  0  0
  -35.4773    1.4443  -24.0900 H   0  0  0  0  0  0  0  0  0  0  0  0
  -37.6996    2.1097  -23.2128 H   0  0  0  0  0  0  0  0  0  0  0  0
  -36.1221    5.9335  -22.0463 H   0  0  0  0  0  0  0  0  0  0  0  0
  -33.4445   10.7879  -22.7184 H   0  0  0  0  0  0  0  0  0  0  0  0
  -31.9695   10.4474  -21.7514 H   0  0  0  0  0  0  0  0  0  0  0  0
  -33.3818    9.0848  -20.1670 H   0  0  0  0  0  0  0  0  0  0  0  0
  -35.1099   12.4028  -21.2993 H   0  0  0  0  0  0  0  0  0  0  0  0
  -32.2468   13.4639  -19.3844 H   0  0  0  0  0  0  0  0  0  0  0  0
  -33.8835   10.9931  -17.9171 H   0  0  0  0  0  0  0  0  0  0  0  0
  -31.4938   10.0041  -18.8857 H   0  0  0  0  0  0  0  0  0  0  0  0
  -30.2364   11.2180  -17.1042 H   0  0  0  0  0  0  0  0  0  0  0  0
  -31.6198   12.9580  -15.7068 H   0  0  0  0  0  0  0  0  0  0  0  0
  -33.2114   14.3880  -17.0128 H   0  0  0  0  0  0  0  0  0  0  0  0
  -34.2835   14.2000  -19.8933 H   0  0  0  0  0  0  0  0  0  0  0  0
  -35.0727   13.2492  -18.7310 H   0  0  0  0  0  0  0  0  0  0  0  0
  1  6  2  0  0  0  0
  1  2  1  0  0  0  0
  1 35  1  0  0  0  0
  2  3  2  0  0  0  0
  2 36  1  0  0  0  0
  3  4  1  0  0  0  0
  3 37  1  0  0  0  0
  4  5  2  0  0  0  0
  4  7  1  0  0  0  0
  5  6  1  0  0  0  0
  5 38  1  0  0  0  0
  6 39  1  0  0  0  0
  7  8  2  0  0  0  0
  7 21  1  0  0  0  0
  8  9  1  0  0  0  0
  9 10  1  0  0  0  0
  9 40  1  0  0  0  0
 10 11  2  0  0  0  0
 10 12  1  0  0  0  0
 12 17  2  0  0  0  0
 12 13  1  0  0  0  0
 13 14  2  0  0  0  0
 13 41  1  0  0  0  0
 14 15  1  0  0  0  0
 14 42  1  0  0  0  0
 15 16  2  0  0  0  0
 15 43  1  0  0  0  0
 16 17  1  0  0  0  0
 16 18  1  0  0  0  0
 17 44  1  0  0  0  0
 18 19  2  0  0  0  0
 18 20  2  0  0  0  0
 21 22  1  0  0  0  0
 21 45  1  0  0  0  0
 21 46  1  0  0  0  0
 22 23  1  0  0  0  0
 22 31  1  0  0  0  0
 22 47  1  0  0  0  0
 23 26  1  0  0  0  0
 23 24  2  0  0  0  0
 24 33  1  0  0  0  0
 24 48  1  0  0  0  0
 25 30  1  0  0  0  0
 25 26  1  0  0  0  0
 25 33  1  0  0  0  0
 25 49  1  0  0  0  0
 26 27  1  0  0  0  0
 26 50  1  0  0  0  0
 27 28  2  0  0  0  0
 27 51  1  0  0  0  0
 28 29  1  0  0  0  0
 28 52  1  0  0  0  0
 29 30  2  0  0  0  0
 29 53  1  0  0  0  0
 30 54  1  0  0  0  0
 31 32  2  0  0  0  0
 31 34  1  0  0  0  0
 33 55  1  0  0  0  0
 33 56  1  0  0  0  0
M  END
> <Name>
ZINC15636405

> <reference>
BDB4968

> <quality>
0.817

> <status>
decoy

> <atoms in reference ligand area>
11

> <score>
-22.5584

$$$$
ZINC29829551
      BALL 1.4.0 (Jan  4 2012, 23:22:29)

 37 39  0999  0  0  0  0  0  0999 V2000
  -35.2641    8.7622  -19.1580 C   0  0  0  0  0  0  0  0  0  0  0  0
  -34.5265   10.0359  -19.4813 C   0  0  0  0  0  0  0  0  0  0  0  0
  -33.6579   10.6729  -18.6486 C   0  0  0  0  0  0  0  0  0  0  0  0
  -33.1952   11.8568  -19.3911 C   0  0  0  0  0  0  0  0  0  0  0  0
  -32.3080   12.9207  -19.1211 C   0  0  0  0  0  0  0  0  0  0  0  0
  -31.7206   12.9928  -18.0553 O   0  0  0  0  0  0  0  0  0  0  0  0
  -32.1283   13.8581  -20.0802 N   0  0  0  0  0  0  0  0  0  0  0  0
  -32.7908   13.7595  -21.2593 C   0  0  0  0  0  0  0  0  0  0  0  0
  -33.6122   12.7813  -21.5190 N   0  0  0  0  0  0  0  0  0  0  0  0
  -33.8478   11.8101  -20.6233 C   0  0  0  0  0  0  0  0  0  0  0  0
  -34.6255   10.7150  -20.6317 O   0  0  0  0  0  0  0  0  0  0  0  0
  -33.2636   10.2633  -17.2906 C   0  0  0  0  0  0  0  0  0  0  0  0
  -32.0863   10.2041  -16.9909 O   0  0  0  0  0  0  0  0  0  0  0  0
  -34.2073    9.9538  -16.3794 N   0  0  0  0  0  0  0  0  0  0  0  0
  -33.8149    9.5462  -15.0280 C   0  0  0  0  0  0  0  0  0  0  0  0
  -34.9703    8.7916  -14.3674 C   0  0  0  0  0  0  0  0  0  0  0  0
  -35.3834    9.4979  -13.1522 N   0  0  0  0  0  0  0  0  0  0  0  0
  -36.7257    9.7899  -12.9403 C   0  0  0  0  0  0  0  0  0  0  0  0
  -37.2764    9.6604  -11.6669 C   0  0  0  0  0  0  0  0  0  0  0  0
  -38.5508    9.9391  -11.4703 N   0  0  0  0  0  0  0  0  0  0  0  0
  -39.3050   10.3409  -12.4799 C   0  0  0  0  0  0  0  0  0  0  0  0
  -38.7625   10.4710  -13.7438 C   0  0  0  0  0  0  0  0  0  0  0  0
  -37.4848   10.1980  -13.9487 N   0  0  0  0  0  0  0  0  0  0  0  0
  -36.2333    9.1252  -18.7854 H   0  0  0  0  0  0  0  0  0  0  0  0
  -34.7231    8.3789  -18.2803 H   0  0  0  0  0  0  0  0  0  0  0  0
  -35.3490    8.0349  -19.9789 H   0  0  0  0  0  0  0  0  0  0  0  0
  -31.4875   14.6473  -19.9145 H   0  0  0  0  0  0  0  0  0  0  0  0
  -32.6291   14.5332  -22.0243 H   0  0  0  0  0  0  0  0  0  0  0  0
  -35.2043   10.0038  -16.6332 H   0  0  0  0  0  0  0  0  0  0  0  0
  -32.9337    8.8902  -15.0841 H   0  0  0  0  0  0  0  0  0  0  0  0
  -33.5713   10.4376  -14.4312 H   0  0  0  0  0  0  0  0  0  0  0  0
  -35.8189    8.7363  -15.0651 H   0  0  0  0  0  0  0  0  0  0  0  0
  -34.6435    7.7742  -14.1062 H   0  0  0  0  0  0  0  0  0  0  0  0
  -34.6791    9.7780  -12.4548 H   0  0  0  0  0  0  0  0  0  0  0  0
  -36.6495    9.3264  -10.8269 H   0  0  0  0  0  0  0  0  0  0  0  0
  -40.3674   10.5722  -12.3127 H   0  0  0  0  0  0  0  0  0  0  0  0
  -39.3943   10.8022  -14.5812 H   0  0  0  0  0  0  0  0  0  0  0  0
  1  2  1  0  0  0  0
  1 24  1  0  0  0  0
  1 25  1  0  0  0  0
  1 26  1  0  0  0  0
  2 11  1  0  0  0  0
  2  3  2  0  0  0  0
  3  4  1  0  0  0  0
  3 12  1  0  0  0  0
  4 10  2  0  0  0  0
  4  5  1  0  0  0  0
  5  6  2  0  0  0  0
  5  7  1  0  0  0  0
  7  8  1  0  0  0  0
  7 27  1  0  0  0  0
  8  9  2  0  0  0  0
  8 28  1  0  0  0  0
  9 10  1  0  0  0  0
 10 11  1  0  0  0  0
 12 13  2  0  0  0  0
 12 14  1  0  0  0  0
 14 15  1  0  0  0  0
 14 29  1  0  0  0  0
 15 16  1  0  0  0  0
 15 30  1  0  0  0  0
 15 31  1  0  0  0  0
 16 17  1  0  0  0  0
 16 32  1  0  0  0  0
 16 33  1  0  0  0  0
 17 18  1  0  0  0  0
 17 34  1  0  0  0  0
 18 23  2  0  0  0  0
 18 19  1  0  0  0  0
 19 20  2  0  0  0  0
 19 35  1  0  0  0  0
 20 21  1  0  0  0  0
 21 22  2  0  0  0  0
 21 36  1  0  0  0  0
 22 23  1  0  0  0  0
 22 37  1  0  0  0  0
M  END
> <Name>
ZINC29829551

> <reference>
BDB4932

> <quality>
0.694

> <status>
decoy

> <atoms in reference ligand area>
10

> <score>
-22.5232

$$$$
ZINC06996143
      BALL 1.4.0 (Jan  4 2012, 23:22:29)

 29 30  0999  0  0  0  0  0  0999 V2000
  -24.9221   12.2267  -20.4867 C   0  0  0  0  0  0  0  0  0  0  0  0
  -26.3186   12.7136  -20.1972 C   0  0  0  0  0  0  0  0  0  0  0  0
  -26.8457   12.4953  -18.9766 N   0  5  0  0  0  0  0  0  0  0  0  0
  -28.1039   12.9269  -18.6759 C   0  0  0  0  0  0  0  0  0  0  0  0
  -28.8364   13.5865  -19.6582 C   0  0  0  0  0  0  0  0  0  0  0  0
  -28.2273   13.7876  -20.9276 C   0  0  0  0  0  0  0  0  0  0  0  0
  -28.8309   14.3655  -21.8180 O   0  0  0  0  0  0  0  0  0  0  0  0
  -26.9786   13.3333  -21.1359 N   0  0  0  0  0  0  0  0  0  0  0  0
  -30.2010   14.0678  -19.3891 C   0  0  0  0  0  0  0  0  0  0  0  0
  -31.0815   13.2668  -18.8697 N   0  0  0  0  0  0  0  0  0  0  0  0
  -32.3804   13.7249  -18.6136 N   0  0  0  0  0  0  0  0  0  0  0  0
  -33.0284   13.3461  -17.4616 C   0  0  0  0  0  0  0  0  0  0  0  0
  -34.7050   12.9359  -15.9860 C   0  0  0  0  0  0  0  0  0  0  0  0
  -33.3650   12.5684  -15.3182 C   0  0  0  0  0  0  0  0  0  0  0  0
  -32.3689   12.8750  -16.3583 N   0  0  0  0  0  0  0  0  0  0  0  0
  -28.6306   12.7136  -17.4514 O   0  0  0  0  0  0  0  0  0  0  0  0
  -34.3165   13.4061  -17.3300 N   0  3  0  0  0  0  0  0  0  0  0  0
  -24.2493   13.0023  -20.0921 H   0  0  0  0  0  0  0  0  0  0  0  0
  -24.8276   12.2302  -21.5827 H   0  0  0  0  0  0  0  0  0  0  0  0
  -24.7110   11.2369  -20.0559 H   0  0  0  0  0  0  0  0  0  0  0  0
  -30.4751   15.1061  -19.6278 H   0  0  0  0  0  0  0  0  0  0  0  0
  -32.8500   14.3456  -19.2883 H   0  0  0  0  0  0  0  0  0  0  0  0
  -35.3447   12.0445  -16.0656 H   0  0  0  0  0  0  0  0  0  0  0  0
  -35.1972   13.7460  -15.4279 H   0  0  0  0  0  0  0  0  0  0  0  0
  -33.1975   13.1988  -14.4324 H   0  0  0  0  0  0  0  0  0  0  0  0
  -33.3433   11.4960  -15.0743 H   0  0  0  0  0  0  0  0  0  0  0  0
  -31.3496   12.7555  -16.2708 H   0  0  0  0  0  0  0  0  0  0  0  0
  -28.2587   11.8414  -17.1667 H   0  0  0  0  0  0  0  0  0  0  0  0
  -34.9711   13.7330  -18.0550 H   0  0  0  0  0  0  0  0  0  0  0  0
  1  2  1  0  0  0  0
  1 18  1  0  0  0  0
  1 19  1  0  0  0  0
  1 20  1  0  0  0  0
  2  8  2  0  0  0  0
  2  3  1  0  0  0  0
  3  4  1  0  0  0  0
  4  5  2  0  0  0  0
  4 16  1  0  0  0  0
  5  6  1  0  0  0  0
  5  9  1  0  0  0  0
  6  7  2  0  0  0  0
  6  8  1  0  0  0  0
  9 10  2  0  0  0  0
  9 21  1  0  0  0  0
 10 11  1  0  0  0  0
 11 12  1  0  0  0  0
 11 22  1  0  0  0  0
 12 15  1  0  0  0  0
 12 17  2  0  0  0  0
 13 14  1  0  0  0  0
 13 17  1  0  0  0  0
 13 23  1  0  0  0  0
 13 24  1  0  0  0  0
 14 15  1  0  0  0  0
 14 25  1  0  0  0  0
 14 26  1  0  0  0  0
 15 27  1  0  0  0  0
 16 28  1  0  0  0  0
 17 29  1  0  0  0  0
M  END
> <Name>
ZINC06996143

> <reference>
BDB5008

> <quality>
0.725

> <status>
decoy

> <atoms in reference ligand area>
11

> <score>
-22.4831

$$$$
ZINC01635054
      BALL 1.4.0 (Jan  4 2012, 23:22:29)

 41 41  0999  0  0  0  0  0  0999 V2000
  -35.7333    7.7208  -25.1522 C   0  0  0  0  0  0  0  0  0  0  0  0
  -33.5373    8.6797  -24.8040 C   0  0  0  0  0  0  0  0  0  0  0  0
  -33.9802    7.3546  -26.7816 C   0  0  0  0  0  0  0  0  0  0  0  0
  -33.5879    6.0774  -26.0361 C   0  0  0  0  0  0  0  0  0  0  0  0
  -32.0628    5.9753  -25.9670 C   0  0  0  0  0  0  0  0  0  0  0  0
  -31.5271    7.1394  -25.2569 N   0  0  0  0  0  0  0  0  0  0  0  0
  -30.1994    7.3709  -25.2477 C   0  0  0  0  0  0  0  0  0  0  0  0
  -29.4649    6.7268  -25.9719 O   0  0  0  0  0  0  0  0  0  0  0  0
  -29.6857    8.3161  -24.4358 N   0  0  0  0  0  0  0  0  0  0  0  0
  -30.5319    9.0581  -23.6016 N   0  0  0  0  0  0  0  0  0  0  0  0
  -30.2203   10.2753  -23.2787 C   0  0  0  0  0  0  0  0  0  0  0  0
  -31.1111   11.0565  -22.4004 C   0  0  0  0  0  0  0  0  0  0  0  0
  -30.7785   12.3674  -22.0503 C   0  0  0  0  0  0  0  0  0  0  0  0
  -31.6189   13.0938  -21.2329 C   0  0  0  0  0  0  0  0  0  0  0  0
  -32.7838   12.5232  -20.7507 C   0  0  0  0  0  0  0  0  0  0  0  0
  -33.1194   11.2254  -21.0928 C   0  0  0  0  0  0  0  0  0  0  0  0
  -32.2911   10.4890  -21.9143 C   0  0  0  0  0  0  0  0  0  0  0  0
  -34.3704   10.6257  -20.5766 N   0  0  0  0  0  0  0  0  0  0  0  0
  -34.8137   10.9761  -19.4977 O   0  0  0  0  0  0  0  0  0  0  0  0
  -34.9565    9.7819  -21.2309 O   0  0  0  0  0  0  0  0  0  0  0  0
  -34.5525    8.3144  -25.8143 N   0  3  0  0  0  0  0  0  0  0  0  0
  -36.4018    7.2946  -25.9147 H   0  0  0  0  0  0  0  0  0  0  0  0
  -36.2691    8.5032  -24.5945 H   0  0  0  0  0  0  0  0  0  0  0  0
  -35.4118    6.9290  -24.4596 H   0  0  0  0  0  0  0  0  0  0  0  0
  -32.8455    9.4187  -25.2344 H   0  0  0  0  0  0  0  0  0  0  0  0
  -32.9744    7.7806  -24.5126 H   0  0  0  0  0  0  0  0  0  0  0  0
  -34.0310    9.1083  -23.9194 H   0  0  0  0  0  0  0  0  0  0  0  0
  -34.7293    7.1175  -27.5513 H   0  0  0  0  0  0  0  0  0  0  0  0
  -33.0889    7.7945  -27.2529 H   0  0  0  0  0  0  0  0  0  0  0  0
  -33.9994    6.1068  -25.0164 H   0  0  0  0  0  0  0  0  0  0  0  0
  -33.9895    5.2027  -26.5685 H   0  0  0  0  0  0  0  0  0  0  0  0
  -31.7806    5.0574  -25.4305 H   0  0  0  0  0  0  0  0  0  0  0  0
  -31.6496    5.9463  -26.9860 H   0  0  0  0  0  0  0  0  0  0  0  0
  -32.1651    7.7810  -24.7647 H   0  0  0  0  0  0  0  0  0  0  0  0
  -28.6711    8.4930  -24.4287 H   0  0  0  0  0  0  0  0  0  0  0  0
  -29.2916   10.7248  -23.6601 H   0  0  0  0  0  0  0  0  0  0  0  0
  -29.8484   12.8191  -22.4257 H   0  0  0  0  0  0  0  0  0  0  0  0
  -31.3626   14.1291  -20.9638 H   0  0  0  0  0  0  0  0  0  0  0  0
  -33.4461   13.1044  -20.0922 H   0  0  0  0  0  0  0  0  0  0  0  0
  -32.5593    9.4574  -22.1858 H   0  0  0  0  0  0  0  0  0  0  0  0
  -34.8435    9.1642  -26.3184 H   0  0  0  0  0  0  0  0  0  0  0  0
  1 21  1  0  0  0  0
  1 22  1  0  0  0  0
  1 23  1  0  0  0  0
  1 24  1  0  0  0  0
  2 21  1  0  0  0  0
  2 25  1  0  0  0  0
  2 26  1  0  0  0  0
  2 27  1  0  0  0  0
  3  4  1  0  0  0  0
  3 21  1  0  0  0  0
  3 28  1  0  0  0  0
  3 29  1  0  0  0  0
  4  5  1  0  0  0  0
  4 30  1  0  0  0  0
  4 31  1  0  0  0  0
  5  6  1  0  0  0  0
  5 32  1  0  0  0  0
  5 33  1  0  0  0  0
  6  7  1  0  0  0  0
  6 34  1  0  0  0  0
  7  8  2  0  0  0  0
  7  9  1  0  0  0  0
  9 10  1  0  0  0  0
  9 35  1  0  0  0  0
 10 11  2  0  0  0  0
 11 12  1  0  0  0  0
 11 36  1  0  0  0  0
 12 17  2  0  0  0  0
 12 13  1  0  0  0  0
 13 14  2  0  0  0  0
 13 37  1  0  0  0  0
 14 15  1  0  0  0  0
 14 38  1  0  0  0  0
 15 16  2  0  0  0  0
 15 39  1  0  0  0  0
 16 17  1  0  0  0  0
 16 18  1  0  0  0  0
 17 40  1  0  0  0  0
 18 19  2  0  0  0  0
 18 20  2  0  0  0  0
 21 41  1  0  0  0  0
M  END
> <Name>
ZINC01635054

> <reference>
BDB5222

> <quality>
0.757

> <status>
decoy

> <atoms in reference ligand area>
11

> <score>
-22.4775

$$$$
ZINC18663576
      BALL 1.4.0 (Jan  4 2012, 23:22:29)

 48 49  0999  0  0  0  0  0  0999 V2000
  -33.0574   13.9584  -21.6069 C   0  0  0  0  0  0  0  0  0  0  0  0
  -32.7550   14.1727  -20.1226 C   0  0  0  0  0  0  0  0  0  0  0  0
  -33.7568   13.4733  -19.3142 N   0  0  0  0  0  0  0  0  0  0  0  0
  -33.5420   12.1552  -18.9288 C   0  0  0  0  0  0  0  0  0  0  0  0
  -32.9526   11.6866  -17.8464 N   0  0  0  0  0  0  0  0  0  0  0  0
  -32.8449   10.3279  -17.6590 N   0  0  0  0  0  0  0  0  0  0  0  0
  -33.3318    9.5001  -18.5635 C   0  0  0  0  0  0  0  0  0  0  0  0
  -33.9838   10.6433  -19.7714 S   0  0  0  0  0  0  0  0  0  0  0  0
  -33.3320    7.7382  -18.5796 S   0  0  0  0  0  0  0  0  0  0  0  0
  -31.8319    7.2909  -17.6630 C   0  0  0  0  0  0  0  0  0  0  0  0
  -32.0145    7.6277  -16.2055 C   0  0  0  0  0  0  0  0  0  0  0  0
  -31.0960    8.1058  -15.5738 O   0  0  0  0  0  0  0  0  0  0  0  0
  -33.1984    7.3976  -15.6039 N   0  0  0  0  0  0  0  0  0  0  0  0
  -33.4042    7.8114  -14.2812 C   0  0  0  0  0  0  0  0  0  0  0  0
  -32.4412    7.5527  -13.3146 C   0  0  0  0  0  0  0  0  0  0  0  0
  -32.6475    7.9554  -12.0102 C   0  0  0  0  0  0  0  0  0  0  0  0
  -33.8112    8.6283  -11.6672 C   0  0  0  0  0  0  0  0  0  0  0  0
  -34.7709    8.8920  -12.6333 C   0  0  0  0  0  0  0  0  0  0  0  0
  -34.5684    8.4848  -13.9374 C   0  0  0  0  0  0  0  0  0  0  0  0
  -36.2488    9.7462  -12.1967 S   0  0  0  0  0  0  0  0  0  0  0  0
  -36.6648    9.2232  -10.9426 O   0  0  0  0  0  0  0  0  0  0  0  0
  -35.9933   11.1294  -12.3983 O   0  0  0  0  0  0  0  0  0  0  0  0
  -37.4078    9.3136  -13.2977 N   0  0  0  0  0  0  0  0  0  0  0  0
  -38.3435   10.3181  -13.8093 C   0  0  0  0  0  0  0  0  0  0  0  0
  -37.4973    7.9264  -13.7602 C   0  0  0  0  0  0  0  0  0  0  0  0
  -34.0109    9.0299  -10.3837 O   0  0  0  0  0  0  0  0  0  0  0  0
  -33.1896   10.0956   -9.9021 C   0  0  0  0  0  0  0  0  0  0  0  0
  -32.8804   14.8943  -22.1571 H   0  0  0  0  0  0  0  0  0  0  0  0
  -34.1080   13.6557  -21.7282 H   0  0  0  0  0  0  0  0  0  0  0  0
  -32.4015   13.1704  -22.0054 H   0  0  0  0  0  0  0  0  0  0  0  0
  -31.7556   13.7759  -19.8908 H   0  0  0  0  0  0  0  0  0  0  0  0
  -32.7851   15.2480  -19.8926 H   0  0  0  0  0  0  0  0  0  0  0  0
  -34.6204   13.9583  -19.0313 H   0  0  0  0  0  0  0  0  0  0  0  0
  -30.9750    7.8524  -18.0637 H   0  0  0  0  0  0  0  0  0  0  0  0
  -31.6454    6.2120  -17.7690 H   0  0  0  0  0  0  0  0  0  0  0  0
  -33.9518    6.9176  -16.1165 H   0  0  0  0  0  0  0  0  0  0  0  0
  -31.5144    7.0272  -13.5882 H   0  0  0  0  0  0  0  0  0  0  0  0
  -31.8888    7.7426  -11.2425 H   0  0  0  0  0  0  0  0  0  0  0  0
  -35.3295    8.6941  -14.7035 H   0  0  0  0  0  0  0  0  0  0  0  0
  -39.3245   10.0002  -13.4265 H   0  0  0  0  0  0  0  0  0  0  0  0
  -38.3625   10.1481  -14.8959 H   0  0  0  0  0  0  0  0  0  0  0  0
  -38.0996   11.3577  -13.5450 H   0  0  0  0  0  0  0  0  0  0  0  0
  -38.3839    7.9101  -14.4110 H   0  0  0  0  0  0  0  0  0  0  0  0
  -37.7611    7.3527  -12.8594 H   0  0  0  0  0  0  0  0  0  0  0  0
  -36.5951    7.5439  -14.2598 H   0  0  0  0  0  0  0  0  0  0  0  0
  -33.7053   11.0292  -10.1713 H   0  0  0  0  0  0  0  0  0  0  0  0
  -32.2536   10.0490  -10.4779 H   0  0  0  0  0  0  0  0  0  0  0  0
  -33.0031   10.0333   -8.8199 H   0  0  0  0  0  0  0  0  0  0  0  0
  1  2  1  0  0  0  0
  1 28  1  0  0  0  0
  1 29  1  0  0  0  0
  1 30  1  0  0  0  0
  2  3  1  0  0  0  0
  2 31  1  0  0  0  0
  2 32  1  0  0  0  0
  3  4  1  0  0  0  0
  3 33  1  0  0  0  0
  4  8  1  0  0  0  0
  4  5  2  0  0  0  0
  5  6  1  0  0  0  0
  6  7  2  0  0  0  0
  7  8  1  0  0  0  0
  7  9  1  0  0  0  0
  9 10  1  0  0  0  0
 10 11  1  0  0  0  0
 10 34  1  0  0  0  0
 10 35  1  0  0  0  0
 11 12  2  0  0  0  0
 11 13  1  0  0  0  0
 13 14  1  0  0  0  0
 13 36  1  0  0  0  0
 14 19  2  0  0  0  0
 14 15  1  0  0  0  0
 15 16  2  0  0  0  0
 15 37  1  0  0  0  0
 16 17  1  0  0  0  0
 16 38  1  0  0  0  0
 17 18  2  0  0  0  0
 17 26  1  0  0  0  0
 18 19  1  0  0  0  0
 18 20  1  0  0  0  0
 19 39  1  0  0  0  0
 20 21  2  0  0  0  0
 20 22  2  0  0  0  0
 20 23  1  0  0  0  0
 23 24  1  0  0  0  0
 23 25  1  0  0  0  0
 24 40  1  0  0  0  0
 24 41  1  0  0  0  0
 24 42  1  0  0  0  0
 25 43  1  0  0  0  0
 25 44  1  0  0  0  0
 25 45  1  0  0  0  0
 26 27  1  0  0  0  0
 27 46  1  0  0  0  0
 27 47  1  0  0  0  0
 27 48  1  0  0  0  0
M  END
> <Name>
ZINC18663576

> <reference>
BDB4946

> <quality>
0.739

> <status>
decoy

> <atoms in reference ligand area>
10

> <score>
-22.2653

$$$$
ZINC09467478
      BALL 1.4.0 (Jan  4 2012, 23:22:29)

 46 48  0999  0  0  0  0  0  0999 V2000
  -37.2649    8.6699  -14.2794 C   0  0  0  0  0  0  0  0  0  0  0  0
  -38.4262    8.1086  -13.7929 C   0  0  0  0  0  0  0  0  0  0  0  0
  -39.2360    8.8278  -12.9236 C   0  0  0  0  0  0  0  0  0  0  0  0
  -38.8769   10.1120  -12.5363 C   0  0  0  0  0  0  0  0  0  0  0  0
  -37.7141   10.6781  -13.0138 C   0  0  0  0  0  0  0  0  0  0  0  0
  -36.8973    9.9585  -13.8879 C   0  0  0  0  0  0  0  0  0  0  0  0
  -35.6497   10.5618  -14.4022 C   0  0  0  0  0  0  0  0  0  0  0  0
  -35.3190   11.8312  -14.3538 N   0  0  0  0  0  0  0  0  0  0  0  0
  -34.1653   12.0051  -14.8924 N   0  0  0  0  0  0  0  0  0  0  0  0
  -33.6882   10.8572  -15.3179 C   0  0  0  0  0  0  0  0  0  0  0  0
  -34.6131    9.8978  -15.0166 N   0  0  0  0  0  0  0  0  0  0  0  0
  -34.5278    8.5590  -15.2742 N   0  0  0  0  0  0  0  0  0  0  0  0
  -32.1407   10.6016  -16.1207 S   0  0  0  0  0  0  0  0  0  0  0  0
  -32.4588    9.0071  -16.9161 C   0  0  0  0  0  0  0  0  0  0  0  0
  -33.0342    9.2369  -18.2897 C   0  0  0  0  0  0  0  0  0  0  0  0
  -33.1507    8.3088  -19.0616 O   0  0  0  0  0  0  0  0  0  0  0  0
  -33.4195   10.4741  -18.6605 N   0  0  0  0  0  0  0  0  0  0  0  0
  -33.9788   10.6977  -19.9959 C   0  0  0  0  0  0  0  0  0  0  0  0
  -34.0994   12.2010  -20.2533 C   0  0  0  0  0  0  0  0  0  0  0  0
  -32.8267   12.8542  -19.9375 N   0  0  0  0  0  0  0  0  0  0  0  0
  -32.6375   13.2979  -18.7061 C   0  0  0  0  0  0  0  0  0  0  0  0
  -33.4771   13.1815  -17.8393 O   0  0  0  0  0  0  0  0  0  0  0  0
  -31.2915   13.9609  -18.4510 C   0  0  0  0  0  0  0  0  0  0  0  0
  -30.5446   13.8101  -20.1229 S   0  0  0  0  0  0  0  0  0  0  0  0
  -31.9115   12.9772  -20.9167 C   0  0  0  0  0  0  0  0  0  0  0  0
  -31.9954   12.6080  -22.0720 O   0  0  0  0  0  0  0  0  0  0  0  0
  -40.3831    8.2734  -12.4513 O   0  0  0  0  0  0  0  0  0  0  0  0
  -41.4570    9.1653  -12.1463 C   0  0  0  0  0  0  0  0  0  0  0  0
  -42.4626    8.4693  -11.4669 F   0  0  0  0  0  0  0  0  0  0  0  0
  -40.9840   10.2062  -11.3399 F   0  0  0  0  0  0  0  0  0  0  0  0
  -36.6287    8.1032  -14.9752 H   0  0  0  0  0  0  0  0  0  0  0  0
  -38.7119    7.0898  -14.0937 H   0  0  0  0  0  0  0  0  0  0  0  0
  -39.5210   10.6784  -11.8477 H   0  0  0  0  0  0  0  0  0  0  0  0
  -37.4302   11.6954  -12.7064 H   0  0  0  0  0  0  0  0  0  0  0  0
  -33.8316    8.0527  -14.7088 H   0  0  0  0  0  0  0  0  0  0  0  0
  -35.1058    8.0744  -15.9755 H   0  0  0  0  0  0  0  0  0  0  0  0
  -33.1745    8.4307  -16.3113 H   0  0  0  0  0  0  0  0  0  0  0  0
  -31.5166    8.4461  -17.0029 H   0  0  0  0  0  0  0  0  0  0  0  0
  -33.3205   11.2623  -18.0050 H   0  0  0  0  0  0  0  0  0  0  0  0
  -33.3165   10.2490  -20.7509 H   0  0  0  0  0  0  0  0  0  0  0  0
  -34.9745   10.2345  -20.0598 H   0  0  0  0  0  0  0  0  0  0  0  0
  -34.8935   12.6204  -19.6180 H   0  0  0  0  0  0  0  0  0  0  0  0
  -34.3468   12.3734  -21.3111 H   0  0  0  0  0  0  0  0  0  0  0  0
  -31.4181   15.0223  -18.1911 H   0  0  0  0  0  0  0  0  0  0  0  0
  -30.6999   13.3865  -17.7229 H   0  0  0  0  0  0  0  0  0  0  0  0
  -41.8648    9.5808  -13.0796 H   0  0  0  0  0  0  0  0  0  0  0  0
  1  6  2  0  0  0  0
  1  2  1  0  0  0  0
  1 31  1  0  0  0  0
  2  3  2  0  0  0  0
  2 32  1  0  0  0  0
  3  4  1  0  0  0  0
  3 27  1  0  0  0  0
  4  5  2  0  0  0  0
  4 33  1  0  0  0  0
  5  6  1  0  0  0  0
  5 34  1  0  0  0  0
  6  7  1  0  0  0  0
  7 11  1  0  0  0  0
  7  8  2  0  0  0  0
  8  9  1  0  0  0  0
  9 10  2  0  0  0  0
 10 11  1  0  0  0  0
 10 13  1  0  0  0  0
 11 12  1  0  0  0  0
 12 35  1  0  0  0  0
 12 36  1  0  0  0  0
 13 14  1  0  0  0  0
 14 15  1  0  0  0  0
 14 37  1  0  0  0  0
 14 38  1  0  0  0  0
 15 16  2  0  0  0  0
 15 17  1  0  0  0  0
 17 18  1  0  0  0  0
 17 39  1  0  0  0  0
 18 19  1  0  0  0  0
 18 40  1  0  0  0  0
 18 41  1  0  0  0  0
 19 20  1  0  0  0  0
 19 42  1  0  0  0  0
 19 43  1  0  0  0  0
 20 25  1  0  0  0  0
 20 21  1  0  0  0  0
 21 22  2  0  0  0  0
 21 23  1  0  0  0  0
 23 24  1  0  0  0  0
 23 44  1  0  0  0  0
 23 45  1  0  0  0  0
 24 25  1  0  0  0  0
 25 26  2  0  0  0  0
 27 28  1  0  0  0  0
 28 29  1  0  0  0  0
 28 30  1  0  0  0  0
 28 46  1  0  0  0  0
M  END
> <Name>
ZINC09467478

> <reference>
BDB4972

> <quality>
0.665

> <status>
decoy

> <atoms in reference ligand area>
14

> <score>
-22.1936

$$$$
ZINC19844140
      BALL 1.4.0 (Jan  4 2012, 23:22:29)

 46 47  0999  0  0  0  0  0  0999 V2000
  -32.0977   14.9235  -21.3009 C   0  0  0  0  0  0  0  0  0  0  0  0
  -31.5783   13.7819  -20.6160 O   0  0  0  0  0  0  0  0  0  0  0  0
  -32.4733   12.8368  -20.2252 C   0  0  0  0  0  0  0  0  0  0  0  0
  -33.3977   12.3383  -21.1329 C   0  0  0  0  0  0  0  0  0  0  0  0
  -34.3078   11.3767  -20.7375 C   0  0  0  0  0  0  0  0  0  0  0  0
  -34.2981   10.9050  -19.4389 C   0  0  0  0  0  0  0  0  0  0  0  0
  -33.3787   11.4041  -18.5247 C   0  0  0  0  0  0  0  0  0  0  0  0
  -32.4633   12.3699  -18.9206 C   0  0  0  0  0  0  0  0  0  0  0  0
  -33.3716   10.9306  -17.2108 N   0  0  0  0  0  0  0  0  0  0  0  0
  -34.2531   11.7374  -16.3553 C   0  0  0  0  0  0  0  0  0  0  0  0
  -34.1562   11.2374  -14.9121 C   0  0  0  0  0  0  0  0  0  0  0  0
  -34.5334    9.8180  -14.8618 N   0  3  0  0  0  0  0  0  0  0  0  0
  -33.6520    9.0112  -15.7173 C   0  0  0  0  0  0  0  0  0  0  0  0
  -33.7489    9.5112  -17.1605 C   0  0  0  0  0  0  0  0  0  0  0  0
  -34.5260    9.3199  -13.4799 C   0  0  0  0  0  0  0  0  0  0  0  0
  -35.8190    9.7412  -12.7789 C   0  0  0  0  0  0  0  0  0  0  0  0
  -36.7982    8.5657  -12.7655 C   0  0  0  0  0  0  0  0  0  0  0  0
  -38.2113    9.0888  -12.7890 C   0  0  0  0  0  0  0  0  0  0  0  0
  -38.4858   10.2322  -12.2541 N   0  0  0  0  0  0  0  0  0  0  0  0
  -39.8136   10.7238  -12.2761 O   0  0  0  0  0  0  0  0  0  0  0  0
  -39.2102    8.3479  -13.3807 N   0  0  0  0  0  0  0  0  0  0  0  0
  -31.2848   15.6640  -21.3284 H   0  0  0  0  0  0  0  0  0  0  0  0
  -32.9000   15.3267  -20.6656 H   0  0  0  0  0  0  0  0  0  0  0  0
  -32.4622   14.6842  -22.3108 H   0  0  0  0  0  0  0  0  0  0  0  0
  -33.4058   12.7093  -22.1684 H   0  0  0  0  0  0  0  0  0  0  0  0
  -35.0414   10.9860  -21.4580 H   0  0  0  0  0  0  0  0  0  0  0  0
  -35.0187   10.1340  -19.1288 H   0  0  0  0  0  0  0  0  0  0  0  0
  -31.7313   12.7637  -18.2000 H   0  0  0  0  0  0  0  0  0  0  0  0
  -33.9427   12.7918  -16.3994 H   0  0  0  0  0  0  0  0  0  0  0  0
  -35.2915   11.6450  -16.7059 H   0  0  0  0  0  0  0  0  0  0  0  0
  -34.8370   11.8201  -14.2743 H   0  0  0  0  0  0  0  0  0  0  0  0
  -33.1236   11.3552  -14.5514 H   0  0  0  0  0  0  0  0  0  0  0  0
  -35.4939    9.7313  -15.2234 H   0  0  0  0  0  0  0  0  0  0  0  0
  -33.9613    7.9564  -15.6736 H   0  0  0  0  0  0  0  0  0  0  0  0
  -32.6137    9.1045  -15.3661 H   0  0  0  0  0  0  0  0  0  0  0  0
  -33.0683    8.9267  -17.7970 H   0  0  0  0  0  0  0  0  0  0  0  0
  -34.7815    9.3927  -17.5207 H   0  0  0  0  0  0  0  0  0  0  0  0
  -34.4537    8.2223  -13.4861 H   0  0  0  0  0  0  0  0  0  0  0  0
  -33.6640    9.7411  -12.9418 H   0  0  0  0  0  0  0  0  0  0  0  0
  -35.5943   10.0423  -11.7451 H   0  0  0  0  0  0  0  0  0  0  0  0
  -36.2704   10.5874  -13.3175 H   0  0  0  0  0  0  0  0  0  0  0  0
  -36.6441    7.9689  -11.8544 H   0  0  0  0  0  0  0  0  0  0  0  0
  -36.6265    7.9351  -13.6504 H   0  0  0  0  0  0  0  0  0  0  0  0
  -40.1429   10.5403  -13.1915 H   0  0  0  0  0  0  0  0  0  0  0  0
  -39.8401    8.7876  -14.0668 H   0  0  0  0  0  0  0  0  0  0  0  0
  -39.3272    7.3540  -13.1372 H   0  0  0  0  0  0  0  0  0  0  0  0
  1  2  1  0  0  0  0
  1 22  1  0  0  0  0
  1 23  1  0  0  0  0
  1 24  1  0  0  0  0
  2  3  1  0  0  0  0
  3  8  2  0  0  0  0
  3  4  1  0  0  0  0
  4  5  2  0  0  0  0
  4 25  1  0  0  0  0
  5  6  1  0  0  0  0
  5 26  1  0  0  0  0
  6  7  2  0  0  0  0
  6 27  1  0  0  0  0
  7  8  1  0  0  0  0
  7  9  1  0  0  0  0
  8 28  1  0  0  0  0
  9 14  1  0  0  0  0
  9 10  1  0  0  0  0
 10 11  1  0  0  0  0
 10 29  1  0  0  0  0
 10 30  1  0  0  0  0
 11 12  1  0  0  0  0
 11 31  1  0  0  0  0
 11 32  1  0  0  0  0
 12 13  1  0  0  0  0
 12 15  1  0  0  0  0
 12 33  1  0  0  0  0
 13 14  1  0  0  0  0
 13 34  1  0  0  0  0
 13 35  1  0  0  0  0
 14 36  1  0  0  0  0
 14 37  1  0  0  0  0
 15 16  1  0  0  0  0
 15 38  1  0  0  0  0
 15 39  1  0  0  0  0
 16 17  1  0  0  0  0
 16 40  1  0  0  0  0
 16 41  1  0  0  0  0
 17 18  1  0  0  0  0
 17 42  1  0  0  0  0
 17 43  1  0  0  0  0
 18 19  2  0  0  0  0
 18 21  1  0  0  0  0
 19 20  1  0  0  0  0
 20 44  1  0  0  0  0
 21 45  1  0  0  0  0
 21 46  1  0  0  0  0
M  END
> <Name>
ZINC19844140

> <reference>
BDB5204

> <quality>
0.760

> <status>
decoy

> <atoms in reference ligand area>
10

> <score>
-22.1626

$$$$
ZINC23696717
      BALL 1.4.0 (Jan  4 2012, 23:22:29)

 57 57  0999  0  0  0  0  0  0999 V2000
  -25.4349   13.2952  -20.1905 C   0  0  0  0  0  0  0  0  0  0  0  0
  -26.1237   14.1080  -21.2884 C   0  0  0  0  0  0  0  0  0  0  0  0
  -27.5474   13.5859  -21.4924 C   0  0  0  0  0  0  0  0  0  0  0  0
  -27.5471   12.0582  -21.4087 C   0  0  0  0  0  0  0  0  0  0  0  0
  -28.7520   11.5335  -22.0560 N   0  0  0  0  0  0  0  0  0  0  0  0
  -29.8265   11.1460  -21.2895 C   0  0  0  0  0  0  0  0  0  0  0  0
  -30.9573   10.6587  -21.9121 C   0  0  0  0  0  0  0  0  0  0  0  0
  -30.9718   10.5624  -23.3162 C   0  0  0  0  0  0  0  0  0  0  0  0
  -31.9564   10.1310  -23.8918 O   0  0  0  0  0  0  0  0  0  0  0  0
  -29.8904   10.9504  -24.0201 N   0  0  0  0  0  0  0  0  0  0  0  0
  -28.7990   11.4282  -23.3965 C   0  0  0  0  0  0  0  0  0  0  0  0
  -27.8369   11.7717  -24.0562 O   0  0  0  0  0  0  0  0  0  0  0  0
  -32.0778   10.2584  -21.1538 N   0  0  0  0  0  0  0  0  0  0  0  0
  -33.4293   10.4538  -21.6846 C   0  0  0  0  0  0  0  0  0  0  0  0
  -33.9006   11.8748  -21.3692 C   0  0  0  0  0  0  0  0  0  0  0  0
  -31.9047    9.6956  -19.9398 C   0  0  0  0  0  0  0  0  0  0  0  0
  -31.0643    8.8344  -19.7846 O   0  0  0  0  0  0  0  0  0  0  0  0
  -32.7550   10.1368  -18.7765 C   0  0  0  0  0  0  0  0  0  0  0  0
  -32.3749    9.3789  -17.5768 N   0  3  0  0  0  0  0  0  0  0  0  0
  -31.0073    9.7111  -17.1557 C   0  0  0  0  0  0  0  0  0  0  0  0
  -33.3316    9.6062  -16.4854 C   0  0  0  0  0  0  0  0  0  0  0  0
  -33.3620   11.0955  -16.1358 C   0  0  0  0  0  0  0  0  0  0  0  0
  -34.3583   11.3322  -14.9991 C   0  0  0  0  0  0  0  0  0  0  0  0
  -34.3887   12.8215  -14.6496 C   0  0  0  0  0  0  0  0  0  0  0  0
  -29.7760   11.2480  -19.9198 N   0  0  0  0  0  0  0  0  0  0  0  0
  -26.1944   12.7925  -19.5737 H   0  0  0  0  0  0  0  0  0  0  0  0
  -24.8349   13.9660  -19.5579 H   0  0  0  0  0  0  0  0  0  0  0  0
  -24.7785   12.5408  -20.6489 H   0  0  0  0  0  0  0  0  0  0  0  0
  -26.1610   15.1667  -20.9924 H   0  0  0  0  0  0  0  0  0  0  0  0
  -25.5598   14.0095  -22.2277 H   0  0  0  0  0  0  0  0  0  0  0  0
  -28.2038   13.9954  -20.7105 H   0  0  0  0  0  0  0  0  0  0  0  0
  -27.9155   13.8981  -22.4808 H   0  0  0  0  0  0  0  0  0  0  0  0
  -27.5340   11.7477  -20.3534 H   0  0  0  0  0  0  0  0  0  0  0  0
  -26.6560   11.6631  -21.9183 H   0  0  0  0  0  0  0  0  0  0  0  0
  -29.8999   10.8803  -25.0477 H   0  0  0  0  0  0  0  0  0  0  0  0
  -33.4204   10.3045  -22.7744 H   0  0  0  0  0  0  0  0  0  0  0  0
  -34.1149    9.7294  -21.2208 H   0  0  0  0  0  0  0  0  0  0  0  0
  -33.4331   12.2183  -20.4346 H   0  0  0  0  0  0  0  0  0  0  0  0
  -34.9946   11.8826  -21.2556 H   0  0  0  0  0  0  0  0  0  0  0  0
  -33.6134   12.5479  -22.1905 H   0  0  0  0  0  0  0  0  0  0  0  0
  -33.8151    9.9524  -19.0051 H   0  0  0  0  0  0  0  0  0  0  0  0
  -32.6003   11.2107  -18.5954 H   0  0  0  0  0  0  0  0  0  0  0  0
  -32.3983    8.3770  -17.8146 H   0  0  0  0  0  0  0  0  0  0  0  0
  -30.6981    9.0098  -16.3667 H   0  0  0  0  0  0  0  0  0  0  0  0
  -30.9983   10.7342  -16.7517 H   0  0  0  0  0  0  0  0  0  0  0  0
  -30.3189    9.6400  -18.0107 H   0  0  0  0  0  0  0  0  0  0  0  0
  -34.3341    9.2843  -16.8034 H   0  0  0  0  0  0  0  0  0  0  0  0
  -33.0244    9.0289  -15.6008 H   0  0  0  0  0  0  0  0  0  0  0  0
  -32.3597   11.4180  -15.8173 H   0  0  0  0  0  0  0  0  0  0  0  0
  -33.6701   11.6744  -17.0189 H   0  0  0  0  0  0  0  0  0  0  0  0
  -34.0510   10.7550  -14.1145 H   0  0  0  0  0  0  0  0  0  0  0  0
  -35.3609   11.0102  -15.3170 H   0  0  0  0  0  0  0  0  0  0  0  0
  -34.1607   13.4147  -15.5474 H   0  0  0  0  0  0  0  0  0  0  0  0
  -33.6399   13.0320  -13.8717 H   0  0  0  0  0  0  0  0  0  0  0  0
  -35.3881   13.0911  -14.2774 H   0  0  0  0  0  0  0  0  0  0  0  0
  -29.2845   10.5276  -19.3719 H   0  0  0  0  0  0  0  0  0  0  0  0
  -30.2275   12.0412  -19.4425 H   0  0  0  0  0  0  0  0  0  0  0  0
  1  2  1  0  0  0  0
  1 26  1  0  0  0  0
  1 27  1  0  0  0  0
  1 28  1  0  0  0  0
  2  3  1  0  0  0  0
  2 29  1  0  0  0  0
  2 30  1  0  0  0  0
  3  4  1  0  0  0  0
  3 31  1  0  0  0  0
  3 32  1  0  0  0  0
  4  5  1  0  0  0  0
  4 33  1  0  0  0  0
  4 34  1  0  0  0  0
  5 11  1  0  0  0  0
  5  6  1  0  0  0  0
  6  7  2  0  0  0  0
  6 25  1  0  0  0  0
  7  8  1  0  0  0  0
  7 13  1  0  0  0  0
  8  9  2  0  0  0  0
  8 10  1  0  0  0  0
 10 11  1  0  0  0  0
 10 35  1  0  0  0  0
 11 12  2  0  0  0  0
 13 14  1  0  0  0  0
 13 16  1  0  0  0  0
 14 15  1  0  0  0  0
 14 36  1  0  0  0  0
 14 37  1  0  0  0  0
 15 38  1  0  0  0  0
 15 39  1  0  0  0  0
 15 40  1  0  0  0  0
 16 17  2  0  0  0  0
 16 18  1  0  0  0  0
 18 19  1  0  0  0  0
 18 41  1  0  0  0  0
 18 42  1  0  0  0  0
 19 20  1  0  0  0  0
 19 21  1  0  0  0  0
 19 43  1  0  0  0  0
 20 44  1  0  0  0  0
 20 45  1  0  0  0  0
 20 46  1  0  0  0  0
 21 22  1  0  0  0  0
 21 47  1  0  0  0  0
 21 48  1  0  0  0  0
 22 23  1  0  0  0  0
 22 49  1  0  0  0  0
 22 50  1  0  0  0  0
 23 24  1  0  0  0  0
 23 51  1  0  0  0  0
 23 52  1  0  0  0  0
 24 53  1  0  0  0  0
 24 54  1  0  0  0  0
 24 55  1  0  0  0  0
 25 56  1  0  0  0  0
 25 57  1  0  0  0  0
M  END
> <Name>
ZINC23696717

> <reference>
BDB4997

> <quality>
0.670

> <status>
decoy

> <atoms in reference ligand area>
29

> <score>
-21.9556

$$$$
ZINC20188385
      BALL 1.4.0 (Jan  4 2012, 23:22:29)

 39 40  0999  0  0  0  0  0  0999 V2000
  -39.4571    8.2798  -19.2268 C   0  0  0  0  0  0  0  0  0  0  0  0
  -38.2378    8.4800  -20.0212 N   0  3  0  0  0  0  0  0  0  0  0  0
  -37.0495    8.0294  -19.2843 C   0  0  0  0  0  0  0  0  0  0  0  0
  -35.8211    8.2501  -20.1288 C   0  0  0  0  0  0  0  0  0  0  0  0
  -34.5749    7.9050  -19.6399 C   0  0  0  0  0  0  0  0  0  0  0  0
  -33.4487    8.1034  -20.4163 C   0  0  0  0  0  0  0  0  0  0  0  0
  -33.5674    8.6551  -21.6782 C   0  0  0  0  0  0  0  0  0  0  0  0
  -34.8130    9.0050  -22.1651 C   0  0  0  0  0  0  0  0  0  0  0  0
  -35.9398    8.8027  -21.3904 C   0  0  0  0  0  0  0  0  0  0  0  0
  -32.1312    8.9119  -22.6662 S   0  0  0  0  0  0  0  0  0  0  0  0
  -31.2352    7.8514  -22.3638 O   0  0  0  0  0  0  0  0  0  0  0  0
  -32.5878    9.1703  -23.9869 O   0  0  0  0  0  0  0  0  0  0  0  0
  -31.4127   10.3053  -22.1328 N   0  5  0  0  0  0  0  0  0  0  0  0
  -31.1581   10.4809  -20.7789 C   0  0  0  0  0  0  0  0  0  0  0  0
  -30.9887    9.3777  -19.9512 C   0  0  0  0  0  0  0  0  0  0  0  0
  -30.7306    9.5548  -18.6076 C   0  0  0  0  0  0  0  0  0  0  0  0
  -30.6487   10.8302  -18.0708 C   0  0  0  0  0  0  0  0  0  0  0  0
  -30.8195   11.9359  -18.8743 C   0  0  0  0  0  0  0  0  0  0  0  0
  -31.0763   11.7734  -20.2383 C   0  0  0  0  0  0  0  0  0  0  0  0
  -31.2606   12.9526  -21.1040 C   0  0  0  0  0  0  0  0  0  0  0  0
  -31.0116   14.0641  -20.6783 O   0  0  0  0  0  0  0  0  0  0  0  0
  -31.7051   12.7985  -22.3670 N   0  0  0  0  0  0  0  0  0  0  0  0
  -40.2478    8.9373  -19.6173 H   0  0  0  0  0  0  0  0  0  0  0  0
  -39.2483    8.5497  -18.1811 H   0  0  0  0  0  0  0  0  0  0  0  0
  -39.7802    7.2299  -19.2852 H   0  0  0  0  0  0  0  0  0  0  0  0
  -38.3137    7.9481  -20.9000 H   0  0  0  0  0  0  0  0  0  0  0  0
  -38.1381    9.4802  -20.2460 H   0  0  0  0  0  0  0  0  0  0  0  0
  -37.1456    6.9588  -19.0508 H   0  0  0  0  0  0  0  0  0  0  0  0
  -36.9587    8.6019  -18.3493 H   0  0  0  0  0  0  0  0  0  0  0  0
  -34.4796    7.4726  -18.6329 H   0  0  0  0  0  0  0  0  0  0  0  0
  -32.4578    7.8222  -20.0300 H   0  0  0  0  0  0  0  0  0  0  0  0
  -34.9075    9.4444  -23.1692 H   0  0  0  0  0  0  0  0  0  0  0  0
  -36.9308    9.0816  -21.7777 H   0  0  0  0  0  0  0  0  0  0  0  0
  -31.0605    8.3621  -20.3677 H   0  0  0  0  0  0  0  0  0  0  0  0
  -30.5887    8.6783  -17.9582 H   0  0  0  0  0  0  0  0  0  0  0  0
  -30.4463   10.9600  -16.9974 H   0  0  0  0  0  0  0  0  0  0  0  0
  -30.7539   12.9455  -18.4428 H   0  0  0  0  0  0  0  0  0  0  0  0
  -32.5456   12.2325  -22.5517 H   0  0  0  0  0  0  0  0  0  0  0  0
  -31.2041   13.2466  -23.1474 H   0  0  0  0  0  0  0  0  0  0  0  0
  1  2  1  0  0  0  0
  1 23  1  0  0  0  0
  1 24  1  0  0  0  0
  1 25  1  0  0  0  0
  2  3  1  0  0  0  0
  2 26  1  0  0  0  0
  2 27  1  0  0  0  0
  3  4  1  0  0  0  0
  3 28  1  0  0  0  0
  3 29  1  0  0  0  0
  4  9  2  0  0  0  0
  4  5  1  0  0  0  0
  5  6  2  0  0  0  0
  5 30  1  0  0  0  0
  6  7  1  0  0  0  0
  6 31  1  0  0  0  0
  7  8  2  0  0  0  0
  7 10  1  0  0  0  0
  8  9  1  0  0  0  0
  8 32  1  0  0  0  0
  9 33  1  0  0  0  0
 10 11  2  0  0  0  0
 10 12  2  0  0  0  0
 10 13  1  0  0  0  0
 13 14  1  0  0  0  0
 14 19  2  0  0  0  0
 14 15  1  0  0  0  0
 15 16  2  0  0  0  0
 15 34  1  0  0  0  0
 16 17  1  0  0  0  0
 16 35  1  0  0  0  0
 17 18  2  0  0  0  0
 17 36  1  0  0  0  0
 18 19  1  0  0  0  0
 18 37  1  0  0  0  0
 19 20  1  0  0  0  0
 20 21  2  0  0  0  0
 20 22  1  0  0  0  0
 22 38  1  0  0  0  0
 22 39  1  0  0  0  0
M  END
> <Name>
ZINC20188385

> <reference>
BDB5199

> <quality>
0.798

> <status>
decoy

> <atoms in reference ligand area>
11

> <score>
-21.8703

$$$$
ZINC29918098
      BALL 1.4.0 (Jan  4 2012, 23:22:29)

 35 36  0999  0  0  0  0  0  0999 V2000
  -32.0710   12.9460  -21.0327 C   0  0  0  0  0  0  0  0  0  0  0  0
  -32.8674   12.1360  -20.1076 N   0  0  0  0  0  0  0  0  0  0  0  0
  -32.9812   12.5294  -18.7010 C   0  0  0  0  0  0  0  0  0  0  0  0
  -33.5104   11.0024  -20.5611 C   0  0  0  0  0  0  0  0  0  0  0  0
  -33.1105   10.4144  -21.6865 N   0  0  0  0  0  0  0  0  0  0  0  0
  -33.7288    9.3317  -22.1241 C   0  0  0  0  0  0  0  0  0  0  0  0
  -34.7396    8.8223  -21.4418 N   0  0  0  0  0  0  0  0  0  0  0  0
  -35.1420    9.4016  -20.3131 C   0  0  0  0  0  0  0  0  0  0  0  0
  -34.5260   10.4934  -19.8724 N   0  0  0  0  0  0  0  0  0  0  0  0
  -36.1978    8.8693  -19.6015 N   0  0  0  0  0  0  0  0  0  0  0  0
  -33.2763    8.6723  -23.4014 C   0  0  0  0  0  0  0  0  0  0  0  0
  -34.6876    7.8648  -24.1965 S   0  0  0  0  0  0  0  0  0  0  0  0
  -33.8951    7.1968  -25.6213 C   0  0  0  0  0  0  0  0  0  0  0  0
  -32.6444    6.8116  -25.7070 N   0  0  0  0  0  0  0  0  0  0  0  0
  -32.4148    6.3728  -26.8945 N   0  0  0  0  0  0  0  0  0  0  0  0
  -33.4964    6.4681  -27.6107 C   0  0  0  0  0  0  0  0  0  0  0  0
  -34.4605    6.9873  -26.8251 O   0  0  0  0  0  0  0  0  0  0  0  0
  -33.6460    6.0650  -29.0551 C   0  0  0  0  0  0  0  0  0  0  0  0
  -32.5114    4.6981  -29.4220 S   0  0  0  0  0  0  0  0  0  0  0  0
  -32.1109    4.9194  -31.1774 C   0  0  0  0  0  0  0  0  0  0  0  0
  -32.4706   13.9657  -20.9301 H   0  0  0  0  0  0  0  0  0  0  0  0
  -32.3540   12.5901  -22.0343 H   0  0  0  0  0  0  0  0  0  0  0  0
  -30.9860   12.8980  -20.8584 H   0  0  0  0  0  0  0  0  0  0  0  0
  -33.9253   13.0907  -18.6409 H   0  0  0  0  0  0  0  0  0  0  0  0
  -32.1675   13.2529  -18.5440 H   0  0  0  0  0  0  0  0  0  0  0  0
  -32.9429   11.6901  -17.9911 H   0  0  0  0  0  0  0  0  0  0  0  0
  -36.5082    9.3186  -18.7282 H   0  0  0  0  0  0  0  0  0  0  0  0
  -36.6753    8.0233  -19.9435 H   0  0  0  0  0  0  0  0  0  0  0  0
  -32.8600    9.4323  -24.0790 H   0  0  0  0  0  0  0  0  0  0  0  0
  -32.5052    7.9213  -23.1746 H   0  0  0  0  0  0  0  0  0  0  0  0
  -34.6809    5.7413  -29.2403 H   0  0  0  0  0  0  0  0  0  0  0  0
  -33.4082    6.9217  -29.7026 H   0  0  0  0  0  0  0  0  0  0  0  0
  -31.7534    5.9364  -31.3964 H   0  0  0  0  0  0  0  0  0  0  0  0
  -32.9535    4.6522  -31.8321 H   0  0  0  0  0  0  0  0  0  0  0  0
  -31.2871    4.2292  -31.4121 H   0  0  0  0  0  0  0  0  0  0  0  0
  1  2  1  0  0  0  0
  1 21  1  0  0  0  0
  1 22  1  0  0  0  0
  1 23  1  0  0  0  0
  2  3  1  0  0  0  0
  2  4  1  0  0  0  0
  3 24  1  0  0  0  0
  3 25  1  0  0  0  0
  3 26  1  0  0  0  0
  4  9  2  0  0  0  0
  4  5  1  0  0  0  0
  5  6  2  0  0  0  0
  6  7  1  0  0  0  0
  6 11  1  0  0  0  0
  7  8  2  0  0  0  0
  8  9  1  0  0  0  0
  8 10  1  0  0  0  0
 10 27  1  0  0  0  0
 10 28  1  0  0  0  0
 11 12  1  0  0  0  0
 11 29  1  0  0  0  0
 11 30  1  0  0  0  0
 12 13  1  0  0  0  0
 13 17  1  0  0  0  0
 13 14  2  0  0  0  0
 14 15  1  0  0  0  0
 15 16  2  0  0  0  0
 16 17  1  0  0  0  0
 16 18  1  0  0  0  0
 18 19  1  0  0  0  0
 18 31  1  0  0  0  0
 18 32  1  0  0  0  0
 19 20  1  0  0  0  0
 20 33  1  0  0  0  0
 20 34  1  0  0  0  0
 20 35  1  0  0  0  0
M  END
> <Name>
ZINC29918098

> <reference>
BDB5219

> <quality>
0.711

> <status>
decoy

> <atoms in reference ligand area>
11

> <score>
-21.8169

$$$$
ZINC27969144
      BALL 1.4.0 (Jan  4 2012, 23:22:29)

 38 39  0999  0  0  0  0  0  0999 V2000
  -35.3399    8.2706  -25.7985 C   0  0  0  0  0  0  0  0  0  0  0  0
  -34.4474    8.5032  -24.6770 O   0  0  0  0  0  0  0  0  0  0  0  0
  -34.7232    7.8552  -23.5342 C   0  0  0  0  0  0  0  0  0  0  0  0
  -34.1142    6.8522  -23.2463 O   0  0  0  0  0  0  0  0  0  0  0  0
  -35.7926    8.3788  -22.6104 C   0  0  0  0  0  0  0  0  0  0  0  0
  -35.3338    9.6230  -21.9879 N   0  0  0  0  0  0  0  0  0  0  0  0
  -34.2190    9.6264  -21.2305 C   0  0  0  0  0  0  0  0  0  0  0  0
  -33.5956    8.5994  -21.0643 O   0  0  0  0  0  0  0  0  0  0  0  0
  -33.7470   10.9063  -20.5901 C   0  0  0  0  0  0  0  0  0  0  0  0
  -33.7170   10.7420  -19.1347 N   0  0  0  0  0  0  0  0  0  0  0  0
  -32.3220   11.0459  -18.2957 S   0  0  0  0  0  0  0  0  0  0  0  0
  -31.8278    9.7869  -17.8599 O   0  0  0  0  0  0  0  0  0  0  0  0
  -32.6133   12.1039  -17.3930 O   0  0  0  0  0  0  0  0  0  0  0  0
  -31.1476   11.6762  -19.4483 C   0  0  0  0  0  0  0  0  0  0  0  0
  -30.6848   10.8736  -20.4765 C   0  0  0  0  0  0  0  0  0  0  0  0
  -29.7671   11.3693  -21.3748 C   0  0  0  0  0  0  0  0  0  0  0  0
  -29.2948   12.6714  -21.2649 C   0  0  0  0  0  0  0  0  0  0  0  0
  -29.7646   13.4741  -20.2277 C   0  0  0  0  0  0  0  0  0  0  0  0
  -30.6852   12.9749  -19.3276 C   0  0  0  0  0  0  0  0  0  0  0  0
  -31.2651   13.9817  -18.0377 Cl  0  0  0  0  0  0  0  0  0  0  0  0
  -28.3799   12.9402  -22.2836 N   0  0  0  0  0  0  0  0  0  0  0  0
  -28.1965   11.8845  -23.0943 C   0  0  0  0  0  0  0  0  0  0  0  0
  -27.4619   11.8354  -24.0582 O   0  0  0  0  0  0  0  0  0  0  0  0
  -29.0797   10.7680  -22.5791 C   0  0  0  0  0  0  0  0  0  0  0  0
  -34.6981    8.0711  -26.6693 H   0  0  0  0  0  0  0  0  0  0  0  0
  -35.8671    9.2193  -25.9771 H   0  0  0  0  0  0  0  0  0  0  0  0
  -36.0430    7.4446  -25.6158 H   0  0  0  0  0  0  0  0  0  0  0  0
  -36.7103    8.5734  -23.1847 H   0  0  0  0  0  0  0  0  0  0  0  0
  -36.0005    7.6334  -21.8286 H   0  0  0  0  0  0  0  0  0  0  0  0
  -35.8632   10.4952  -22.1291 H   0  0  0  0  0  0  0  0  0  0  0  0
  -34.4346   11.7240  -20.8520 H   0  0  0  0  0  0  0  0  0  0  0  0
  -32.7365   11.1468  -20.9523 H   0  0  0  0  0  0  0  0  0  0  0  0
  -34.5637   10.4375  -18.6333 H   0  0  0  0  0  0  0  0  0  0  0  0
  -31.0499    9.8407  -20.5758 H   0  0  0  0  0  0  0  0  0  0  0  0
  -29.4014   14.5074  -20.1256 H   0  0  0  0  0  0  0  0  0  0  0  0
  -27.9003   13.8441  -22.4006 H   0  0  0  0  0  0  0  0  0  0  0  0
  -29.8224   10.4909  -23.3417 H   0  0  0  0  0  0  0  0  0  0  0  0
  -28.4643    9.9086  -22.2746 H   0  0  0  0  0  0  0  0  0  0  0  0
  1  2  1  0  0  0  0
  1 25  1  0  0  0  0
  1 26  1  0  0  0  0
  1 27  1  0  0  0  0
  2  3  1  0  0  0  0
  3  4  2  0  0  0  0
  3  5  1  0  0  0  0
  5  6  1  0  0  0  0
  5 28  1  0  0  0  0
  5 29  1  0  0  0  0
  6  7  1  0  0  0  0
  6 30  1  0  0  0  0
  7  8  2  0  0  0  0
  7  9  1  0  0  0  0
  9 10  1  0  0  0  0
  9 31  1  0  0  0  0
  9 32  1  0  0  0  0
 10 11  1  0  0  0  0
 10 33  1  0  0  0  0
 11 12  2  0  0  0  0
 11 13  2  0  0  0  0
 11 14  1  0  0  0  0
 14 19  2  0  0  0  0
 14 15  1  0  0  0  0
 15 16  2  0  0  0  0
 15 34  1  0  0  0  0
 16 24  1  0  0  0  0
 16 17  1  0  0  0  0
 17 18  2  0  0  0  0
 17 21  1  0  0  0  0
 18 19  1  0  0  0  0
 18 35  1  0  0  0  0
 19 20  1  0  0  0  0
 21 22  1  0  0  0  0
 21 36  1  0  0  0  0
 22 23  2  0  0  0  0
 22 24  1  0  0  0  0
 24 37  1  0  0  0  0
 24 38  1  0  0  0  0
M  END
> <Name>
ZINC27969144

> <reference>
BDB4952

> <quality>
0.729

> <status>
decoy

> <atoms in reference ligand area>
18

> <score>
-21.7499

$$$$
ZINC15084765
      BALL 1.4.0 (Jan  4 2012, 23:22:29)

 52 54  0999  0  0  0  0  0  0999 V2000
  -26.4341    4.4761  -17.7808 C   0  0  0  0  0  0  0  0  0  0  0  0
  -26.0294    3.4060  -18.7967 C   0  0  0  0  0  0  0  0  0  0  0  0
  -26.9656    2.2980  -18.7315 O   0  0  0  0  0  0  0  0  0  0  0  0
  -28.0452    2.3612  -19.5354 C   0  0  0  0  0  0  0  0  0  0  0  0
  -28.5517    1.3394  -19.9536 O   0  0  0  0  0  0  0  0  0  0  0  0
  -28.6118    3.6709  -19.9074 C   0  0  0  0  0  0  0  0  0  0  0  0
  -28.1667    4.8221  -19.5300 N   0  0  0  0  0  0  0  0  0  0  0  0
  -28.9234    5.9005  -20.0449 O   0  0  0  0  0  0  0  0  0  0  0  0
  -29.6988    5.3984  -21.1524 C   0  0  0  0  0  0  0  0  0  0  0  0
  -29.8178    3.8966  -20.7994 C   0  0  0  0  0  0  0  0  0  0  0  0
  -31.0773    6.0605  -21.2006 C   0  0  0  0  0  0  0  0  0  0  0  0
  -30.9375    7.4757  -21.6994 C   0  0  0  0  0  0  0  0  0  0  0  0
  -31.0085    8.5445  -20.8005 C   0  0  0  0  0  0  0  0  0  0  0  0
  -30.8775    9.8572  -21.2693 C   0  0  0  0  0  0  0  0  0  0  0  0
  -30.6780   10.0920  -22.6228 C   0  0  0  0  0  0  0  0  0  0  0  0
  -30.6085    9.0241  -23.5110 C   0  0  0  0  0  0  0  0  0  0  0  0
  -30.7335    7.7177  -23.0441 C   0  0  0  0  0  0  0  0  0  0  0  0
  -30.6595    6.6761  -23.9164 O   0  0  0  0  0  0  0  0  0  0  0  0
  -30.5522    6.9988  -25.3044 C   0  0  0  0  0  0  0  0  0  0  0  0
  -30.4090    9.5157  -24.7699 O   0  0  0  0  0  0  0  0  0  0  0  0
  -29.9488   10.8676  -24.5864 C   0  0  0  0  0  0  0  0  0  0  0  0
  -30.5218   11.2547  -23.3236 O   0  0  0  0  0  0  0  0  0  0  0  0
  -30.9453   10.9007  -20.4000 O   0  0  0  0  0  0  0  0  0  0  0  0
  -29.7158   11.5486  -20.0671 C   0  0  0  0  0  0  0  0  0  0  0  0
  -31.2201    8.2901  -19.3647 C   0  0  0  0  0  0  0  0  0  0  0  0
  -31.9516    9.1007  -18.6629 N   0  0  0  0  0  0  0  0  0  0  0  0
  -32.5434   10.2152  -19.2713 N   0  0  0  0  0  0  0  0  0  0  0  0
  -33.8748   10.4044  -19.1816 C   0  0  0  0  0  0  0  0  0  0  0  0
  -34.4009   11.3199  -19.7848 O   0  0  0  0  0  0  0  0  0  0  0  0
  -34.6230    9.5789  -18.4232 N   0  0  0  0  0  0  0  0  0  0  0  0
  -27.2542    5.0826  -18.1926 H   0  0  0  0  0  0  0  0  0  0  0  0
  -25.5716    5.1242  -17.5661 H   0  0  0  0  0  0  0  0  0  0  0  0
  -26.7684    3.9923  -16.8511 H   0  0  0  0  0  0  0  0  0  0  0  0
  -26.0424    3.8372  -19.8086 H   0  0  0  0  0  0  0  0  0  0  0  0
  -25.0168    3.0436  -18.5655 H   0  0  0  0  0  0  0  0  0  0  0  0
  -29.2492    5.5920  -22.1374 H   0  0  0  0  0  0  0  0  0  0  0  0
  -29.7402    3.2843  -21.7099 H   0  0  0  0  0  0  0  0  0  0  0  0
  -30.7475    3.7093  -20.2420 H   0  0  0  0  0  0  0  0  0  0  0  0
  -31.5164    6.0697  -20.1921 H   0  0  0  0  0  0  0  0  0  0  0  0
  -31.7319    5.4957  -21.8805 H   0  0  0  0  0  0  0  0  0  0  0  0
  -29.6555    7.6275  -25.4073 H   0  0  0  0  0  0  0  0  0  0  0  0
  -31.4283    7.6183  -25.5466 H   0  0  0  0  0  0  0  0  0  0  0  0
  -30.4971    6.1067  -25.9457 H   0  0  0  0  0  0  0  0  0  0  0  0
  -30.3312   11.5131  -25.3907 H   0  0  0  0  0  0  0  0  0  0  0  0
  -28.8506   10.8910  -24.5283 H   0  0  0  0  0  0  0  0  0  0  0  0
  -28.9176   10.8188  -20.2674 H   0  0  0  0  0  0  0  0  0  0  0  0
  -29.7446   11.7279  -18.9822 H   0  0  0  0  0  0  0  0  0  0  0  0
  -29.5614   12.4821  -20.6280 H   0  0  0  0  0  0  0  0  0  0  0  0
  -30.7581    7.4132  -18.8876 H   0  0  0  0  0  0  0  0  0  0  0  0
  -31.9610   10.8901  -19.7872 H   0  0  0  0  0  0  0  0  0  0  0  0
  -35.4808    9.9290  -17.9732 H   0  0  0  0  0  0  0  0  0  0  0  0
  -34.3371    8.5980  -18.2937 H   0  0  0  0  0  0  0  0  0  0  0  0
  1  2  1  0  0  0  0
  1 31  1  0  0  0  0
  1 32  1  0  0  0  0
  1 33  1  0  0  0  0
  2  3  1  0  0  0  0
  2 34  1  0  0  0  0
  2 35  1  0  0  0  0
  3  4  1  0  0  0  0
  4  5  2  0  0  0  0
  4  6  1  0  0  0  0
  6 10  1  0  0  0  0
  6  7  2  0  0  0  0
  7  8  1  0  0  0  0
  8  9  1  0  0  0  0
  9 10  1  0  0  0  0
  9 11  1  0  0  0  0
  9 36  1  0  0  0  0
 10 37  1  0  0  0  0
 10 38  1  0  0  0  0
 11 12  1  0  0  0  0
 11 39  1  0  0  0  0
 11 40  1  0  0  0  0
 12 17  2  0  0  0  0
 12 13  1  0  0  0  0
 13 14  2  0  0  0  0
 13 25  1  0  0  0  0
 14 15  1  0  0  0  0
 14 23  1  0  0  0  0
 15 22  1  0  0  0  0
 15 16  2  0  0  0  0
 16 17  1  0  0  0  0
 16 20  1  0  0  0  0
 17 18  1  0  0  0  0
 18 19  1  0  0  0  0
 19 41  1  0  0  0  0
 19 42  1  0  0  0  0
 19 43  1  0  0  0  0
 20 21  1  0  0  0  0
 21 22  1  0  0  0  0
 21 44  1  0  0  0  0
 21 45  1  0  0  0  0
 23 24  1  0  0  0  0
 24 46  1  0  0  0  0
 24 47  1  0  0  0  0
 24 48  1  0  0  0  0
 25 26  2  0  0  0  0
 25 49  1  0  0  0  0
 26 27  1  0  0  0  0
 27 28  1  0  0  0  0
 27 50  1  0  0  0  0
 28 29  2  0  0  0  0
 28 30  1  0  0  0  0
 30 51  1  0  0  0  0
 30 52  1  0  0  0  0
M  END
> <Name>
ZINC15084765

> <reference>
BDB4965

> <quality>
0.659

> <status>
decoy

> <atoms in reference ligand area>
12

> <score>
-21.6318

$$$$
ZINC01843099
      BALL 1.4.0 (Jan  4 2012, 23:22:29)

 55 57  0999  0  0  0  0  0  0999 V2000
  -33.3805    5.1244  -23.1121 C   0  0  0  0  0  0  0  0  0  0  0  0
  -32.1530    5.2716  -23.8982 N   0  0  0  0  0  0  0  0  0  0  0  0
  -31.7282    4.1989  -24.8009 C   0  0  0  0  0  0  0  0  0  0  0  0
  -32.7343    3.0481  -24.7347 C   0  0  0  0  0  0  0  0  0  0  0  0
  -32.5966    2.1778  -25.9855 C   0  0  0  0  0  0  0  0  0  0  0  0
  -33.0884    2.9166  -27.1511 N   0  0  0  0  0  0  0  0  0  0  0  0
  -32.3036    3.8367  -27.7459 C   0  0  0  0  0  0  0  0  0  0  0  0
  -31.1902    4.0532  -27.3163 O   0  0  0  0  0  0  0  0  0  0  0  0
  -32.8093    4.5967  -28.9450 C   0  0  0  0  0  0  0  0  0  0  0  0
  -31.6338    5.2920  -29.6586 C   0  0  0  0  0  0  0  0  0  0  0  0
  -31.6690    4.7176  -31.0957 C   0  0  0  0  0  0  0  0  0  0  0  0
  -33.1279    4.2054  -31.2051 C   0  0  0  0  0  0  0  0  0  0  0  0
  -33.4024    3.6863  -29.8862 O   0  0  0  0  0  0  0  0  0  0  0  0
  -31.3948    6.4241  -23.7879 C   0  0  0  0  0  0  0  0  0  0  0  0
  -31.8022    7.3729  -22.9670 N   0  0  0  0  0  0  0  0  0  0  0  0
  -31.0941    8.5052  -22.8326 C   0  0  0  0  0  0  0  0  0  0  0  0
  -31.5033    9.5331  -21.9738 C   0  0  0  0  0  0  0  0  0  0  0  0
  -30.7390   10.6742  -21.8683 C   0  0  0  0  0  0  0  0  0  0  0  0
  -29.5635   10.8200  -22.6177 C   0  0  0  0  0  0  0  0  0  0  0  0
  -29.1489    9.8324  -23.4649 C   0  0  0  0  0  0  0  0  0  0  0  0
  -29.9052    8.6599  -23.5871 C   0  0  0  0  0  0  0  0  0  0  0  0
  -29.5181    7.6078  -24.4516 C   0  0  0  0  0  0  0  0  0  0  0  0
  -30.2856    6.5292  -24.5140 N   0  0  0  0  0  0  0  0  0  0  0  0
  -28.3699    7.7029  -25.2102 N   0  0  0  0  0  0  0  0  0  0  0  0
  -28.8278   11.9580  -22.5002 O   0  0  0  0  0  0  0  0  0  0  0  0
  -27.4181   11.8432  -22.7044 C   0  0  0  0  0  0  0  0  0  0  0  0
  -31.1315   11.6710  -21.0329 O   0  0  0  0  0  0  0  0  0  0  0  0
  -32.1542   12.5494  -21.5065 C   0  0  0  0  0  0  0  0  0  0  0  0
  -33.9105    6.0805  -23.2353 H   0  0  0  0  0  0  0  0  0  0  0  0
  -33.0419    5.0780  -22.0666 H   0  0  0  0  0  0  0  0  0  0  0  0
  -33.9987    4.2595  -23.3946 H   0  0  0  0  0  0  0  0  0  0  0  0
  -31.6792    4.5836  -25.8303 H   0  0  0  0  0  0  0  0  0  0  0  0
  -30.7354    3.8347  -24.4979 H   0  0  0  0  0  0  0  0  0  0  0  0
  -32.5361    2.4386  -23.8408 H   0  0  0  0  0  0  0  0  0  0  0  0
  -33.7551    3.4547  -24.6824 H   0  0  0  0  0  0  0  0  0  0  0  0
  -31.5385    1.9175  -26.1366 H   0  0  0  0  0  0  0  0  0  0  0  0
  -33.1863    1.2577  -25.8600 H   0  0  0  0  0  0  0  0  0  0  0  0
  -34.0339    2.7328  -27.5160 H   0  0  0  0  0  0  0  0  0  0  0  0
  -33.5473    5.3351  -28.5984 H   0  0  0  0  0  0  0  0  0  0  0  0
  -30.6840    5.0291  -29.1700 H   0  0  0  0  0  0  0  0  0  0  0  0
  -31.7952    6.3798  -29.6824 H   0  0  0  0  0  0  0  0  0  0  0  0
  -31.4882    5.5152  -31.8312 H   0  0  0  0  0  0  0  0  0  0  0  0
  -30.9622    3.8801  -31.1915 H   0  0  0  0  0  0  0  0  0  0  0  0
  -33.1926    3.4013  -31.9528 H   0  0  0  0  0  0  0  0  0  0  0  0
  -33.8058    5.0406  -31.4355 H   0  0  0  0  0  0  0  0  0  0  0  0
  -32.4285    9.4299  -21.3878 H   0  0  0  0  0  0  0  0  0  0  0  0
  -28.2250    9.9571  -24.0487 H   0  0  0  0  0  0  0  0  0  0  0  0
  -28.1881    7.0017  -25.9424 H   0  0  0  0  0  0  0  0  0  0  0  0
  -27.6992    8.4675  -25.0474 H   0  0  0  0  0  0  0  0  0  0  0  0
  -27.1809   12.4651  -23.5802 H   0  0  0  0  0  0  0  0  0  0  0  0
  -27.2293   10.7938  -22.9746 H   0  0  0  0  0  0  0  0  0  0  0  0
  -26.8344   12.1459  -21.8226 H   0  0  0  0  0  0  0  0  0  0  0  0
  -33.0652   12.2946  -20.9450 H   0  0  0  0  0  0  0  0  0  0  0  0
  -32.3234   12.2869  -22.5612 H   0  0  0  0  0  0  0  0  0  0  0  0
  -31.8906   13.6110  -21.3905 H   0  0  0  0  0  0  0  0  0  0  0  0
  1  2  1  0  0  0  0
  1 29  1  0  0  0  0
  1 30  1  0  0  0  0
  1 31  1  0  0  0  0
  2  3  1  0  0  0  0
  2 14  1  0  0  0  0
  3  4  1  0  0  0  0
  3 32  1  0  0  0  0
  3 33  1  0  0  0  0
  4  5  1  0  0  0  0
  4 34  1  0  0  0  0
  4 35  1  0  0  0  0
  5  6  1  0  0  0  0
  5 36  1  0  0  0  0
  5 37  1  0  0  0  0
  6  7  1  0  0  0  0
  6 38  1  0  0  0  0
  7  8  2  0  0  0  0
  7  9  1  0  0  0  0
  9 13  1  0  0  0  0
  9 10  1  0  0  0  0
  9 39  1  0  0  0  0
 10 11  1  0  0  0  0
 10 40  1  0  0  0  0
 10 41  1  0  0  0  0
 11 12  1  0  0  0  0
 11 42  1  0  0  0  0
 11 43  1  0  0  0  0
 12 13  1  0  0  0  0
 12 44  1  0  0  0  0
 12 45  1  0  0  0  0
 14 23  2  0  0  0  0
 14 15  1  0  0  0  0
 15 16  2  0  0  0  0
 16 21  1  0  0  0  0
 16 17  1  0  0  0  0
 17 18  2  0  0  0  0
 17 46  1  0  0  0  0
 18 19  1  0  0  0  0
 18 27  1  0  0  0  0
 19 20  2  0  0  0  0
 19 25  1  0  0  0  0
 20 21  1  0  0  0  0
 20 47  1  0  0  0  0
 21 22  2  0  0  0  0
 22 23  1  0  0  0  0
 22 24  1  0  0  0  0
 24 48  1  0  0  0  0
 24 49  1  0  0  0  0
 25 26  1  0  0  0  0
 26 50  1  0  0  0  0
 26 51  1  0  0  0  0
 26 52  1  0  0  0  0
 27 28  1  0  0  0  0
 28 53  1  0  0  0  0
 28 54  1  0  0  0  0
 28 55  1  0  0  0  0
M  END
> <Name>
ZINC01843099

> <reference>
BDB4945

> <quality>
0.747

> <status>
decoy

> <atoms in reference ligand area>
12

> <score>
-21.49

$$$$
ZINC02428102
      BALL 1.4.0 (Jan  4 2012, 23:22:29)

 56 58  0999  0  0  0  0  0  0999 V2000
  -31.3082    9.4182  -24.3709 C   0  0  0  0  0  0  0  0  0  0  0  0
  -32.3606    9.4224  -23.4042 O   0  0  0  0  0  0  0  0  0  0  0  0
  -32.3476   10.4197  -22.4832 C   0  0  0  0  0  0  0  0  0  0  0  0
  -31.8075   11.6518  -22.7998 C   0  0  0  0  0  0  0  0  0  0  0  0
  -31.7977   12.6734  -21.8618 C   0  0  0  0  0  0  0  0  0  0  0  0
  -32.3144   12.4766  -20.6000 C   0  0  0  0  0  0  0  0  0  0  0  0
  -32.8599   11.2432  -20.2527 C   0  0  0  0  0  0  0  0  0  0  0  0
  -32.8770   10.2044  -21.2020 C   0  0  0  0  0  0  0  0  0  0  0  0
  -33.5020    9.0522  -20.5518 C   0  0  0  0  0  0  0  0  0  0  0  0
  -33.8232    9.4485  -19.2690 C   0  0  0  0  0  0  0  0  0  0  0  0
  -33.4335   10.7696  -19.0956 N   0  0  0  0  0  0  0  0  0  0  0  0
  -34.4482    8.6386  -18.2889 C   0  0  0  0  0  0  0  0  0  0  0  0
  -35.5169    8.1084  -18.5290 O   0  0  0  0  0  0  0  0  0  0  0  0
  -33.8582    8.4550  -17.0888 O   0  0  0  0  0  0  0  0  0  0  0  0
  -33.6170    9.6215  -16.2994 C   0  0  0  0  0  0  0  0  0  0  0  0
  -33.7285    7.8014  -21.1164 N   0  0  0  0  0  0  0  0  0  0  0  0
  -34.9420    7.2245  -21.0115 C   0  0  0  0  0  0  0  0  0  0  0  0
  -35.8566    7.8264  -20.4898 O   0  0  0  0  0  0  0  0  0  0  0  0
  -35.1625    5.8314  -21.5425 C   0  0  0  0  0  0  0  0  0  0  0  0
  -34.0692    5.4939  -22.5582 C   0  0  0  0  0  0  0  0  0  0  0  0
  -34.4049    7.3413  -24.0862 C   0  0  0  0  0  0  0  0  0  0  0  0
  -34.9951    7.7284  -25.4442 C   0  0  0  0  0  0  0  0  0  0  0  0
  -34.2251    7.0074  -26.5541 C   0  0  0  0  0  0  0  0  0  0  0  0
  -34.2982    5.4965  -26.3167 C   0  0  0  0  0  0  0  0  0  0  0  0
  -33.7282    5.1742  -24.9335 C   0  0  0  0  0  0  0  0  0  0  0  0
  -34.8397    7.3377  -27.8898 C   0  0  0  0  0  0  0  0  0  0  0  0
  -35.4518    6.4885  -28.5023 O   0  0  0  0  0  0  0  0  0  0  0  0
  -34.7092    8.5768  -28.4037 N   0  0  0  0  0  0  0  0  0  0  0  0
  -34.5280    5.8788  -23.9088 N   0  3  0  0  0  0  0  0  0  0  0  0
  -31.7602    9.0911  -25.3189 H   0  0  0  0  0  0  0  0  0  0  0  0
  -30.5972    8.6425  -24.0507 H   0  0  0  0  0  0  0  0  0  0  0  0
  -30.8197   10.3986  -24.4721 H   0  0  0  0  0  0  0  0  0  0  0  0
  -31.3834   11.8230  -23.8002 H   0  0  0  0  0  0  0  0  0  0  0  0
  -31.3725   13.6521  -22.1285 H   0  0  0  0  0  0  0  0  0  0  0  0
  -32.2961   13.2953  -19.8654 H   0  0  0  0  0  0  0  0  0  0  0  0
  -33.5556   11.3138  -18.2297 H   0  0  0  0  0  0  0  0  0  0  0  0
  -32.5774    9.5477  -15.9477 H   0  0  0  0  0  0  0  0  0  0  0  0
  -34.2765    9.5435  -15.4224 H   0  0  0  0  0  0  0  0  0  0  0  0
  -33.7912   10.5545  -16.8554 H   0  0  0  0  0  0  0  0  0  0  0  0
  -32.9689    7.3161  -21.6147 H   0  0  0  0  0  0  0  0  0  0  0  0
  -36.1461    5.7756  -22.0316 H   0  0  0  0  0  0  0  0  0  0  0  0
  -35.1248    5.1118  -20.7113 H   0  0  0  0  0  0  0  0  0  0  0  0
  -33.8647    4.4134  -22.5343 H   0  0  0  0  0  0  0  0  0  0  0  0
  -33.1526    6.0490  -22.3097 H   0  0  0  0  0  0  0  0  0  0  0  0
  -33.3434    7.6277  -24.0511 H   0  0  0  0  0  0  0  0  0  0  0  0
  -34.9548    7.8561  -23.2846 H   0  0  0  0  0  0  0  0  0  0  0  0
  -34.9100    8.8158  -25.5861 H   0  0  0  0  0  0  0  0  0  0  0  0
  -36.0542    7.4337  -25.4818 H   0  0  0  0  0  0  0  0  0  0  0  0
  -33.1743    7.3327  -26.5469 H   0  0  0  0  0  0  0  0  0  0  0  0
  -33.7106    4.9740  -27.0859 H   0  0  0  0  0  0  0  0  0  0  0  0
  -35.3464    5.1670  -26.3672 H   0  0  0  0  0  0  0  0  0  0  0  0
  -32.6822    5.5099  -24.8781 H   0  0  0  0  0  0  0  0  0  0  0  0
  -33.7796    4.0894  -24.7580 H   0  0  0  0  0  0  0  0  0  0  0  0
  -35.5035    9.0203  -28.8867 H   0  0  0  0  0  0  0  0  0  0  0  0
  -33.8152    9.0803  -28.3134 H   0  0  0  0  0  0  0  0  0  0  0  0
  -35.5171    5.6120  -24.0159 H   0  0  0  0  0  0  0  0  0  0  0  0
  1  2  1  0  0  0  0
  1 30  1  0  0  0  0
  1 31  1  0  0  0  0
  1 32  1  0  0  0  0
  2  3  1  0  0  0  0
  3  8  2  0  0  0  0
  3  4  1  0  0  0  0
  4  5  2  0  0  0  0
  4 33  1  0  0  0  0
  5  6  1  0  0  0  0
  5 34  1  0  0  0  0
  6  7  2  0  0  0  0
  6 35  1  0  0  0  0
  7 11  1  0  0  0  0
  7  8  1  0  0  0  0
  8  9  1  0  0  0  0
  9 10  2  0  0  0  0
  9 16  1  0  0  0  0
 10 11  1  0  0  0  0
 10 12  1  0  0  0  0
 11 36  1  0  0  0  0
 12 13  2  0  0  0  0
 12 14  1  0  0  0  0
 14 15  1  0  0  0  0
 15 37  1  0  0  0  0
 15 38  1  0  0  0  0
 15 39  1  0  0  0  0
 16 17  1  0  0  0  0
 16 40  1  0  0  0  0
 17 18  2  0  0  0  0
 17 19  1  0  0  0  0
 19 20  1  0  0  0  0
 19 41  1  0  0  0  0
 19 42  1  0  0  0  0
 20 29  1  0  0  0  0
 20 43  1  0  0  0  0
 20 44  1  0  0  0  0
 21 22  1  0  0  0  0
 21 29  1  0  0  0  0
 21 45  1  0  0  0  0
 21 46  1  0  0  0  0
 22 23  1  0  0  0  0
 22 47  1  0  0  0  0
 22 48  1  0  0  0  0
 23 24  1  0  0  0  0
 23 26  1  0  0  0  0
 23 49  1  0  0  0  0
 24 25  1  0  0  0  0
 24 50  1  0  0  0  0
 24 51  1  0  0  0  0
 25 29  1  0  0  0  0
 25 52  1  0  0  0  0
 25 53  1  0  0  0  0
 26 27  2  0  0  0  0
 26 28  1  0  0  0  0
 28 54  1  0  0  0  0
 28 55  1  0  0  0  0
 29 56  1  0  0  0  0
M  END
> <Name>
ZINC02428102

> <reference>
BDB5007

> <quality>
0.833

> <status>
decoy

> <atoms in reference ligand area>
12

> <score>
-21.4384

$$$$
ZINC05835556
      BALL 1.4.0 (Jan  4 2012, 23:22:29)

 40 41  0999  0  0  0  0  0  0999 V2000
  -29.0105   12.8600  -18.3193 C   0  0  0  0  0  0  0  0  0  0  0  0
  -29.6931   11.5165  -18.5837 C   0  0  0  0  0  0  0  0  0  0  0  0
  -30.9927   11.4379  -17.7802 C   0  0  0  0  0  0  0  0  0  0  0  0
  -31.6405   10.1629  -18.0310 O   0  0  0  0  0  0  0  0  0  0  0  0
  -31.8405    9.3622  -16.9724 C   0  0  0  0  0  0  0  0  0  0  0  0
  -31.8322    9.8237  -15.8558 O   0  0  0  0  0  0  0  0  0  0  0  0
  -32.0751    7.8877  -17.1767 C   0  0  0  0  0  0  0  0  0  0  0  0
  -33.1884    7.4385  -18.1232 C   0  0  0  0  0  0  0  0  0  0  0  0
  -33.3226    7.1986  -16.5932 C   0  0  0  0  0  0  0  0  0  0  0  0
  -32.8091    5.8575  -16.0178 C   0  0  0  0  0  0  0  0  0  0  0  0
  -31.5022    5.6225  -16.8341 C   0  0  0  0  0  0  0  0  0  0  0  0
  -30.9333    6.9855  -16.9430 N   0  0  0  0  0  0  0  0  0  0  0  0
  -29.6336    7.3305  -16.8526 C   0  0  0  0  0  0  0  0  0  0  0  0
  -29.2676    8.4214  -17.2361 O   0  0  0  0  0  0  0  0  0  0  0  0
  -28.6350    6.3607  -16.2751 C   0  0  0  0  0  0  0  0  0  0  0  0
  -28.1575    6.8706  -14.9139 C   0  0  0  0  0  0  0  0  0  0  0  0
  -26.7637    7.4277  -15.0469 C   0  0  0  0  0  0  0  0  0  0  0  0
  -26.1399    7.2576  -16.0675 O   0  0  0  0  0  0  0  0  0  0  0  0
  -26.2150    8.1130  -14.0313 O   0  5  0  0  0  0  0  0  0  0  0  0
  -27.4986    6.2336  -17.2044 N   0  3  0  0  0  0  0  0  0  0  0  0
  -28.0970   12.6983  -17.7281 H   0  0  0  0  0  0  0  0  0  0  0  0
  -29.6951   13.5171  -17.7629 H   0  0  0  0  0  0  0  0  0  0  0  0
  -28.7472   13.3331  -19.2768 H   0  0  0  0  0  0  0  0  0  0  0  0
  -29.9196   11.4250  -19.6563 H   0  0  0  0  0  0  0  0  0  0  0  0
  -29.0244   10.6980  -18.2790 H   0  0  0  0  0  0  0  0  0  0  0  0
  -30.7668   11.5291  -16.7074 H   0  0  0  0  0  0  0  0  0  0  0  0
  -31.6632   12.2551  -18.0844 H   0  0  0  0  0  0  0  0  0  0  0  0
  -32.9238    6.5096  -18.6495 H   0  0  0  0  0  0  0  0  0  0  0  0
  -33.8100    8.2856  -18.4489 H   0  0  0  0  0  0  0  0  0  0  0  0
  -34.1668    7.3808  -15.9119 H   0  0  0  0  0  0  0  0  0  0  0  0
  -33.5324    5.0530  -16.2169 H   0  0  0  0  0  0  0  0  0  0  0  0
  -32.5763    5.9645  -14.9481 H   0  0  0  0  0  0  0  0  0  0  0  0
  -30.8185    4.9660  -16.2759 H   0  0  0  0  0  0  0  0  0  0  0  0
  -31.7424    5.2275  -17.8323 H   0  0  0  0  0  0  0  0  0  0  0  0
  -29.1012    5.3740  -16.1374 H   0  0  0  0  0  0  0  0  0  0  0  0
  -28.1527    6.0411  -14.1915 H   0  0  0  0  0  0  0  0  0  0  0  0
  -28.8355    7.6612  -14.5599 H   0  0  0  0  0  0  0  0  0  0  0  0
  -27.0494    7.1515  -17.3327 H   0  0  0  0  0  0  0  0  0  0  0  0
  -27.8303    5.8820  -18.1139 H   0  0  0  0  0  0  0  0  0  0  0  0
  -26.8128    5.5715  -16.8142 H   0  0  0  0  0  0  0  0  0  0  0  0
  1  2  1  0  0  0  0
  1 21  1  0  0  0  0
  1 22  1  0  0  0  0
  1 23  1  0  0  0  0
  2  3  1  0  0  0  0
  2 24  1  0  0  0  0
  2 25  1  0  0  0  0
  3  4  1  0  0  0  0
  3 26  1  0  0  0  0
  3 27  1  0  0  0  0
  4  5  1  0  0  0  0
  5  6  2  0  0  0  0
  5  7  1  0  0  0  0
  7  9  1  0  0  0  0
  7 12  1  0  0  0  0
  7  8  1  0  0  0  0
  8  9  1  0  0  0  0
  8 28  1  0  0  0  0
  8 29  1  0  0  0  0
  9 10  1  0  0  0  0
  9 30  1  0  0  0  0
 10 11  1  0  0  0  0
 10 31  1  0  0  0  0
 10 32  1  0  0  0  0
 11 12  1  0  0  0  0
 11 33  1  0  0  0  0
 11 34  1  0  0  0  0
 12 13  1  0  0  0  0
 13 14  2  0  0  0  0
 13 15  1  0  0  0  0
 15 16  1  0  0  0  0
 15 20  1  0  0  0  0
 15 35  1  0  0  0  0
 16 17  1  0  0  0  0
 16 36  1  0  0  0  0
 16 37  1  0  0  0  0
 17 18  2  0  0  0  0
 17 19  1  0  0  0  0
 20 38  1  0  0  0  0
 20 39  1  0  0  0  0
 20 40  1  0  0  0  0
M  END
> <Name>
ZINC05835556

> <reference>
BDB5195

> <quality>
0.827

> <status>
decoy

> <atoms in reference ligand area>
10

> <score>
-21.1337

$$$$
ZINC19731960
      BALL 1.4.0 (Jan  4 2012, 23:22:29)

 42 43  0999  0  0  0  0  0  0999 V2000
  -28.8224   10.7861  -23.0641 C   0  0  0  0  0  0  0  0  0  0  0  0
  -30.1597   10.8174  -22.4570 N   0  0  0  0  0  0  0  0  0  0  0  0
  -30.0763   11.0713  -21.0125 C   0  0  0  0  0  0  0  0  0  0  0  0
  -31.4618   11.4407  -20.4787 C   0  0  0  0  0  0  0  0  0  0  0  0
  -31.3748   11.7052  -18.9743 C   0  0  0  0  0  0  0  0  0  0  0  0
  -30.4679   12.7826  -18.7317 O   0  0  0  0  0  0  0  0  0  0  0  0
  -30.7689   13.9814  -19.2964 C   0  0  0  0  0  0  0  0  0  0  0  0
  -31.9144   14.1173  -20.0686 C   0  0  0  0  0  0  0  0  0  0  0  0
  -32.2220   15.3356  -20.6435 C   0  0  0  0  0  0  0  0  0  0  0  0
  -31.3907   16.4224  -20.4519 C   0  0  0  0  0  0  0  0  0  0  0  0
  -30.2395   16.2907  -19.6853 C   0  0  0  0  0  0  0  0  0  0  0  0
  -29.9322   15.0688  -19.1022 C   0  0  0  0  0  0  0  0  0  0  0  0
  -29.3958   17.3876  -19.4966 N   0  0  0  0  0  0  0  0  0  0  0  0
  -30.8917    9.5738  -22.7314 C   0  0  0  0  0  0  0  0  0  0  0  0
  -30.6733    9.1546  -24.1947 C   0  0  0  0  0  0  0  0  0  0  0  0
  -31.6797    8.0442  -24.5814 C   0  0  0  0  0  0  0  0  0  0  0  0
  -33.1073    8.3895  -23.4745 S   0  0  0  0  0  0  0  0  0  0  0  0
  -33.2927    7.2842  -22.6008 O   0  0  0  0  0  0  0  0  0  0  0  0
  -34.1982    8.8531  -24.2580 O   0  0  0  0  0  0  0  0  0  0  0  0
  -32.4151    9.8022  -22.5153 C   0  0  0  0  0  0  0  0  0  0  0  0
  -28.0683   10.7928  -22.2634 H   0  0  0  0  0  0  0  0  0  0  0  0
  -28.6938   11.6834  -23.6872 H   0  0  0  0  0  0  0  0  0  0  0  0
  -28.7062    9.8824  -23.6804 H   0  0  0  0  0  0  0  0  0  0  0  0
  -29.7163   10.1663  -20.5011 H   0  0  0  0  0  0  0  0  0  0  0  0
  -29.3786   11.9007  -20.8245 H   0  0  0  0  0  0  0  0  0  0  0  0
  -31.8222   12.3460  -20.9894 H   0  0  0  0  0  0  0  0  0  0  0  0
  -32.1606   10.6118  -20.6648 H   0  0  0  0  0  0  0  0  0  0  0  0
  -32.3708   11.9714  -18.5906 H   0  0  0  0  0  0  0  0  0  0  0  0
  -31.0143   10.8009  -18.4622 H   0  0  0  0  0  0  0  0  0  0  0  0
  -32.5783   13.2540  -20.2230 H   0  0  0  0  0  0  0  0  0  0  0  0
  -33.1304   15.4405  -21.2549 H   0  0  0  0  0  0  0  0  0  0  0  0
  -31.6403   17.3924  -20.9066 H   0  0  0  0  0  0  0  0  0  0  0  0
  -29.0262   14.9640  -18.4871 H   0  0  0  0  0  0  0  0  0  0  0  0
  -29.7543   18.2409  -19.0446 H   0  0  0  0  0  0  0  0  0  0  0  0
  -28.4154   17.3434  -19.8092 H   0  0  0  0  0  0  0  0  0  0  0  0
  -30.5236    8.7910  -22.0519 H   0  0  0  0  0  0  0  0  0  0  0  0
  -29.6477    8.7768  -24.3187 H   0  0  0  0  0  0  0  0  0  0  0  0
  -30.8210   10.0254  -24.8504 H   0  0  0  0  0  0  0  0  0  0  0  0
  -31.9873    8.1507  -25.6321 H   0  0  0  0  0  0  0  0  0  0  0  0
  -31.2649    7.0505  -24.3569 H   0  0  0  0  0  0  0  0  0  0  0  0
  -32.6791    9.6994  -21.4525 H   0  0  0  0  0  0  0  0  0  0  0  0
  -32.7365   10.7535  -22.9643 H   0  0  0  0  0  0  0  0  0  0  0  0
  1  2  1  0  0  0  0
  1 21  1  0  0  0  0
  1 22  1  0  0  0  0
  1 23  1  0  0  0  0
  2  3  1  0  0  0  0
  2 14  1  0  0  0  0
  3  4  1  0  0  0  0
  3 24  1  0  0  0  0
  3 25  1  0  0  0  0
  4  5  1  0  0  0  0
  4 26  1  0  0  0  0
  4 27  1  0  0  0  0
  5  6  1  0  0  0  0
  5 28  1  0  0  0  0
  5 29  1  0  0  0  0
  6  7  1  0  0  0  0
  7 12  2  0  0  0  0
  7  8  1  0  0  0  0
  8  9  2  0  0  0  0
  8 30  1  0  0  0  0
  9 10  1  0  0  0  0
  9 31  1  0  0  0  0
 10 11  2  0  0  0  0
 10 32  1  0  0  0  0
 11 12  1  0  0  0  0
 11 13  1  0  0  0  0
 12 33  1  0  0  0  0
 13 34  1  0  0  0  0
 13 35  1  0  0  0  0
 14 20  1  0  0  0  0
 14 15  1  0  0  0  0
 14 36  1  0  0  0  0
 15 16  1  0  0  0  0
 15 37  1  0  0  0  0
 15 38  1  0  0  0  0
 16 17  1  0  0  0  0
 16 39  1  0  0  0  0
 16 40  1  0  0  0  0
 17 18  2  0  0  0  0
 17 19  2  0  0  0  0
 17 20  1  0  0  0  0
 20 41  1  0  0  0  0
 20 42  1  0  0  0  0
M  END
> <Name>
ZINC19731960

> <reference>
BDB5015

> <quality>
0.707

> <status>
decoy

> <atoms in reference ligand area>
18

> <score>
-21.0995

$$$$
ZINC29530525
      BALL 1.4.0 (Jan  4 2012, 23:22:29)

 38 39  0999  0  0  0  0  0  0999 V2000
  -27.7387    6.9925  -26.2912 C   0  0  0  0  0  0  0  0  0  0  0  0
  -28.7966    7.1500  -24.8261 S   0  0  0  0  0  0  0  0  0  0  0  0
  -28.8644    8.5086  -24.4150 O   0  0  0  0  0  0  0  0  0  0  0  0
  -28.4929    6.1244  -23.8905 O   0  0  0  0  0  0  0  0  0  0  0  0
  -30.3224    6.7942  -25.3625 N   0  0  0  0  0  0  0  0  0  0  0  0
  -31.3625    7.8258  -25.3497 C   0  0  0  0  0  0  0  0  0  0  0  0
  -32.1822    7.7076  -24.0632 C   0  0  0  0  0  0  0  0  0  0  0  0
  -32.0765    9.0114  -23.2697 C   0  0  0  0  0  0  0  0  0  0  0  0
  -32.8613    8.8982  -22.0378 N   0  0  0  0  0  0  0  0  0  0  0  0
  -33.0902   10.0242  -21.2526 C   0  0  0  0  0  0  0  0  0  0  0  0
  -32.3224   11.1619  -21.4439 C   0  0  0  0  0  0  0  0  0  0  0  0
  -32.5549   12.2868  -20.6559 C   0  0  0  0  0  0  0  0  0  0  0  0
  -33.5721   12.2466  -19.6735 C   0  0  0  0  0  0  0  0  0  0  0  0
  -34.3325   11.0905  -19.4988 C   0  0  0  0  0  0  0  0  0  0  0  0
  -34.0952    9.9989  -20.2837 C   0  0  0  0  0  0  0  0  0  0  0  0
  -34.9072    8.7747  -20.1017 N   0  0  0  0  0  0  0  0  0  0  0  0
  -34.4360    7.8116  -19.5237 O   0  0  0  0  0  0  0  0  0  0  0  0
  -36.0466    8.7303  -20.5299 O   0  0  0  0  0  0  0  0  0  0  0  0
  -33.7909   13.4488  -18.8598 C   0  0  0  0  0  0  0  0  0  0  0  0
  -34.6497   13.4805  -17.9972 O   0  0  0  0  0  0  0  0  0  0  0  0
  -33.0014   14.5203  -19.1047 N   0  0  0  0  0  0  0  0  0  0  0  0
  -32.0465   14.4710  -20.0702 C   0  0  0  0  0  0  0  0  0  0  0  0
  -31.8289   13.4236  -20.8057 N   0  0  0  0  0  0  0  0  0  0  0  0
  -27.2200    7.9462  -26.4682 H   0  0  0  0  0  0  0  0  0  0  0  0
  -28.3623    6.7500  -27.1644 H   0  0  0  0  0  0  0  0  0  0  0  0
  -26.9996    6.1937  -26.1312 H   0  0  0  0  0  0  0  0  0  0  0  0
  -30.5401    5.8476  -25.7053 H   0  0  0  0  0  0  0  0  0  0  0  0
  -30.8937    8.8199  -25.3951 H   0  0  0  0  0  0  0  0  0  0  0  0
  -32.0238    7.6922  -26.2186 H   0  0  0  0  0  0  0  0  0  0  0  0
  -33.2357    7.5170  -24.3158 H   0  0  0  0  0  0  0  0  0  0  0  0
  -31.7948    6.8767  -23.4554 H   0  0  0  0  0  0  0  0  0  0  0  0
  -31.0232    9.2024  -23.0165 H   0  0  0  0  0  0  0  0  0  0  0  0
  -32.4646    9.8433  -23.8757 H   0  0  0  0  0  0  0  0  0  0  0  0
  -33.2436    7.9853  -21.7527 H   0  0  0  0  0  0  0  0  0  0  0  0
  -31.5353   11.1765  -22.2122 H   0  0  0  0  0  0  0  0  0  0  0  0
  -35.1202   11.0584  -18.7317 H   0  0  0  0  0  0  0  0  0  0  0  0
  -31.4263   15.3640  -20.2370 H   0  0  0  0  0  0  0  0  0  0  0  0
  -31.0875   13.4561  -21.5200 H   0  0  0  0  0  0  0  0  0  0  0  0
  1  2  1  0  0  0  0
  1 24  1  0  0  0  0
  1 25  1  0  0  0  0
  1 26  1  0  0  0  0
  2  3  2  0  0  0  0
  2  4  2  0  0  0  0
  2  5  1  0  0  0  0
  5  6  1  0  0  0  0
  5 27  1  0  0  0  0
  6  7  1  0  0  0  0
  6 28  1  0  0  0  0
  6 29  1  0  0  0  0
  7  8  1  0  0  0  0
  7 30  1  0  0  0  0
  7 31  1  0  0  0  0
  8  9  1  0  0  0  0
  8 32  1  0  0  0  0
  8 33  1  0  0  0  0
  9 10  1  0  0  0  0
  9 34  1  0  0  0  0
 10 15  2  0  0  0  0
 10 11  1  0  0  0  0
 11 12  2  0  0  0  0
 11 35  1  0  0  0  0
 12 23  1  0  0  0  0
 12 13  1  0  0  0  0
 13 14  2  0  0  0  0
 13 19  1  0  0  0  0
 14 15  1  0  0  0  0
 14 36  1  0  0  0  0
 15 16  1  0  0  0  0
 16 17  2  0  0  0  0
 16 18  2  0  0  0  0
 19 20  2  0  0  0  0
 19 21  1  0  0  0  0
 21 22  2  0  0  0  0
 22 23  1  0  0  0  0
 22 37  1  0  0  0  0
 23 38  1  0  0  0  0
M  END
> <Name>
ZINC29530525

> <reference>
BDB4942

> <quality>
0.623

> <status>
decoy

> <atoms in reference ligand area>
10

> <score>
-21.0147

$$$$
ZINC26997465
      BALL 1.4.0 (Jan  4 2012, 23:22:29)

 47 48  0999  0  0  0  0  0  0999 V2000
  -27.7191    6.8574  -22.3492 C   0  0  0  0  0  0  0  0  0  0  0  0
  -29.1280    6.9781  -22.9334 C   0  0  0  0  0  0  0  0  0  0  0  0
  -30.0086    7.7313  -21.9699 C   0  0  0  0  0  0  0  0  0  0  0  0
  -30.5599    7.1421  -21.0651 O   0  0  0  0  0  0  0  0  0  0  0  0
  -30.1830    9.0599  -22.1139 N   0  0  0  0  0  0  0  0  0  0  0  0
  -30.9705    9.7335  -21.2522 C   0  0  0  0  0  0  0  0  0  0  0  0
  -31.5233    9.1428  -20.3452 O   0  0  0  0  0  0  0  0  0  0  0  0
  -31.1450   11.0621  -21.3963 N   0  0  0  0  0  0  0  0  0  0  0  0
  -31.8154   11.8312  -20.3450 C   0  0  0  0  0  0  0  0  0  0  0  0
  -32.9003   12.6794  -20.9571 C   0  0  0  0  0  0  0  0  0  0  0  0
  -32.5882   13.6427  -21.7882 C   0  0  0  0  0  0  0  0  0  0  0  0
  -29.6758    5.6516  -23.1541 O   0  0  0  0  0  0  0  0  0  0  0  0
  -30.9831    5.5745  -23.4696 C   0  0  0  0  0  0  0  0  0  0  0  0
  -31.8199    6.0033  -22.7006 O   0  0  0  0  0  0  0  0  0  0  0  0
  -31.3992    4.9685  -24.7511 C   0  0  0  0  0  0  0  0  0  0  0  0
  -32.0481    3.7321  -24.7642 C   0  0  0  0  0  0  0  0  0  0  0  0
  -32.4389    3.1747  -25.9638 C   0  0  0  0  0  0  0  0  0  0  0  0
  -32.1787    3.8322  -27.1532 C   0  0  0  0  0  0  0  0  0  0  0  0
  -31.5311    5.0548  -27.1479 C   0  0  0  0  0  0  0  0  0  0  0  0
  -31.1402    5.6267  -25.9547 C   0  0  0  0  0  0  0  0  0  0  0  0
  -31.2524    5.7636  -28.4483 C   0  0  0  0  0  0  0  0  0  0  0  0
  -29.9438    5.3489  -28.9598 N   0  0  0  0  0  0  0  0  0  0  0  0
  -29.7500    4.2962  -29.7787 C   0  0  0  0  0  0  0  0  0  0  0  0
  -30.5936    3.5425  -30.2146 O   0  0  0  0  0  0  0  0  0  0  0  0
  -28.2580    4.2519  -30.0431 C   0  0  0  0  0  0  0  0  0  0  0  0
  -27.7344    5.3869  -29.2635 N   0  5  0  0  0  0  0  0  0  0  0  0
  -28.7927    5.9648  -28.6672 C   0  0  0  0  0  0  0  0  0  0  0  0
  -28.7123    6.9379  -27.9434 O   0  0  0  0  0  0  0  0  0  0  0  0
  -27.3173    5.8558  -22.5621 H   0  0  0  0  0  0  0  0  0  0  0  0
  -27.7579    7.0125  -21.2609 H   0  0  0  0  0  0  0  0  0  0  0  0
  -27.0666    7.6173  -22.8039 H   0  0  0  0  0  0  0  0  0  0  0  0
  -29.0832    7.5200  -23.8896 H   0  0  0  0  0  0  0  0  0  0  0  0
  -29.7145    9.5605  -22.8825 H   0  0  0  0  0  0  0  0  0  0  0  0
  -30.8069   11.5368  -22.2456 H   0  0  0  0  0  0  0  0  0  0  0  0
  -31.0841   12.4801  -19.8408 H   0  0  0  0  0  0  0  0  0  0  0  0
  -32.2597   11.1412  -19.6125 H   0  0  0  0  0  0  0  0  0  0  0  0
  -33.9543   12.4896  -20.7061 H   0  0  0  0  0  0  0  0  0  0  0  0
  -31.5341   13.8325  -22.0392 H   0  0  0  0  0  0  0  0  0  0  0  0
  -33.3801   14.2618  -22.2350 H   0  0  0  0  0  0  0  0  0  0  0  0
  -32.2472    3.2039  -23.8200 H   0  0  0  0  0  0  0  0  0  0  0  0
  -32.9586    2.2052  -25.9749 H   0  0  0  0  0  0  0  0  0  0  0  0
  -32.4881    3.3808  -28.1075 H   0  0  0  0  0  0  0  0  0  0  0  0
  -30.6256    6.5989  -25.9518 H   0  0  0  0  0  0  0  0  0  0  0  0
  -31.2523    6.8510  -28.2818 H   0  0  0  0  0  0  0  0  0  0  0  0
  -32.0308    5.5049  -29.1811 H   0  0  0  0  0  0  0  0  0  0  0  0
  -27.8347    3.3072  -29.6710 H   0  0  0  0  0  0  0  0  0  0  0  0
  -28.0569    4.4014  -31.1142 H   0  0  0  0  0  0  0  0  0  0  0  0
  1  2  1  0  0  0  0
  1 29  1  0  0  0  0
  1 30  1  0  0  0  0
  1 31  1  0  0  0  0
  2  3  1  0  0  0  0
  2 12  1  0  0  0  0
  2 32  1  0  0  0  0
  3  4  2  0  0  0  0
  3  5  1  0  0  0  0
  5  6  1  0  0  0  0
  5 33  1  0  0  0  0
  6  7  2  0  0  0  0
  6  8  1  0  0  0  0
  8  9  1  0  0  0  0
  8 34  1  0  0  0  0
  9 10  1  0  0  0  0
  9 35  1  0  0  0  0
  9 36  1  0  0  0  0
 10 11  2  0  0  0  0
 10 37  1  0  0  0  0
 11 38  1  0  0  0  0
 11 39  1  0  0  0  0
 12 13  1  0  0  0  0
 13 14  2  0  0  0  0
 13 15  1  0  0  0  0
 15 20  2  0  0  0  0
 15 16  1  0  0  0  0
 16 17  2  0  0  0  0
 16 40  1  0  0  0  0
 17 18  1  0  0  0  0
 17 41  1  0  0  0  0
 18 19  2  0  0  0  0
 18 42  1  0  0  0  0
 19 20  1  0  0  0  0
 19 21  1  0  0  0  0
 20 43  1  0  0  0  0
 21 22  1  0  0  0  0
 21 44  1  0  0  0  0
 21 45  1  0  0  0  0
 22 27  1  0  0  0  0
 22 23  1  0  0  0  0
 23 24  2  0  0  0  0
 23 25  1  0  0  0  0
 25 26  1  0  0  0  0
 25 46  1  0  0  0  0
 25 47  1  0  0  0  0
 26 27  1  0  0  0  0
 27 28  2  0  0  0  0
M  END
> <Name>
ZINC26997465

> <reference>
BDB4945

> <quality>
0.707

> <status>
decoy

> <atoms in reference ligand area>
10

> <score>
-20.731

$$$$
ZINC05472967
      BALL 1.4.0 (Jan  4 2012, 23:22:29)

 32 33  0999  0  0  0  0  0  0999 V2000
  -34.3728   12.2732  -19.7474 C   0  0  0  0  0  0  0  0  0  0  0  0
  -32.9058   12.2767  -20.1821 C   0  0  0  0  0  0  0  0  0  0  0  0
  -32.6243   13.5010  -20.9493 C   0  0  0  0  0  0  0  0  0  0  0  0
  -32.4071   14.4459  -21.5414 N   0  0  0  0  0  0  0  0  0  0  0  0
  -32.0071   12.2324  -18.9447 C   0  0  0  0  0  0  0  0  0  0  0  0
  -32.4710   13.0027  -17.7067 C   0  0  0  0  0  0  0  0  0  0  0  0
  -31.2990   13.5267  -18.5391 C   0  0  0  0  0  0  0  0  0  0  0  0
  -32.6418   11.1041  -21.0196 N   0  0  0  0  0  0  0  0  0  0  0  0
  -31.4077   10.8979  -21.5206 C   0  0  0  0  0  0  0  0  0  0  0  0
  -30.5158   11.6832  -21.2781 O   0  0  0  0  0  0  0  0  0  0  0  0
  -31.1346    9.6884  -22.3771 C   0  0  0  0  0  0  0  0  0  0  0  0
  -29.4929    9.8415  -23.1335 S   0  0  0  0  0  0  0  0  0  0  0  0
  -29.0750    8.1897  -23.5828 C   0  0  0  0  0  0  0  0  0  0  0  0
  -28.0149    7.8117  -24.3583 N   0  0  0  0  0  0  0  0  0  0  0  0
  -28.0384    6.4505  -24.4709 C   0  0  0  0  0  0  0  0  0  0  0  0
  -29.0686    6.0056  -23.7945 N   0  0  0  0  0  0  0  0  0  0  0  0
  -29.7229    7.1070  -23.2275 N   0  0  0  0  0  0  0  0  0  0  0  0
  -27.1295    5.6741  -25.1783 N   0  0  0  0  0  0  0  0  0  0  0  0
  -34.7184   13.3086  -19.6112 H   0  0  0  0  0  0  0  0  0  0  0  0
  -34.4739   11.7257  -18.7987 H   0  0  0  0  0  0  0  0  0  0  0  0
  -34.9836   11.7826  -20.5196 H   0  0  0  0  0  0  0  0  0  0  0  0
  -31.6863   11.1992  -19.1436 H   0  0  0  0  0  0  0  0  0  0  0  0
  -32.1236   12.5235  -16.7795 H   0  0  0  0  0  0  0  0  0  0  0  0
  -33.3921   13.5697  -17.9065 H   0  0  0  0  0  0  0  0  0  0  0  0
  -31.6033   14.3700  -19.1764 H   0  0  0  0  0  0  0  0  0  0  0  0
  -30.3349   13.3226  -18.0504 H   0  0  0  0  0  0  0  0  0  0  0  0
  -33.3993   10.4372  -21.2255 H   0  0  0  0  0  0  0  0  0  0  0  0
  -31.1675    8.7826  -21.7538 H   0  0  0  0  0  0  0  0  0  0  0  0
  -31.8964    9.6177  -23.1674 H   0  0  0  0  0  0  0  0  0  0  0  0
  -27.3203    8.4424  -24.7831 H   0  0  0  0  0  0  0  0  0  0  0  0
  -26.2910    6.1658  -25.5192 H   0  0  0  0  0  0  0  0  0  0  0  0
  -27.2705    4.6699  -25.3585 H   0  0  0  0  0  0  0  0  0  0  0  0
  1  2  1  0  0  0  0
  1 19  1  0  0  0  0
  1 20  1  0  0  0  0
  1 21  1  0  0  0  0
  2  3  1  0  0  0  0
  2  5  1  0  0  0  0
  2  8  1  0  0  0  0
  3  4  3  0  0  0  0
  5  7  1  0  0  0  0
  5  6  1  0  0  0  0
  5 22  1  0  0  0  0
  6  7  1  0  0  0  0
  6 23  1  0  0  0  0
  6 24  1  0  0  0  0
  7 25  1  0  0  0  0
  7 26  1  0  0  0  0
  8  9  1  0  0  0  0
  8 27  1  0  0  0  0
  9 10  2  0  0  0  0
  9 11  1  0  0  0  0
 11 12  1  0  0  0  0
 11 28  1  0  0  0  0
 11 29  1  0  0  0  0
 12 13  1  0  0  0  0
 13 17  2  0  0  0  0
 13 14  1  0  0  0  0
 14 15  1  0  0  0  0
 14 30  1  0  0  0  0
 15 16  2  0  0  0  0
 15 18  1  0  0  0  0
 16 17  1  0  0  0  0
 18 31  1  0  0  0  0
 18 32  1  0  0  0  0
M  END
> <Name>
ZINC05472967

> <reference>
BDB5233

> <quality>
0.723

> <status>
decoy

> <atoms in reference ligand area>
14

> <score>
-20.6585

$$$$
ZINC05132239
      BALL 1.4.0 (Jan  4 2012, 23:22:29)

 33 32  0999  0  0  0  0  0  0999 V2000
  -32.2180   11.9128  -15.9522 C   0  0  0  0  0  0  0  0  0  0  0  0
  -31.9854   12.0889  -17.4307 C   0  0  0  0  0  0  0  0  0  0  0  0
  -31.0836   13.0019  -17.8716 C   0  0  0  0  0  0  0  0  0  0  0  0
  -30.9521   13.2324  -19.1809 N   0  0  0  0  0  0  0  0  0  0  0  0
  -32.0001   13.3753  -19.9192 N   0  0  0  0  0  0  0  0  0  0  0  0
  -31.8701   13.5052  -21.2670 C   0  0  0  0  0  0  0  0  0  0  0  0
  -30.8284   13.0019  -21.8744 N   0  3  0  0  0  0  0  0  0  0  0  0
  -29.8656   12.1900  -21.1261 C   0  0  0  0  0  0  0  0  0  0  0  0
  -32.8385   14.1688  -21.9930 N   0  0  0  0  0  0  0  0  0  0  0  0
  -32.6817   11.3299  -18.3261 N   0  0  0  0  0  0  0  0  0  0  0  0
  -33.8214   10.6278  -17.9125 N   0  0  0  0  0  0  0  0  0  0  0  0
  -33.6913    9.3950  -17.3179 C   0  0  0  0  0  0  0  0  0  0  0  0
  -31.2540    9.4479  -17.6665 C   0  0  0  0  0  0  0  0  0  0  0  0
  -34.8041    8.7353  -16.8530 N   0  0  0  0  0  0  0  0  0  0  0  0
  -32.5080    8.7888  -17.1631 N   0  3  0  0  0  0  0  0  0  0  0  0
  -31.2407   12.1005  -15.4837 H   0  0  0  0  0  0  0  0  0  0  0  0
  -32.4422   10.8437  -15.8224 H   0  0  0  0  0  0  0  0  0  0  0  0
  -33.0096   12.5605  -15.5476 H   0  0  0  0  0  0  0  0  0  0  0  0
  -30.4609   13.5522  -17.1510 H   0  0  0  0  0  0  0  0  0  0  0  0
  -30.6842   13.1760  -22.8793 H   0  0  0  0  0  0  0  0  0  0  0  0
  -28.9130   12.3028  -21.6644 H   0  0  0  0  0  0  0  0  0  0  0  0
  -30.1980   11.1502  -21.2618 H   0  0  0  0  0  0  0  0  0  0  0  0
  -29.7823   12.4677  -20.0650 H   0  0  0  0  0  0  0  0  0  0  0  0
  -33.6595   14.5657  -21.5142 H   0  0  0  0  0  0  0  0  0  0  0  0
  -32.7399   14.2672  -23.0135 H   0  0  0  0  0  0  0  0  0  0  0  0
  -32.3693   11.2733  -19.3059 H   0  0  0  0  0  0  0  0  0  0  0  0
  -34.7567   11.0352  -18.0539 H   0  0  0  0  0  0  0  0  0  0  0  0
  -30.5574    8.6217  -17.8719 H   0  0  0  0  0  0  0  0  0  0  0  0
  -30.8562   10.0048  -16.8053 H   0  0  0  0  0  0  0  0  0  0  0  0
  -31.4139   10.0907  -18.5446 H   0  0  0  0  0  0  0  0  0  0  0  0
  -34.7317    7.7537  -16.5496 H   0  0  0  0  0  0  0  0  0  0  0  0
  -35.7104    9.2227  -16.8080 H   0  0  0  0  0  0  0  0  0  0  0  0
  -32.4565    7.8707  -16.6991 H   0  0  0  0  0  0  0  0  0  0  0  0
  1  2  1  0  0  0  0
  1 16  1  0  0  0  0
  1 17  1  0  0  0  0
  1 18  1  0  0  0  0
  2  3  2  0  0  0  0
  2 10  1  0  0  0  0
  3  4  1  0  0  0  0
  3 19  1  0  0  0  0
  4  5  2  0  0  0  0
  5  6  1  0  0  0  0
  6  7  2  0  0  0  0
  6  9  1  0  0  0  0
  7  8  1  0  0  0  0
  7 20  1  0  0  0  0
  8 21  1  0  0  0  0
  8 22  1  0  0  0  0
  8 23  1  0  0  0  0
  9 24  1  0  0  0  0
  9 25  1  0  0  0  0
 10 11  1  0  0  0  0
 10 26  1  0  0  0  0
 11 12  1  0  0  0  0
 11 27  1  0  0  0  0
 12 14  1  0  0  0  0
 12 15  2  0  0  0  0
 13 15  1  0  0  0  0
 13 28  1  0  0  0  0
 13 29  1  0  0  0  0
 13 30  1  0  0  0  0
 14 31  1  0  0  0  0
 14 32  1  0  0  0  0
 15 33  1  0  0  0  0
M  END
> <Name>
ZINC05132239

> <reference>
BDB5234

> <quality>
0.762

> <status>
decoy

> <atoms in reference ligand area>
16

> <score>
-20.6387

$$$$
ZINC21981399
      BALL 1.4.0 (Jan  4 2012, 23:22:29)

 46 47  0999  0  0  0  0  0  0999 V2000
  -39.4452    7.7967  -18.9063 C   0  0  0  0  0  0  0  0  0  0  0  0
  -38.4402    7.8620  -17.7547 C   0  0  0  0  0  0  0  0  0  0  0  0
  -38.8044    6.8152  -16.6999 C   0  0  0  0  0  0  0  0  0  0  0  0
  -37.0341    7.5805  -18.2882 C   0  0  0  0  0  0  0  0  0  0  0  0
  -36.8574    8.2601  -19.6217 C   0  0  0  0  0  0  0  0  0  0  0  0
  -37.8100    8.4251  -20.3465 O   0  0  0  0  0  0  0  0  0  0  0  0
  -35.6419    8.6818  -20.0042 O   0  0  0  0  0  0  0  0  0  0  0  0
  -35.4397    8.9091  -21.4240 C   0  0  0  0  0  0  0  0  0  0  0  0
  -34.0995    9.6144  -21.6417 C   0  0  0  0  0  0  0  0  0  0  0  0
  -33.0351    8.7488  -21.2419 O   0  0  0  0  0  0  0  0  0  0  0  0
  -31.7361    9.2163  -21.6106 C   0  0  0  0  0  0  0  0  0  0  0  0
  -31.2942   10.2349  -20.6550 N   0  0  0  0  0  0  0  0  0  0  0  0
  -30.8361   10.0628  -19.3512 C   0  0  0  0  0  0  0  0  0  0  0  0
  -31.0650   11.1114  -18.5992 N   0  0  0  0  0  0  0  0  0  0  0  0
  -31.7609   12.0833  -19.4181 C   0  0  0  0  0  0  0  0  0  0  0  0
  -31.2248   11.6813  -20.8329 C   0  0  0  0  0  0  0  0  0  0  0  0
  -32.0858   12.3556  -21.7770 N   0  0  0  0  0  0  0  0  0  0  0  0
  -32.3135   13.6310  -21.5238 C   0  0  0  0  0  0  0  0  0  0  0  0
  -31.7364   14.2582  -20.4300 N   0  0  0  0  0  0  0  0  0  0  0  0
  -31.4729   13.5403  -19.2932 C   0  0  0  0  0  0  0  0  0  0  0  0
  -31.0448   14.0447  -18.2771 O   0  0  0  0  0  0  0  0  0  0  0  0
  -33.1359   14.3494  -22.3585 N   0  0  0  0  0  0  0  0  0  0  0  0
  -36.8523    6.1317  -18.4490 N   0  3  0  0  0  0  0  0  0  0  0  0
  -39.4198    6.7950  -19.3602 H   0  0  0  0  0  0  0  0  0  0  0  0
  -39.1844    8.5491  -19.6652 H   0  0  0  0  0  0  0  0  0  0  0  0
  -40.4564    7.9990  -18.5234 H   0  0  0  0  0  0  0  0  0  0  0  0
  -38.4666    8.8639  -17.3014 H   0  0  0  0  0  0  0  0  0  0  0  0
  -39.3411    7.2998  -15.8710 H   0  0  0  0  0  0  0  0  0  0  0  0
  -37.8868    6.3448  -16.3166 H   0  0  0  0  0  0  0  0  0  0  0  0
  -39.4479    6.0463  -17.1522 H   0  0  0  0  0  0  0  0  0  0  0  0
  -36.2882    7.9671  -17.5781 H   0  0  0  0  0  0  0  0  0  0  0  0
  -36.2524    9.5388  -21.8151 H   0  0  0  0  0  0  0  0  0  0  0  0
  -35.4360    7.9446  -21.9529 H   0  0  0  0  0  0  0  0  0  0  0  0
  -33.9863    9.8663  -22.7064 H   0  0  0  0  0  0  0  0  0  0  0  0
  -34.0670   10.5357  -21.0414 H   0  0  0  0  0  0  0  0  0  0  0  0
  -31.0275    8.3749  -21.6027 H   0  0  0  0  0  0  0  0  0  0  0  0
  -31.7751    9.6534  -22.6193 H   0  0  0  0  0  0  0  0  0  0  0  0
  -30.3382    9.1497  -18.9929 H   0  0  0  0  0  0  0  0  0  0  0  0
  -32.8266   12.0308  -19.1509 H   0  0  0  0  0  0  0  0  0  0  0  0
  -30.2274   11.9523  -21.2094 H   0  0  0  0  0  0  0  0  0  0  0  0
  -31.5063   15.2613  -20.4720 H   0  0  0  0  0  0  0  0  0  0  0  0
  -33.9926   14.7896  -21.9935 H   0  0  0  0  0  0  0  0  0  0  0  0
  -32.8931   14.4475  -23.3546 H   0  0  0  0  0  0  0  0  0  0  0  0
  -37.6420    5.6350  -18.0123 H   0  0  0  0  0  0  0  0  0  0  0  0
  -35.9733    5.8427  -17.9966 H   0  0  0  0  0  0  0  0  0  0  0  0
  -36.8140    5.8991  -19.4517 H   0  0  0  0  0  0  0  0  0  0  0  0
  1  2  1  0  0  0  0
  1 24  1  0  0  0  0
  1 25  1  0  0  0  0
  1 26  1  0  0  0  0
  2  3  1  0  0  0  0
  2  4  1  0  0  0  0
  2 27  1  0  0  0  0
  3 28  1  0  0  0  0
  3 29  1  0  0  0  0
  3 30  1  0  0  0  0
  4  5  1  0  0  0  0
  4 23  1  0  0  0  0
  4 31  1  0  0  0  0
  5  6  2  0  0  0  0
  5  7  1  0  0  0  0
  7  8  1  0  0  0  0
  8  9  1  0  0  0  0
  8 32  1  0  0  0  0
  8 33  1  0  0  0  0
  9 10  1  0  0  0  0
  9 34  1  0  0  0  0
  9 35  1  0  0  0  0
 10 11  1  0  0  0  0
 11 12  1  0  0  0  0
 11 36  1  0  0  0  0
 11 37  1  0  0  0  0
 12 16  1  0  0  0  0
 12 13  1  0  0  0  0
 13 14  2  0  0  0  0
 13 38  1  0  0  0  0
 14 15  1  0  0  0  0
 15 20  1  0  0  0  0
 15 16  1  0  0  0  0
 15 39  1  0  0  0  0
 16 17  1  0  0  0  0
 16 40  1  0  0  0  0
 17 18  2  0  0  0  0
 18 19  1  0  0  0  0
 18 22  1  0  0  0  0
 19 20  1  0  0  0  0
 19 41  1  0  0  0  0
 20 21  2  0  0  0  0
 22 42  1  0  0  0  0
 22 43  1  0  0  0  0
 23 44  1  0  0  0  0
 23 45  1  0  0  0  0
 23 46  1  0  0  0  0
M  END
> <Name>
ZINC21981399

> <reference>
BDB5024

> <quality>
0.762

> <status>
decoy

> <atoms in reference ligand area>
14

> <score>
-20.5839

$$$$
ZINC04535668
      BALL 1.4.0 (Jan  4 2012, 23:22:29)

 48 49  0999  0  0  0  0  0  0999 V2000
  -27.5789    6.7683  -17.0747 C   0  0  0  0  0  0  0  0  0  0  0  0
  -28.8910    6.1076  -16.6473 C   0  0  0  0  0  0  0  0  0  0  0  0
  -30.0495    6.9805  -17.0559 C   0  0  0  0  0  0  0  0  0  0  0  0
  -30.3923    8.0781  -16.2885 C   0  0  0  0  0  0  0  0  0  0  0  0
  -31.4553    8.8784  -16.6630 C   0  0  0  0  0  0  0  0  0  0  0  0
  -32.1754    8.5814  -17.8050 C   0  0  0  0  0  0  0  0  0  0  0  0
  -31.8359    7.4810  -18.5695 C   0  0  0  0  0  0  0  0  0  0  0  0
  -30.7696    6.6835  -18.1978 C   0  0  0  0  0  0  0  0  0  0  0  0
  -33.3345    9.4538  -18.2130 C   0  0  0  0  0  0  0  0  0  0  0  0
  -33.7709   10.3111  -17.0481 C   0  0  0  0  0  0  0  0  0  0  0  0
  -33.6184   11.6020  -17.4342 C   0  0  0  0  0  0  0  0  0  0  0  0
  -33.0897   11.6352  -18.8157 C   0  0  0  0  0  0  0  0  0  0  0  0
  -32.8452   12.6452  -19.4448 O   0  0  0  0  0  0  0  0  0  0  0  0
  -32.9196   10.3810  -19.2720 N   0  0  0  0  0  0  0  0  0  0  0  0
  -32.4150   10.0070  -20.5956 C   0  0  0  0  0  0  0  0  0  0  0  0
  -31.4476   11.0820  -21.0950 C   0  0  0  0  0  0  0  0  0  0  0  0
  -29.6931   11.4185  -22.7294 C   0  0  0  0  0  0  0  0  0  0  0  0
  -28.9396   10.6737  -23.8332 C   0  0  0  0  0  0  0  0  0  0  0  0
  -29.7031   10.7119  -25.0405 O   0  0  0  0  0  0  0  0  0  0  0  0
  -33.9038   12.6854  -16.6780 O   0  5  0  0  0  0  0  0  0  0  0  0
  -34.2512    9.8552  -15.7975 C   0  0  0  0  0  0  0  0  0  0  0  0
  -35.2485    9.1656  -15.7451 O   0  0  0  0  0  0  0  0  0  0  0  0
  -33.5240   10.2259  -14.5306 C   0  0  0  0  0  0  0  0  0  0  0  0
  -30.9444   10.6981  -22.4274 N   0  3  0  0  0  0  0  0  0  0  0  0
  -27.2143    7.4187  -16.2660 H   0  0  0  0  0  0  0  0  0  0  0  0
  -27.7480    7.3696  -17.9801 H   0  0  0  0  0  0  0  0  0  0  0  0
  -26.8286    5.9921  -17.2861 H   0  0  0  0  0  0  0  0  0  0  0  0
  -28.9829    5.1256  -17.1343 H   0  0  0  0  0  0  0  0  0  0  0  0
  -28.8985    5.9773  -15.5551 H   0  0  0  0  0  0  0  0  0  0  0  0
  -29.8192    8.3144  -15.3799 H   0  0  0  0  0  0  0  0  0  0  0  0
  -31.7281    9.7517  -16.0522 H   0  0  0  0  0  0  0  0  0  0  0  0
  -32.4142    7.2398  -19.4736 H   0  0  0  0  0  0  0  0  0  0  0  0
  -30.4943    5.8127  -18.8108 H   0  0  0  0  0  0  0  0  0  0  0  0
  -34.1462    8.7939  -18.5536 H   0  0  0  0  0  0  0  0  0  0  0  0
  -31.8887    9.0434  -20.5287 H   0  0  0  0  0  0  0  0  0  0  0  0
  -33.2566    9.9172  -21.2982 H   0  0  0  0  0  0  0  0  0  0  0  0
  -31.9733   12.0458  -21.1648 H   0  0  0  0  0  0  0  0  0  0  0  0
  -30.6032   11.1715  -20.3958 H   0  0  0  0  0  0  0  0  0  0  0  0
  -29.0688   11.4648  -21.8250 H   0  0  0  0  0  0  0  0  0  0  0  0
  -29.9293   12.4382  -23.0679 H   0  0  0  0  0  0  0  0  0  0  0  0
  -27.9649   11.1551  -24.0010 H   0  0  0  0  0  0  0  0  0  0  0  0
  -28.7846    9.6274  -23.5311 H   0  0  0  0  0  0  0  0  0  0  0  0
  -29.9799   11.6438  -25.2277 H   0  0  0  0  0  0  0  0  0  0  0  0
  -34.0281    9.6560  -13.7361 H   0  0  0  0  0  0  0  0  0  0  0  0
  -33.7606   11.2877  -14.3671 H   0  0  0  0  0  0  0  0  0  0  0  0
  -32.4412   10.0353  -14.5644 H   0  0  0  0  0  0  0  0  0  0  0  0
  -30.7666    9.6837  -22.4460 H   0  0  0  0  0  0  0  0  0  0  0  0
  -31.6512   10.9295  -23.1401 H   0  0  0  0  0  0  0  0  0  0  0  0
  1  2  1  0  0  0  0
  1 25  1  0  0  0  0
  1 26  1  0  0  0  0
  1 27  1  0  0  0  0
  2  3  1  0  0  0  0
  2 28  1  0  0  0  0
  2 29  1  0  0  0  0
  3  8  2  0  0  0  0
  3  4  1  0  0  0  0
  4  5  2  0  0  0  0
  4 30  1  0  0  0  0
  5  6  1  0  0  0  0
  5 31  1  0  0  0  0
  6  7  2  0  0  0  0
  6  9  1  0  0  0  0
  7  8  1  0  0  0  0
  7 32  1  0  0  0  0
  8 33  1  0  0  0  0
  9 14  1  0  0  0  0
  9 10  1  0  0  0  0
  9 34  1  0  0  0  0
 10 11  2  0  0  0  0
 10 21  1  0  0  0  0
 11 12  1  0  0  0  0
 11 20  1  0  0  0  0
 12 13  2  0  0  0  0
 12 14  1  0  0  0  0
 14 15  1  0  0  0  0
 15 16  1  0  0  0  0
 15 35  1  0  0  0  0
 15 36  1  0  0  0  0
 16 24  1  0  0  0  0
 16 37  1  0  0  0  0
 16 38  1  0  0  0  0
 17 18  1  0  0  0  0
 17 24  1  0  0  0  0
 17 39  1  0  0  0  0
 17 40  1  0  0  0  0
 18 19  1  0  0  0  0
 18 41  1  0  0  0  0
 18 42  1  0  0  0  0
 19 43  1  0  0  0  0
 21 22  2  0  0  0  0
 21 23  1  0  0  0  0
 23 44  1  0  0  0  0
 23 45  1  0  0  0  0
 23 46  1  0  0  0  0
 24 47  1  0  0  0  0
 24 48  1  0  0  0  0
M  END
> <Name>
ZINC04535668

> <reference>
BDB5023

> <quality>
0.713

> <status>
decoy

> <atoms in reference ligand area>
13

> <score>
-20.5822

$$$$
ZINC16952887
      BALL 1.4.0 (Jan  4 2012, 23:22:29)

 36 38  0999  0  0  0  0  0  0999 V2000
  -30.7056    8.4351  -23.8057 C   0  0  0  0  0  0  0  0  0  0  0  0
  -31.7797    9.2949  -23.1364 C   0  0  0  0  0  0  0  0  0  0  0  0
  -31.6382   10.6857  -23.5473 O   0  0  0  0  0  0  0  0  0  0  0  0
  -30.8285   11.2104  -22.5274 C   0  0  0  0  0  0  0  0  0  0  0  0
  -30.7568   12.6426  -22.0737 C   0  0  0  0  0  0  0  0  0  0  0  0
  -30.6317   12.5863  -20.6268 O   0  0  0  0  0  0  0  0  0  0  0  0
  -30.7794   11.2027  -20.1905 C   0  0  0  0  0  0  0  0  0  0  0  0
  -31.6019   10.5865  -21.2962 C   0  0  0  0  0  0  0  0  0  0  0  0
  -31.6203    9.2455  -21.6888 O   0  0  0  0  0  0  0  0  0  0  0  0
  -31.5146   11.1334  -18.8768 C   0  0  0  0  0  0  0  0  0  0  0  0
  -32.6831   10.4223  -18.6134 C   0  0  0  0  0  0  0  0  0  0  0  0
  -32.9605   10.6764  -17.2400 C   0  0  0  0  0  0  0  0  0  0  0  0
  -32.0105   11.4732  -16.7987 N   0  0  0  0  0  0  0  0  0  0  0  0
  -31.1719   11.7487  -17.7297 N   0  5  0  0  0  0  0  0  0  0  0  0
  -34.0968   10.1466  -16.4597 C   0  0  0  0  0  0  0  0  0  0  0  0
  -34.4580    8.9964  -16.6164 O   0  0  0  0  0  0  0  0  0  0  0  0
  -34.7334   10.9382  -15.5739 N   0  0  0  0  0  0  0  0  0  0  0  0
  -33.4593    9.5846  -19.5500 C   0  0  0  0  0  0  0  0  0  0  0  0
  -33.2014    8.3979  -19.6638 O   0  0  0  0  0  0  0  0  0  0  0  0
  -34.4358   10.1255  -20.2730 N   0  0  0  0  0  0  0  0  0  0  0  0
  -35.0234    9.4889  -20.9892 N   0  3  0  0  0  0  0  0  0  0  0  0
  -35.6112    8.8523  -21.7053 N   0  5  0  0  0  0  0  0  0  0  0  0
  -33.1692    8.7838  -23.5225 C   0  0  0  0  0  0  0  0  0  0  0  0
  -30.0947    9.0649  -24.4691 H   0  0  0  0  0  0  0  0  0  0  0  0
  -31.1881    7.6430  -24.3972 H   0  0  0  0  0  0  0  0  0  0  0  0
  -30.0638    7.9803  -23.0368 H   0  0  0  0  0  0  0  0  0  0  0  0
  -29.8042   11.0249  -22.8829 H   0  0  0  0  0  0  0  0  0  0  0  0
  -29.8725   13.1307  -22.5091 H   0  0  0  0  0  0  0  0  0  0  0  0
  -31.6803   13.1721  -22.3510 H   0  0  0  0  0  0  0  0  0  0  0  0
  -29.8189   10.6926  -20.0255 H   0  0  0  0  0  0  0  0  0  0  0  0
  -32.6384   10.7461  -20.9643 H   0  0  0  0  0  0  0  0  0  0  0  0
  -34.2148   11.3481  -14.7840 H   0  0  0  0  0  0  0  0  0  0  0  0
  -35.7384   11.1331  -15.6868 H   0  0  0  0  0  0  0  0  0  0  0  0
  -33.1271    8.3358  -24.5262 H   0  0  0  0  0  0  0  0  0  0  0  0
  -33.8785    9.6246  -23.5281 H   0  0  0  0  0  0  0  0  0  0  0  0
  -33.5008    8.0276  -22.7957 H   0  0  0  0  0  0  0  0  0  0  0  0
  1  2  1  0  0  0  0
  1 24  1  0  0  0  0
  1 25  1  0  0  0  0
  1 26  1  0  0  0  0
  2  9  1  0  0  0  0
  2  3  1  0  0  0  0
  2 23  1  0  0  0  0
  3  4  1  0  0  0  0
  4  8  1  0  0  0  0
  4  5  1  0  0  0  0
  4 27  1  0  0  0  0
  5  6  1  0  0  0  0
  5 28  1  0  0  0  0
  5 29  1  0  0  0  0
  6  7  1  0  0  0  0
  7  8  1  0  0  0  0
  7 10  1  0  0  0  0
  7 30  1  0  0  0  0
  8  9  1  0  0  0  0
  8 31  1  0  0  0  0
 10 14  1  0  0  0  0
 10 11  2  0  0  0  0
 11 12  1  0  0  0  0
 11 18  1  0  0  0  0
 12 13  2  0  0  0  0
 12 15  1  0  0  0  0
 13 14  1  0  0  0  0
 15 16  2  0  0  0  0
 15 17  1  0  0  0  0
 17 32  1  0  0  0  0
 17 33  1  0  0  0  0
 18 19  2  0  0  0  0
 18 20  1  0  0  0  0
 20 21  2  0  0  0  0
 21 22  2  0  0  0  0
 23 34  1  0  0  0  0
 23 35  1  0  0  0  0
 23 36  1  0  0  0  0
M  END
> <Name>
ZINC16952887

> <reference>
BDB4977

> <quality>
0.733

> <status>
decoy

> <atoms in reference ligand area>
14

> <score>
-20.5295

$$$$
ZINC12398420
      BALL 1.4.0 (Jan  4 2012, 23:22:29)

 39 40  0999  0  0  0  0  0  0999 V2000
  -29.6573   10.9016  -23.7491 C   0  0  0  0  0  0  0  0  0  0  0  0
  -30.0060   11.2097  -22.3157 C   0  0  0  0  0  0  0  0  0  0  0  0
  -29.3174   12.0260  -21.4848 C   0  0  0  0  0  0  0  0  0  0  0  0
  -29.9738   12.0362  -20.2498 C   0  0  0  0  0  0  0  0  0  0  0  0
  -31.0222   11.2585  -20.3378 N   0  0  0  0  0  0  0  0  0  0  0  0
  -31.0609   10.7207  -21.6308 N   0  0  0  0  0  0  0  0  0  0  0  0
  -32.0717    9.7958  -22.1497 C   0  0  0  0  0  0  0  0  0  0  0  0
  -32.9448    9.2956  -20.9972 C   0  0  0  0  0  0  0  0  0  0  0  0
  -33.9845    8.3442  -21.5309 C   0  0  0  0  0  0  0  0  0  0  0  0
  -34.0280    7.8321  -22.7697 N   0  0  0  0  0  0  0  0  0  0  0  0
  -35.0939    7.0576  -22.7962 C   0  0  0  0  0  0  0  0  0  0  0  0
  -35.6534    7.1292  -21.5789 O   0  0  0  0  0  0  0  0  0  0  0  0
  -35.0020    7.8703  -20.8731 N   0  0  0  0  0  0  0  0  0  0  0  0
  -35.5808    6.2619  -23.9483 C   0  0  0  0  0  0  0  0  0  0  0  0
  -35.6759    5.0542  -23.8557 O   0  0  0  0  0  0  0  0  0  0  0  0
  -35.9182    6.8782  -25.0985 N   0  0  0  0  0  0  0  0  0  0  0  0
  -36.3995    6.0919  -26.2370 C   0  0  0  0  0  0  0  0  0  0  0  0
  -36.4728    6.9837  -27.4781 C   0  0  0  0  0  0  0  0  0  0  0  0
  -29.5502   12.8137  -19.0303 C   0  0  0  0  0  0  0  0  0  0  0  0
  -30.3088   12.4033  -17.9289 F   0  0  0  0  0  0  0  0  0  0  0  0
  -28.1945   12.5799  -18.7759 F   0  0  0  0  0  0  0  0  0  0  0  0
  -29.7540   14.1795  -19.2541 F   0  0  0  0  0  0  0  0  0  0  0  0
  -36.0133    8.3382  -27.1236 N   0  3  0  0  0  0  0  0  0  0  0  0
  -29.2456    9.8838  -23.6820 H   0  0  0  0  0  0  0  0  0  0  0  0
  -28.7977   11.5625  -23.9340 H   0  0  0  0  0  0  0  0  0  0  0  0
  -30.4699   11.0082  -24.4828 H   0  0  0  0  0  0  0  0  0  0  0  0
  -28.4029   12.5832  -21.7362 H   0  0  0  0  0  0  0  0  0  0  0  0
  -32.7011   10.3162  -22.8867 H   0  0  0  0  0  0  0  0  0  0  0  0
  -31.5750    8.9402  -22.6306 H   0  0  0  0  0  0  0  0  0  0  0  0
  -32.3160    8.7748  -20.2600 H   0  0  0  0  0  0  0  0  0  0  0  0
  -33.4433   10.1498  -20.5157 H   0  0  0  0  0  0  0  0  0  0  0  0
  -35.8375    7.9021  -25.1770 H   0  0  0  0  0  0  0  0  0  0  0  0
  -35.7073    5.2580  -26.4258 H   0  0  0  0  0  0  0  0  0  0  0  0
  -37.4002    5.6941  -26.0126 H   0  0  0  0  0  0  0  0  0  0  0  0
  -37.5113    7.0306  -27.8377 H   0  0  0  0  0  0  0  0  0  0  0  0
  -35.8262    6.5710  -28.2665 H   0  0  0  0  0  0  0  0  0  0  0  0
  -36.8260    8.9513  -26.9669 H   0  0  0  0  0  0  0  0  0  0  0  0
  -35.4355    8.7201  -27.8860 H   0  0  0  0  0  0  0  0  0  0  0  0
  -35.4513    8.2923  -26.2618 H   0  0  0  0  0  0  0  0  0  0  0  0
  1  2  1  0  0  0  0
  1 24  1  0  0  0  0
  1 25  1  0  0  0  0
  1 26  1  0  0  0  0
  2  6  1  0  0  0  0
  2  3  2  0  0  0  0
  3  4  1  0  0  0  0
  3 27  1  0  0  0  0
  4  5  2  0  0  0  0
  4 19  1  0  0  0  0
  5  6  1  0  0  0  0
  6  7  1  0  0  0  0
  7  8  1  0  0  0  0
  7 28  1  0  0  0  0
  7 29  1  0  0  0  0
  8  9  1  0  0  0  0
  8 30  1  0  0  0  0
  8 31  1  0  0  0  0
  9 13  2  0  0  0  0
  9 10  1  0  0  0  0
 10 11  2  0  0  0  0
 11 12  1  0  0  0  0
 11 14  1  0  0  0  0
 12 13  1  0  0  0  0
 14 15  2  0  0  0  0
 14 16  1  0  0  0  0
 16 17  1  0  0  0  0
 16 32  1  0  0  0  0
 17 18  1  0  0  0  0
 17 33  1  0  0  0  0
 17 34  1  0  0  0  0
 18 23  1  0  0  0  0
 18 35  1  0  0  0  0
 18 36  1  0  0  0  0
 19 20  1  0  0  0  0
 19 21  1  0  0  0  0
 19 22  1  0  0  0  0
 23 37  1  0  0  0  0
 23 38  1  0  0  0  0
 23 39  1  0  0  0  0
M  END
> <Name>
ZINC12398420

> <reference>
BDB5025

> <quality>
0.738

> <status>
decoy

> <atoms in reference ligand area>
15

> <score>
-20.5121

$$$$
ZINC04748240
      BALL 1.4.0 (Jan  4 2012, 23:22:29)

 32 31  0999  0  0  0  0  0  0999 V2000
  -32.7136   13.8139  -21.4827 C   0  0  0  0  0  0  0  0  0  0  0  0
  -33.0292   14.4279  -20.2052 O   0  0  0  0  0  0  0  0  0  0  0  0
  -32.3057   14.0353  -19.1451 C   0  0  0  0  0  0  0  0  0  0  0  0
  -31.2019   14.4921  -18.9642 O   0  0  0  0  0  0  0  0  0  0  0  0
  -32.8702   13.0244  -18.1803 C   0  0  0  0  0  0  0  0  0  0  0  0
  -33.1719   11.7222  -18.9248 C   0  0  0  0  0  0  0  0  0  0  0  0
  -33.2593   10.5875  -17.9368 C   0  0  0  0  0  0  0  0  0  0  0  0
  -33.4715   10.8321  -16.6984 N   0  0  0  0  0  0  0  0  0  0  0  0
  -33.6570    9.7753  -15.7974 N   0  0  0  0  0  0  0  0  0  0  0  0
  -32.6133    9.3053  -15.0859 C   0  0  0  0  0  0  0  0  0  0  0  0
  -32.7625    8.9971  -13.9192 O   0  0  0  0  0  0  0  0  0  0  0  0
  -31.4043    9.1770  -15.6676 N   0  0  0  0  0  0  0  0  0  0  0  0
  -33.0968    9.1650  -18.4070 C   0  0  0  0  0  0  0  0  0  0  0  0
  -31.7427    8.6503  -17.9918 C   0  0  0  0  0  0  0  0  0  0  0  0
  -30.8348    9.4243  -17.8004 O   0  0  0  0  0  0  0  0  0  0  0  0
  -31.5451    7.3319  -17.8347 O   0  0  0  0  0  0  0  0  0  0  0  0
  -30.1745    6.8878  -17.6543 C   0  0  0  0  0  0  0  0  0  0  0  0
  -31.8540   14.3672  -21.8887 H   0  0  0  0  0  0  0  0  0  0  0  0
  -33.5768   14.0011  -22.1383 H   0  0  0  0  0  0  0  0  0  0  0  0
  -32.4980   12.7389  -21.3940 H   0  0  0  0  0  0  0  0  0  0  0  0
  -32.1377   12.8292  -17.3832 H   0  0  0  0  0  0  0  0  0  0  0  0
  -33.7979   13.4164  -17.7379 H   0  0  0  0  0  0  0  0  0  0  0  0
  -32.3685   11.5170  -19.6475 H   0  0  0  0  0  0  0  0  0  0  0  0
  -34.1293   11.8179  -19.4580 H   0  0  0  0  0  0  0  0  0  0  0  0
  -34.5910    9.3575  -15.6789 H   0  0  0  0  0  0  0  0  0  0  0  0
  -30.5682    9.5659  -15.2089 H   0  0  0  0  0  0  0  0  0  0  0  0
  -31.3165    8.6898  -16.5709 H   0  0  0  0  0  0  0  0  0  0  0  0
  -33.8807    8.5381  -17.9568 H   0  0  0  0  0  0  0  0  0  0  0  0
  -33.1822    9.1279  -19.5031 H   0  0  0  0  0  0  0  0  0  0  0  0
  -29.5946    7.7786  -17.3713 H   0  0  0  0  0  0  0  0  0  0  0  0
  -29.8236    6.5556  -18.6424 H   0  0  0  0  0  0  0  0  0  0  0  0
  -30.0834    6.0897  -16.9028 H   0  0  0  0  0  0  0  0  0  0  0  0
  1  2  1  0  0  0  0
  1 18  1  0  0  0  0
  1 19  1  0  0  0  0
  1 20  1  0  0  0  0
  2  3  1  0  0  0  0
  3  4  2  0  0  0  0
  3  5  1  0  0  0  0
  5  6  1  0  0  0  0
  5 21  1  0  0  0  0
  5 22  1  0  0  0  0
  6  7  1  0  0  0  0
  6 23  1  0  0  0  0
  6 24  1  0  0  0  0
  7  8  2  0  0  0  0
  7 13  1  0  0  0  0
  8  9  1  0  0  0  0
  9 10  1  0  0  0  0
  9 25  1  0  0  0  0
 10 11  2  0  0  0  0
 10 12  1  0  0  0  0
 12 26  1  0  0  0  0
 12 27  1  0  0  0  0
 13 14  1  0  0  0  0
 13 28  1  0  0  0  0
 13 29  1  0  0  0  0
 14 15  2  0  0  0  0
 14 16  1  0  0  0  0
 16 17  1  0  0  0  0
 17 30  1  0  0  0  0
 17 31  1  0  0  0  0
 17 32  1  0  0  0  0
M  END
> <Name>
ZINC04748240

> <reference>
BDB4986

> <quality>
0.721

> <status>
decoy

> <atoms in reference ligand area>
13

> <score>
-20.5009

$$$$
ZINC29840100
      BALL 1.4.0 (Jan  4 2012, 23:22:29)

 41 41  0999  0  0  0  0  0  0999 V2000
  -27.3448    6.1494  -17.3592 C   0  0  0  0  0  0  0  0  0  0  0  0
  -28.1181    5.1211  -18.1870 C   0  0  0  0  0  0  0  0  0  0  0  0
  -29.6163    5.4186  -18.0996 C   0  0  0  0  0  0  0  0  0  0  0  0
  -30.0262    6.4418  -19.1402 C   0  0  0  0  0  0  0  0  0  0  0  0
  -29.9459    6.3335  -20.3450 O   0  0  0  0  0  0  0  0  0  0  0  0
  -30.4966    7.4977  -18.4473 N   0  0  0  0  0  0  0  0  0  0  0  0
  -30.4484    7.2831  -17.1276 C   0  0  0  0  0  0  0  0  0  0  0  0
  -30.8216    8.0890  -16.2979 O   0  0  0  0  0  0  0  0  0  0  0  0
  -29.9406    6.0754  -16.8216 N   0  5  0  0  0  0  0  0  0  0  0  0
  -30.9818    8.6726  -19.0364 N   0  0  0  0  0  0  0  0  0  0  0  0
  -32.3083    8.9065  -19.0800 C   0  0  0  0  0  0  0  0  0  0  0  0
  -33.0698    8.1986  -18.4555 O   0  0  0  0  0  0  0  0  0  0  0  0
  -32.8455   10.0477  -19.9048 C   0  0  0  0  0  0  0  0  0  0  0  0
  -32.0402   10.1915  -21.1250 N   0  0  0  0  0  0  0  0  0  0  0  0
  -32.3086    9.0949  -22.0651 C   0  0  0  0  0  0  0  0  0  0  0  0
  -33.7916    9.0974  -22.4416 C   0  0  0  0  0  0  0  0  0  0  0  0
  -32.2724   11.4965  -21.7582 C   0  0  0  0  0  0  0  0  0  0  0  0
  -31.1538   11.7824  -22.7622 C   0  0  0  0  0  0  0  0  0  0  0  0
  -31.3527   10.9906  -23.9352 O   0  0  0  0  0  0  0  0  0  0  0  0
  -30.4293    4.1330  -18.2655 C   0  0  0  0  0  0  0  0  0  0  0  0
  -27.6682    6.0943  -16.3092 H   0  0  0  0  0  0  0  0  0  0  0  0
  -27.5409    7.1587  -17.7501 H   0  0  0  0  0  0  0  0  0  0  0  0
  -26.2675    5.9362  -17.4216 H   0  0  0  0  0  0  0  0  0  0  0  0
  -27.9220    4.1118  -17.7962 H   0  0  0  0  0  0  0  0  0  0  0  0
  -27.7944    5.1772  -19.2368 H   0  0  0  0  0  0  0  0  0  0  0  0
  -30.3246    9.3575  -19.4362 H   0  0  0  0  0  0  0  0  0  0  0  0
  -32.7951   10.9787  -19.3213 H   0  0  0  0  0  0  0  0  0  0  0  0
  -33.8910    9.8423  -20.1781 H   0  0  0  0  0  0  0  0  0  0  0  0
  -32.0525    8.1349  -21.5932 H   0  0  0  0  0  0  0  0  0  0  0  0
  -31.7005    9.2317  -22.9715 H   0  0  0  0  0  0  0  0  0  0  0  0
  -34.3625    9.6536  -21.6835 H   0  0  0  0  0  0  0  0  0  0  0  0
  -34.1602    8.0621  -22.4906 H   0  0  0  0  0  0  0  0  0  0  0  0
  -33.9207    9.5784  -23.4223 H   0  0  0  0  0  0  0  0  0  0  0  0
  -32.2828   12.2821  -20.9884 H   0  0  0  0  0  0  0  0  0  0  0  0
  -33.2397   11.4833  -22.2817 H   0  0  0  0  0  0  0  0  0  0  0  0
  -31.1678   12.8483  -23.0333 H   0  0  0  0  0  0  0  0  0  0  0  0
  -30.1822   11.5313  -22.3118 H   0  0  0  0  0  0  0  0  0  0  0  0
  -32.1426   11.3247  -24.4299 H   0  0  0  0  0  0  0  0  0  0  0  0
  -30.2115    3.6950  -19.2508 H   0  0  0  0  0  0  0  0  0  0  0  0
  -31.5006    4.3754  -18.2063 H   0  0  0  0  0  0  0  0  0  0  0  0
  -30.1656    3.4166  -17.4734 H   0  0  0  0  0  0  0  0  0  0  0  0
  1  2  1  0  0  0  0
  1 21  1  0  0  0  0
  1 22  1  0  0  0  0
  1 23  1  0  0  0  0
  2  3  1  0  0  0  0
  2 24  1  0  0  0  0
  2 25  1  0  0  0  0
  3  9  1  0  0  0  0
  3  4  1  0  0  0  0
  3 20  1  0  0  0  0
  4  5  2  0  0  0  0
  4  6  1  0  0  0  0
  6  7  1  0  0  0  0
  6 10  1  0  0  0  0
  7  8  2  0  0  0  0
  7  9  1  0  0  0  0
 10 11  1  0  0  0  0
 10 26  1  0  0  0  0
 11 12  2  0  0  0  0
 11 13  1  0  0  0  0
 13 14  1  0  0  0  0
 13 27  1  0  0  0  0
 13 28  1  0  0  0  0
 14 15  1  0  0  0  0
 14 17  1  0  0  0  0
 15 16  1  0  0  0  0
 15 29  1  0  0  0  0
 15 30  1  0  0  0  0
 16 31  1  0  0  0  0
 16 32  1  0  0  0  0
 16 33  1  0  0  0  0
 17 18  1  0  0  0  0
 17 34  1  0  0  0  0
 17 35  1  0  0  0  0
 18 19  1  0  0  0  0
 18 36  1  0  0  0  0
 18 37  1  0  0  0  0
 19 38  1  0  0  0  0
 20 39  1  0  0  0  0
 20 40  1  0  0  0  0
 20 41  1  0  0  0  0
M  END
> <Name>
ZINC29840100

> <reference>
BDB5195

> <quality>
0.820

> <status>
decoy

> <atoms in reference ligand area>
10

> <score>
-20.4027

$$$$
ZINC02269343
      BALL 1.4.0 (Jan  4 2012, 23:22:29)

 50 51  0999  0  0  0  0  0  0999 V2000
  -32.7393   12.5904  -16.6453 C   0  0  0  0  0  0  0  0  0  0  0  0
  -32.6390   11.0944  -16.4939 C   0  0  0  0  0  0  0  0  0  0  0  0
  -33.6269   10.4190  -15.9300 C   0  0  0  0  0  0  0  0  0  0  0  0
  -33.6216    8.9036  -15.8581 C   0  0  0  0  0  0  0  0  0  0  0  0
  -33.8444    8.5392  -14.4906 O   0  0  0  0  0  0  0  0  0  0  0  0
  -34.7816    9.2474  -13.8037 C   0  0  0  0  0  0  0  0  0  0  0  0
  -35.3182    8.7025  -12.6448 C   0  0  0  0  0  0  0  0  0  0  0  0
  -36.2587    9.4062  -11.9177 C   0  0  0  0  0  0  0  0  0  0  0  0
  -36.6785   10.6520  -12.3462 C   0  0  0  0  0  0  0  0  0  0  0  0
  -36.1523   11.1998  -13.5005 C   0  0  0  0  0  0  0  0  0  0  0  0
  -35.2055   10.4991  -14.2337 C   0  0  0  0  0  0  0  0  0  0  0  0
  -34.7116   11.0494  -15.3789 O   0  0  0  0  0  0  0  0  0  0  0  0
  -31.5015   10.4199  -16.9499 N   0  0  0  0  0  0  0  0  0  0  0  0
  -31.4059   10.0309  -18.3081 O   0  0  0  0  0  0  0  0  0  0  0  0
  -31.0421    8.6619  -18.4964 C   0  0  0  0  0  0  0  0  0  0  0  0
  -30.9691    8.3549  -19.9934 C   0  0  0  0  0  0  0  0  0  0  0  0
  -30.9368    9.6656  -20.7820 C   0  0  0  0  0  0  0  0  0  0  0  0
  -29.9341   10.7842  -22.6809 C   0  0  0  0  0  0  0  0  0  0  0  0
  -28.9461   10.6288  -23.8389 C   0  0  0  0  0  0  0  0  0  0  0  0
  -31.3272   11.0868  -23.2364 C   0  0  0  0  0  0  0  0  0  0  0  0
  -29.4844   11.9342  -21.7776 C   0  0  0  0  0  0  0  0  0  0  0  0
  -32.1155    7.5944  -20.3802 O   0  0  0  0  0  0  0  0  0  0  0  0
  -29.9858    9.5327  -21.9018 N   0  3  0  0  0  0  0  0  0  0  0  0
  -32.7972   12.7673  -17.7294 H   0  0  0  0  0  0  0  0  0  0  0  0
  -31.7704   12.9808  -16.3005 H   0  0  0  0  0  0  0  0  0  0  0  0
  -33.5872   13.0330  -16.1021 H   0  0  0  0  0  0  0  0  0  0  0  0
  -32.6467    8.5184  -16.1913 H   0  0  0  0  0  0  0  0  0  0  0  0
  -34.4285    8.4992  -16.4869 H   0  0  0  0  0  0  0  0  0  0  0  0
  -34.9937    7.7080  -12.3048 H   0  0  0  0  0  0  0  0  0  0  0  0
  -36.6745    8.9744  -10.9954 H   0  0  0  0  0  0  0  0  0  0  0  0
  -37.4317   11.2072  -11.7679 H   0  0  0  0  0  0  0  0  0  0  0  0
  -36.4845   12.1924  -13.8385 H   0  0  0  0  0  0  0  0  0  0  0  0
  -30.7335   10.2062  -16.2978 H   0  0  0  0  0  0  0  0  0  0  0  0
  -30.0602    8.4767  -18.0364 H   0  0  0  0  0  0  0  0  0  0  0  0
  -31.7956    8.0131  -18.0261 H   0  0  0  0  0  0  0  0  0  0  0  0
  -30.0573    7.7771  -20.2051 H   0  0  0  0  0  0  0  0  0  0  0  0
  -31.9405    9.8820  -21.1766 H   0  0  0  0  0  0  0  0  0  0  0  0
  -30.6147   10.4848  -20.1224 H   0  0  0  0  0  0  0  0  0  0  0  0
  -28.0604   10.0745  -23.4947 H   0  0  0  0  0  0  0  0  0  0  0  0
  -28.6396   11.6228  -24.1966 H   0  0  0  0  0  0  0  0  0  0  0  0
  -29.4265   10.0768  -24.6601 H   0  0  0  0  0  0  0  0  0  0  0  0
  -31.2336   11.6331  -24.1866 H   0  0  0  0  0  0  0  0  0  0  0  0
  -31.8855   11.7010  -22.5145 H   0  0  0  0  0  0  0  0  0  0  0  0
  -31.8668   10.1438  -23.4085 H   0  0  0  0  0  0  0  0  0  0  0  0
  -29.1098   12.7629  -22.3964 H   0  0  0  0  0  0  0  0  0  0  0  0
  -28.6834   11.5853  -21.1093 H   0  0  0  0  0  0  0  0  0  0  0  0
  -30.3364   12.2834  -21.1759 H   0  0  0  0  0  0  0  0  0  0  0  0
  -32.9166    7.9437  -19.9150 H   0  0  0  0  0  0  0  0  0  0  0  0
  -30.2851    8.7615  -22.5155 H   0  0  0  0  0  0  0  0  0  0  0  0
  -29.0481    9.3236  -21.5304 H   0  0  0  0  0  0  0  0  0  0  0  0
  1  2  1  0  0  0  0
  1 24  1  0  0  0  0
  1 25  1  0  0  0  0
  1 26  1  0  0  0  0
  2  3  2  0  0  0  0
  2 13  1  0  0  0  0
  3 12  1  0  0  0  0
  3  4  1  0  0  0  0
  4  5  1  0  0  0  0
  4 27  1  0  0  0  0
  4 28  1  0  0  0  0
  5  6  1  0  0  0  0
  6 11  2  0  0  0  0
  6  7  1  0  0  0  0
  7  8  2  0  0  0  0
  7 29  1  0  0  0  0
  8  9  1  0  0  0  0
  8 30  1  0  0  0  0
  9 10  2  0  0  0  0
  9 31  1  0  0  0  0
 10 11  1  0  0  0  0
 10 32  1  0  0  0  0
 11 12  1  0  0  0  0
 13 14  1  0  0  0  0
 13 33  1  0  0  0  0
 14 15  1  0  0  0  0
 15 16  1  0  0  0  0
 15 34  1  0  0  0  0
 15 35  1  0  0  0  0
 16 17  1  0  0  0  0
 16 22  1  0  0  0  0
 16 36  1  0  0  0  0
 17 23  1  0  0  0  0
 17 37  1  0  0  0  0
 17 38  1  0  0  0  0
 18 19  1  0  0  0  0
 18 20  1  0  0  0  0
 18 21  1  0  0  0  0
 18 23  1  0  0  0  0
 19 39  1  0  0  0  0
 19 40  1  0  0  0  0
 19 41  1  0  0  0  0
 20 42  1  0  0  0  0
 20 43  1  0  0  0  0
 20 44  1  0  0  0  0
 21 45  1  0  0  0  0
 21 46  1  0  0  0  0
 21 47  1  0  0  0  0
 22 48  1  0  0  0  0
 23 49  1  0  0  0  0
 23 50  1  0  0  0  0
M  END
> <Name>
ZINC02269343

> <reference>
BDB5025

> <quality>
0.797

> <status>
decoy

> <atoms in reference ligand area>
13

> <score>
-20.396

$$$$
ZINC20423296
      BALL 1.4.0 (Jan  4 2012, 23:22:29)

 37 37  0999  0  0  0  0  0  0999 V2000
  -34.7505   12.8934  -15.5470 C   0  0  0  0  0  0  0  0  0  0  0  0
  -33.5349   13.0908  -16.2720 O   0  0  0  0  0  0  0  0  0  0  0  0
  -33.4830   12.5942  -17.5368 C   0  0  0  0  0  0  0  0  0  0  0  0
  -32.6952   13.2162  -18.4943 C   0  0  0  0  0  0  0  0  0  0  0  0
  -32.6425   12.7119  -19.7790 C   0  0  0  0  0  0  0  0  0  0  0  0
  -33.3772   11.5834  -20.1118 C   0  0  0  0  0  0  0  0  0  0  0  0
  -34.1644   10.9613  -19.1545 C   0  0  0  0  0  0  0  0  0  0  0  0
  -34.2209   11.4686  -17.8707 C   0  0  0  0  0  0  0  0  0  0  0  0
  -34.9631    9.7356  -19.5162 C   0  0  0  0  0  0  0  0  0  0  0  0
  -34.1188    8.4845  -19.2656 C   0  0  0  0  0  0  0  0  0  0  0  0
  -33.4214    8.6032  -17.9089 C   0  0  0  0  0  0  0  0  0  0  0  0
  -31.9310    8.2991  -18.0733 C   0  0  0  0  0  0  0  0  0  0  0  0
  -31.2032    8.6514  -16.8015 C   0  0  0  0  0  0  0  0  0  0  0  0
  -31.5010    9.6514  -16.1923 O   0  0  0  0  0  0  0  0  0  0  0  0
  -30.2240    7.8544  -16.3458 O   0  5  0  0  0  0  0  0  0  0  0  0
  -35.3385    9.7969  -20.9352 N   0  3  0  0  0  0  0  0  0  0  0  0
  -33.3253   11.0869  -21.3767 O   0  0  0  0  0  0  0  0  0  0  0  0
  -32.2061   11.4697  -22.1785 C   0  0  0  0  0  0  0  0  0  0  0  0
  -34.5919   12.0090  -14.9124 H   0  0  0  0  0  0  0  0  0  0  0  0
  -35.5180   12.6400  -16.2932 H   0  0  0  0  0  0  0  0  0  0  0  0
  -35.0386   13.7725  -14.9519 H   0  0  0  0  0  0  0  0  0  0  0  0
  -32.1126   14.1112  -18.2305 H   0  0  0  0  0  0  0  0  0  0  0  0
  -32.0179   13.2052  -20.5382 H   0  0  0  0  0  0  0  0  0  0  0  0
  -34.8513   10.9795  -17.1134 H   0  0  0  0  0  0  0  0  0  0  0  0
  -35.8719    9.6946  -18.8979 H   0  0  0  0  0  0  0  0  0  0  0  0
  -34.7688    7.5971  -19.2667 H   0  0  0  0  0  0  0  0  0  0  0  0
  -33.3626    8.3863  -20.0584 H   0  0  0  0  0  0  0  0  0  0  0  0
  -33.5460    9.6248  -17.5206 H   0  0  0  0  0  0  0  0  0  0  0  0
  -33.8656    7.8859  -17.2031 H   0  0  0  0  0  0  0  0  0  0  0  0
  -31.5239    8.8934  -18.9046 H   0  0  0  0  0  0  0  0  0  0  0  0
  -31.7966    7.2285  -18.2875 H   0  0  0  0  0  0  0  0  0  0  0  0
  -34.5001    9.6664  -21.5191 H   0  0  0  0  0  0  0  0  0  0  0  0
  -35.7599   10.7141  -21.1405 H   0  0  0  0  0  0  0  0  0  0  0  0
  -36.0198    9.0530  -21.1432 H   0  0  0  0  0  0  0  0  0  0  0  0
  -31.3227   11.0011  -21.7204 H   0  0  0  0  0  0  0  0  0  0  0  0
  -32.1051   12.5596  -22.0684 H   0  0  0  0  0  0  0  0  0  0  0  0
  -32.3185   11.1778  -23.2331 H   0  0  0  0  0  0  0  0  0  0  0  0
  1  2  1  0  0  0  0
  1 19  1  0  0  0  0
  1 20  1  0  0  0  0
  1 21  1  0  0  0  0
  2  3  1  0  0  0  0
  3  8  2  0  0  0  0
  3  4  1  0  0  0  0
  4  5  2  0  0  0  0
  4 22  1  0  0  0  0
  5  6  1  0  0  0  0
  5 23  1  0  0  0  0
  6  7  2  0  0  0  0
  6 17  1  0  0  0  0
  7  8  1  0  0  0  0
  7  9  1  0  0  0  0
  8 24  1  0  0  0  0
  9 10  1  0  0  0  0
  9 16  1  0  0  0  0
  9 25  1  0  0  0  0
 10 11  1  0  0  0  0
 10 26  1  0  0  0  0
 10 27  1  0  0  0  0
 11 12  1  0  0  0  0
 11 28  1  0  0  0  0
 11 29  1  0  0  0  0
 12 13  1  0  0  0  0
 12 30  1  0  0  0  0
 12 31  1  0  0  0  0
 13 14  2  0  0  0  0
 13 15  1  0  0  0  0
 16 32  1  0  0  0  0
 16 33  1  0  0  0  0
 16 34  1  0  0  0  0
 17 18  1  0  0  0  0
 18 35  1  0  0  0  0
 18 36  1  0  0  0  0
 18 37  1  0  0  0  0
M  END
> <Name>
ZINC20423296

> <reference>
BDB4995

> <quality>
0.786

> <status>
decoy

> <atoms in reference ligand area>
13

> <score>
-20.3474

$$$$
ZINC05089417
      BALL 1.4.0 (Jan  4 2012, 23:22:29)

 42 44  0999  0  0  0  0  0  0999 V2000
  -31.2330   13.8285  -17.3079 C   0  0  0  0  0  0  0  0  0  0  0  0
  -32.5481   13.6695  -17.8438 O   0  0  0  0  0  0  0  0  0  0  0  0
  -32.8172   12.4999  -18.4812 C   0  0  0  0  0  0  0  0  0  0  0  0
  -33.3950   12.5134  -19.7430 C   0  0  0  0  0  0  0  0  0  0  0  0
  -33.6688   11.3247  -20.3915 C   0  0  0  0  0  0  0  0  0  0  0  0
  -33.3686   10.1193  -19.7856 C   0  0  0  0  0  0  0  0  0  0  0  0
  -32.7966   10.1004  -18.5217 C   0  0  0  0  0  0  0  0  0  0  0  0
  -32.5152   11.2923  -17.8713 C   0  0  0  0  0  0  0  0  0  0  0  0
  -32.5067    8.9147  -17.9240 O   0  0  0  0  0  0  0  0  0  0  0  0
  -32.1776    7.8197  -18.7811 C   0  0  0  0  0  0  0  0  0  0  0  0
  -31.4298    6.7737  -17.9950 C   0  0  0  0  0  0  0  0  0  0  0  0
  -31.7971    5.5371  -17.8108 N   0  0  0  0  0  0  0  0  0  0  0  0
  -30.9272    4.9209  -17.0929 N   0  0  0  0  0  0  0  0  0  0  0  0
  -29.9494    5.7382  -16.7775 C   0  0  0  0  0  0  0  0  0  0  0  0
  -30.2373    6.9450  -17.3479 N   0  0  0  0  0  0  0  0  0  0  0  0
  -29.4907    8.0870  -17.2830 N   0  0  0  0  0  0  0  0  0  0  0  0
  -28.5308    5.3498  -15.8075 S   0  0  0  0  0  0  0  0  0  0  0  0
  -27.6546    4.2582  -16.9550 C   0  0  0  0  0  0  0  0  0  0  0  0
  -26.5050    3.5962  -16.2400 C   0  0  0  0  0  0  0  0  0  0  0  0
  -26.4037    3.6929  -15.0337 O   0  0  0  0  0  0  0  0  0  0  0  0
  -25.5448    2.8626  -16.9733 C   0  0  0  0  0  0  0  0  0  0  0  0
  -24.4397    2.2105  -16.4537 C   0  0  0  0  0  0  0  0  0  0  0  0
  -23.7746    1.6180  -17.5285 C   0  0  0  0  0  0  0  0  0  0  0  0
  -24.4606    1.9176  -18.6597 C   0  0  0  0  0  0  0  0  0  0  0  0
  -25.5331    2.6695  -18.3384 N   0  0  0  0  0  0  0  0  0  0  0  0
  -30.7644   12.8338  -17.3381 H   0  0  0  0  0  0  0  0  0  0  0  0
  -31.3611   14.1093  -16.2521 H   0  0  0  0  0  0  0  0  0  0  0  0
  -30.6376   14.5737  -17.8558 H   0  0  0  0  0  0  0  0  0  0  0  0
  -33.6351   13.4714  -20.2272 H   0  0  0  0  0  0  0  0  0  0  0  0
  -34.1265   11.3376  -21.3917 H   0  0  0  0  0  0  0  0  0  0  0  0
  -33.5833    9.1742  -20.3059 H   0  0  0  0  0  0  0  0  0  0  0  0
  -32.0531   11.2795  -16.8732 H   0  0  0  0  0  0  0  0  0  0  0  0
  -33.1011    7.3814  -19.1875 H   0  0  0  0  0  0  0  0  0  0  0  0
  -31.5462    8.1767  -19.6081 H   0  0  0  0  0  0  0  0  0  0  0  0
  -28.9141    8.2763  -18.1152 H   0  0  0  0  0  0  0  0  0  0  0  0
  -29.4905    8.7232  -16.4730 H   0  0  0  0  0  0  0  0  0  0  0  0
  -27.2694    4.8468  -17.8007 H   0  0  0  0  0  0  0  0  0  0  0  0
  -28.3456    3.4882  -17.3286 H   0  0  0  0  0  0  0  0  0  0  0  0
  -24.1425    2.1673  -15.3955 H   0  0  0  0  0  0  0  0  0  0  0  0
  -22.8566    1.0150  -17.4687 H   0  0  0  0  0  0  0  0  0  0  0  0
  -24.1862    1.5984  -19.6759 H   0  0  0  0  0  0  0  0  0  0  0  0
  -26.2283    3.0385  -19.0028 H   0  0  0  0  0  0  0  0  0  0  0  0
  1  2  1  0  0  0  0
  1 26  1  0  0  0  0
  1 27  1  0  0  0  0
  1 28  1  0  0  0  0
  2  3  1  0  0  0  0
  3  8  2  0  0  0  0
  3  4  1  0  0  0  0
  4  5  2  0  0  0  0
  4 29  1  0  0  0  0
  5  6  1  0  0  0  0
  5 30  1  0  0  0  0
  6  7  2  0  0  0  0
  6 31  1  0  0  0  0
  7  8  1  0  0  0  0
  7  9  1  0  0  0  0
  8 32  1  0  0  0  0
  9 10  1  0  0  0  0
 10 11  1  0  0  0  0
 10 33  1  0  0  0  0
 10 34  1  0  0  0  0
 11 15  1  0  0  0  0
 11 12  2  0  0  0  0
 12 13  1  0  0  0  0
 13 14  2  0  0  0  0
 14 15  1  0  0  0  0
 14 17  1  0  0  0  0
 15 16  1  0  0  0  0
 16 35  1  0  0  0  0
 16 36  1  0  0  0  0
 17 18  1  0  0  0  0
 18 19  1  0  0  0  0
 18 37  1  0  0  0  0
 18 38  1  0  0  0  0
 19 20  2  0  0  0  0
 19 21  1  0  0  0  0
 21 25  1  0  0  0  0
 21 22  2  0  0  0  0
 22 23  1  0  0  0  0
 22 39  1  0  0  0  0
 23 24  2  0  0  0  0
 23 40  1  0  0  0  0
 24 25  1  0  0  0  0
 24 41  1  0  0  0  0
 25 42  1  0  0  0  0
M  END
> <Name>
ZINC05089417

> <reference>
BDB5003

> <quality>
0.756

> <status>
decoy

> <atoms in reference ligand area>
10

> <score>
-20.2535

$$$$
ZINC10186482
      BALL 1.4.0 (Jan  4 2012, 23:22:29)

 43 43  0999  0  0  0  0  0  0999 V2000
  -27.7364    7.4938  -15.5753 C   0  0  0  0  0  0  0  0  0  0  0  0
  -28.8689    6.5029  -15.6557 C   0  0  0  0  0  0  0  0  0  0  0  0
  -28.6289    5.1605  -15.4374 C   0  0  0  0  0  0  0  0  0  0  0  0
  -29.6701    4.2476  -15.5170 C   0  0  0  0  0  0  0  0  0  0  0  0
  -30.9543    4.6831  -15.8102 C   0  0  0  0  0  0  0  0  0  0  0  0
  -31.1967    6.0255  -16.0235 C   0  0  0  0  0  0  0  0  0  0  0  0
  -30.1546    6.9400  -15.9439 C   0  0  0  0  0  0  0  0  0  0  0  0
  -30.3999    8.3024  -16.1602 N   0  0  0  0  0  0  0  0  0  0  0  0
  -31.3235    8.6859  -17.0636 C   0  0  0  0  0  0  0  0  0  0  0  0
  -31.8707    7.8574  -17.7605 O   0  0  0  0  0  0  0  0  0  0  0  0
  -31.6765   10.1438  -17.2080 C   0  0  0  0  0  0  0  0  0  0  0  0
  -32.0982   10.4258  -18.6515 C   0  0  0  0  0  0  0  0  0  0  0  0
  -32.7930   11.7614  -18.7200 C   0  0  0  0  0  0  0  0  0  0  0  0
  -33.5129   12.0205  -19.6551 O   0  0  0  0  0  0  0  0  0  0  0  0
  -31.2860   10.6023  -20.9256 C   0  0  0  0  0  0  0  0  0  0  0  0
  -30.0334   10.8741  -21.7612 C   0  0  0  0  0  0  0  0  0  0  0  0
  -30.4075   10.9096  -23.2442 C   0  0  0  0  0  0  0  0  0  0  0  0
  -29.4314   12.2206  -21.3546 C   0  0  0  0  0  0  0  0  0  0  0  0
  -29.4321    2.9253  -15.3080 O   0  0  0  0  0  0  0  0  0  0  0  0
  -32.6120   12.6629  -17.7422 O   0  5  0  0  0  0  0  0  0  0  0  0
  -30.8992   10.4499  -19.5103 N   0  3  0  0  0  0  0  0  0  0  0  0
  -27.2922    7.5020  -16.5817 H   0  0  0  0  0  0  0  0  0  0  0  0
  -27.0010    7.0328  -14.8994 H   0  0  0  0  0  0  0  0  0  0  0  0
  -28.0441    8.4961  -15.2425 H   0  0  0  0  0  0  0  0  0  0  0  0
  -27.6118    4.8152  -15.2003 H   0  0  0  0  0  0  0  0  0  0  0  0
  -31.7797    3.9586  -15.8728 H   0  0  0  0  0  0  0  0  0  0  0  0
  -32.2149    6.3705  -16.2565 H   0  0  0  0  0  0  0  0  0  0  0  0
  -29.8742    9.0110  -15.6287 H   0  0  0  0  0  0  0  0  0  0  0  0
  -30.8017   10.7608  -16.9551 H   0  0  0  0  0  0  0  0  0  0  0  0
  -32.5068   10.3891  -16.5294 H   0  0  0  0  0  0  0  0  0  0  0  0
  -32.7852    9.6394  -18.9973 H   0  0  0  0  0  0  0  0  0  0  0  0
  -31.9852   11.4455  -21.0263 H   0  0  0  0  0  0  0  0  0  0  0  0
  -31.7690    9.6780  -21.2755 H   0  0  0  0  0  0  0  0  0  0  0  0
  -29.2966   10.0759  -21.5879 H   0  0  0  0  0  0  0  0  0  0  0  0
  -31.3677   10.3941  -23.3937 H   0  0  0  0  0  0  0  0  0  0  0  0
  -29.6263   10.4062  -23.8327 H   0  0  0  0  0  0  0  0  0  0  0  0
  -30.4982   11.9546  -23.5754 H   0  0  0  0  0  0  0  0  0  0  0  0
  -29.6509   12.4165  -20.2947 H   0  0  0  0  0  0  0  0  0  0  0  0
  -29.8669   13.0196  -21.9725 H   0  0  0  0  0  0  0  0  0  0  0  0
  -28.3418   12.1959  -21.5038 H   0  0  0  0  0  0  0  0  0  0  0  0
  -29.9012    2.4619  -16.0465 H   0  0  0  0  0  0  0  0  0  0  0  0
  -30.2975   11.2391  -19.2345 H   0  0  0  0  0  0  0  0  0  0  0  0
  -30.3764    9.5703  -19.3928 H   0  0  0  0  0  0  0  0  0  0  0  0
  1  2  1  0  0  0  0
  1 22  1  0  0  0  0
  1 23  1  0  0  0  0
  1 24  1  0  0  0  0
  2  7  2  0  0  0  0
  2  3  1  0  0  0  0
  3  4  2  0  0  0  0
  3 25  1  0  0  0  0
  4  5  1  0  0  0  0
  4 19  1  0  0  0  0
  5  6  2  0  0  0  0
  5 26  1  0  0  0  0
  6  7  1  0  0  0  0
  6 27  1  0  0  0  0
  7  8  1  0  0  0  0
  8  9  1  0  0  0  0
  8 28  1  0  0  0  0
  9 10  2  0  0  0  0
  9 11  1  0  0  0  0
 11 12  1  0  0  0  0
 11 29  1  0  0  0  0
 11 30  1  0  0  0  0
 12 13  1  0  0  0  0
 12 21  1  0  0  0  0
 12 31  1  0  0  0  0
 13 14  2  0  0  0  0
 13 20  1  0  0  0  0
 15 16  1  0  0  0  0
 15 21  1  0  0  0  0
 15 32  1  0  0  0  0
 15 33  1  0  0  0  0
 16 17  1  0  0  0  0
 16 18  1  0  0  0  0
 16 34  1  0  0  0  0
 17 35  1  0  0  0  0
 17 36  1  0  0  0  0
 17 37  1  0  0  0  0
 18 38  1  0  0  0  0
 18 39  1  0  0  0  0
 18 40  1  0  0  0  0
 19 41  1  0  0  0  0
 21 42  1  0  0  0  0
 21 43  1  0  0  0  0
M  END
> <Name>
ZINC10186482

> <reference>
BDB4986

> <quality>
0.724

> <status>
decoy

> <atoms in reference ligand area>
17

> <score>
-19.9221

$$$$
ZINC02267985
      BALL 1.4.0 (Jan  4 2012, 23:22:29)

 48 49  0999  0  0  0  0  0  0999 V2000
  -33.4311    8.8962  -21.7115 C   0  0  0  0  0  0  0  0  0  0  0  0
  -33.2008    9.7140  -20.4390 C   0  0  0  0  0  0  0  0  0  0  0  0
  -31.6980    9.9458  -20.2385 C   0  0  0  0  0  0  0  0  0  0  0  0
  -31.4886   10.7461  -18.9495 C   0  0  0  0  0  0  0  0  0  0  0  0
  -33.4771    9.7692  -17.9619 C   0  0  0  0  0  0  0  0  0  0  0  0
  -33.7366    8.9438  -19.2258 C   0  0  0  0  0  0  0  0  0  0  0  0
  -32.9898    7.6111  -19.1166 C   0  0  0  0  0  0  0  0  0  0  0  0
  -31.0017    8.5881  -20.1048 C   0  0  0  0  0  0  0  0  0  0  0  0
  -30.8201    6.6165  -18.7121 C   0  0  0  0  0  0  0  0  0  0  0  0
  -30.0309    6.7092  -17.4047 C   0  0  0  0  0  0  0  0  0  0  0  0
  -29.4824    8.0221  -17.2715 O   0  0  0  0  0  0  0  0  0  0  0  0
  -35.1733    8.6956  -19.3681 N   0  0  0  0  0  0  0  0  0  0  0  0
  -35.7289    8.9241  -20.4276 O   0  0  0  0  0  0  0  0  0  0  0  0
  -35.8124    8.2606  -18.4268 O   0  0  0  0  0  0  0  0  0  0  0  0
  -31.7350   10.6698  -16.5425 C   0  0  0  0  0  0  0  0  0  0  0  0
  -31.8624    9.6708  -15.3908 C   0  0  0  0  0  0  0  0  0  0  0  0
  -30.8736    8.6493  -15.5347 O   0  0  0  0  0  0  0  0  0  0  0  0
  -31.1354   10.6807  -21.3740 N   0  0  0  0  0  0  0  0  0  0  0  0
  -30.0769   11.2710  -21.2531 O   0  0  0  0  0  0  0  0  0  0  0  0
  -31.7261   10.7014  -22.4390 O   0  0  0  0  0  0  0  0  0  0  0  0
  -33.9193   11.0600  -20.5535 C   0  0  0  0  0  0  0  0  0  0  0  0
  -32.0191    9.9666  -17.8101 N   0  3  0  0  0  0  0  0  0  0  0  0
  -31.5489    7.8836  -18.9250 N   0  0  0  0  0  0  0  0  0  0  0  0
  -32.7658    8.0202  -21.7088 H   0  0  0  0  0  0  0  0  0  0  0  0
  -33.2117    9.5187  -22.5914 H   0  0  0  0  0  0  0  0  0  0  0  0
  -34.4782    8.5615  -21.7507 H   0  0  0  0  0  0  0  0  0  0  0  0
  -30.4144   10.9299  -18.8008 H   0  0  0  0  0  0  0  0  0  0  0  0
  -32.0233   11.7049  -19.0194 H   0  0  0  0  0  0  0  0  0  0  0  0
  -33.8687    9.2337  -17.0845 H   0  0  0  0  0  0  0  0  0  0  0  0
  -33.9730   10.7468  -18.0524 H   0  0  0  0  0  0  0  0  0  0  0  0
  -33.3741    7.0432  -18.2566 H   0  0  0  0  0  0  0  0  0  0  0  0
  -33.1343    7.0303  -20.0396 H   0  0  0  0  0  0  0  0  0  0  0  0
  -29.9200    8.7394  -19.9735 H   0  0  0  0  0  0  0  0  0  0  0  0
  -31.1859    7.9892  -21.0089 H   0  0  0  0  0  0  0  0  0  0  0  0
  -31.5383    5.7856  -18.6513 H   0  0  0  0  0  0  0  0  0  0  0  0
  -30.1268    6.4463  -19.5491 H   0  0  0  0  0  0  0  0  0  0  0  0
  -29.2154    5.9711  -17.4143 H   0  0  0  0  0  0  0  0  0  0  0  0
  -30.7009    6.5044  -16.5566 H   0  0  0  0  0  0  0  0  0  0  0  0
  -29.1539    8.3344  -18.1517 H   0  0  0  0  0  0  0  0  0  0  0  0
  -32.4588   11.4864  -16.4042 H   0  0  0  0  0  0  0  0  0  0  0  0
  -30.7134   11.0764  -16.5680 H   0  0  0  0  0  0  0  0  0  0  0  0
  -31.7129   10.1929  -14.4342 H   0  0  0  0  0  0  0  0  0  0  0  0
  -32.8638    9.2158  -15.4076 H   0  0  0  0  0  0  0  0  0  0  0  0
  -30.0021    8.9834  -15.2046 H   0  0  0  0  0  0  0  0  0  0  0  0
  -34.9608   10.8932  -20.8656 H   0  0  0  0  0  0  0  0  0  0  0  0
  -33.4094   11.6843  -21.3020 H   0  0  0  0  0  0  0  0  0  0  0  0
  -33.9054   11.5700  -19.5790 H   0  0  0  0  0  0  0  0  0  0  0  0
  -31.5586    9.0454  -17.7944 H   0  0  0  0  0  0  0  0  0  0  0  0
  1  2  1  0  0  0  0
  1 24  1  0  0  0  0
  1 25  1  0  0  0  0
  1 26  1  0  0  0  0
  2  6  1  0  0  0  0
  2  3  1  0  0  0  0
  2 21  1  0  0  0  0
  3  8  1  0  0  0  0
  3  4  1  0  0  0  0
  3 18  1  0  0  0  0
  4 22  1  0  0  0  0
  4 27  1  0  0  0  0
  4 28  1  0  0  0  0
  5  6  1  0  0  0  0
  5 22  1  0  0  0  0
  5 29  1  0  0  0  0
  5 30  1  0  0  0  0
  6  7  1  0  0  0  0
  6 12  1  0  0  0  0
  7 23  1  0  0  0  0
  7 31  1  0  0  0  0
  7 32  1  0  0  0  0
  8 23  1  0  0  0  0
  8 33  1  0  0  0  0
  8 34  1  0  0  0  0
  9 10  1  0  0  0  0
  9 23  1  0  0  0  0
  9 35  1  0  0  0  0
  9 36  1  0  0  0  0
 10 11  1  0  0  0  0
 10 37  1  0  0  0  0
 10 38  1  0  0  0  0
 11 39  1  0  0  0  0
 12 13  2  0  0  0  0
 12 14  2  0  0  0  0
 15 16  1  0  0  0  0
 15 22  1  0  0  0  0
 15 40  1  0  0  0  0
 15 41  1  0  0  0  0
 16 17  1  0  0  0  0
 16 42  1  0  0  0  0
 16 43  1  0  0  0  0
 17 44  1  0  0  0  0
 18 19  2  0  0  0  0
 18 20  2  0  0  0  0
 21 45  1  0  0  0  0
 21 46  1  0  0  0  0
 21 47  1  0  0  0  0
 22 48  1  0  0  0  0
M  END
> <Name>
ZINC02267985

> <reference>
BDB4934

> <quality>
0.724

> <status>
decoy

> <atoms in reference ligand area>
10

> <score>
-19.571

$$$$
ZINC04998060
      BALL 1.4.0 (Jan  4 2012, 23:22:29)

 43 44  0999  0  0  0  0  0  0999 V2000
  -33.0554   13.1705  -21.7364 C   0  0  0  0  0  0  0  0  0  0  0  0
  -32.0240   12.6152  -20.9180 O   0  0  0  0  0  0  0  0  0  0  0  0
  -31.9061   11.2613  -20.9079 C   0  0  0  0  0  0  0  0  0  0  0  0
  -32.0488   10.5606  -19.7183 C   0  0  0  0  0  0  0  0  0  0  0  0
  -31.9281    9.1844  -19.7072 C   0  0  0  0  0  0  0  0  0  0  0  0
  -31.6655    8.5020  -20.8800 C   0  0  0  0  0  0  0  0  0  0  0  0
  -31.5168    9.1984  -22.0708 C   0  0  0  0  0  0  0  0  0  0  0  0
  -31.6427   10.5792  -22.0854 C   0  0  0  0  0  0  0  0  0  0  0  0
  -31.2532    8.5274  -23.2228 O   0  0  0  0  0  0  0  0  0  0  0  0
  -30.8960    9.3111  -24.3630 C   0  0  0  0  0  0  0  0  0  0  0  0
  -31.5345    7.0008  -20.8644 C   0  0  0  0  0  0  0  0  0  0  0  0
  -29.8207    5.6644  -19.7969 C   0  0  0  0  0  0  0  0  0  0  0  0
  -29.9428    6.3586  -18.4390 C   0  0  0  0  0  0  0  0  0  0  0  0
  -29.2240    5.5811  -17.4266 N   0  0  0  0  0  0  0  0  0  0  0  0
  -29.1899    6.0071  -16.1484 C   0  0  0  0  0  0  0  0  0  0  0  0
  -29.7555    7.0361  -15.8357 O   0  0  0  0  0  0  0  0  0  0  0  0
  -28.4631    5.2209  -15.1248 C   0  0  0  0  0  0  0  0  0  0  0  0
  -27.4598    5.6851  -14.1398 C   0  0  0  0  0  0  0  0  0  0  0  0
  -27.1569    4.5798  -13.4986 N   0  0  0  0  0  0  0  0  0  0  0  0
  -27.7965    3.6616  -13.9546 O   0  0  0  0  0  0  0  0  0  0  0  0
  -28.5508    3.9358  -14.8583 N   0  0  0  0  0  0  0  0  0  0  0  0
  -26.9640    6.9667  -13.9434 N   0  0  0  0  0  0  0  0  0  0  0  0
  -30.1041    6.6404  -20.8660 N   0  3  0  0  0  0  0  0  0  0  0  0
  -33.1470   14.2269  -21.4441 H   0  0  0  0  0  0  0  0  0  0  0  0
  -33.9863   12.6593  -21.4501 H   0  0  0  0  0  0  0  0  0  0  0  0
  -32.8489   13.0641  -22.8116 H   0  0  0  0  0  0  0  0  0  0  0  0
  -32.2581   11.1015  -18.7836 H   0  0  0  0  0  0  0  0  0  0  0  0
  -32.0412    8.6309  -18.7634 H   0  0  0  0  0  0  0  0  0  0  0  0
  -31.5337   11.1324  -23.0300 H   0  0  0  0  0  0  0  0  0  0  0  0
  -29.8712    9.0159  -24.6323 H   0  0  0  0  0  0  0  0  0  0  0  0
  -30.8675   10.3568  -24.0228 H   0  0  0  0  0  0  0  0  0  0  0  0
  -31.5906    9.1779  -25.2054 H   0  0  0  0  0  0  0  0  0  0  0  0
  -32.0131    6.5994  -19.9589 H   0  0  0  0  0  0  0  0  0  0  0  0
  -32.0200    6.5791  -21.7568 H   0  0  0  0  0  0  0  0  0  0  0  0
  -28.8002    5.2724  -19.9189 H   0  0  0  0  0  0  0  0  0  0  0  0
  -30.5435    4.8373  -19.8543 H   0  0  0  0  0  0  0  0  0  0  0  0
  -31.0038    6.4330  -18.1581 H   0  0  0  0  0  0  0  0  0  0  0  0
  -29.5087    7.3673  -18.5024 H   0  0  0  0  0  0  0  0  0  0  0  0
  -28.7446    4.7088  -17.6916 H   0  0  0  0  0  0  0  0  0  0  0  0
  -25.9354    7.0092  -13.9128 H   0  0  0  0  0  0  0  0  0  0  0  0
  -27.5448    7.8105  -13.8356 H   0  0  0  0  0  0  0  0  0  0  0  0
  -29.8567    6.2291  -21.7773 H   0  0  0  0  0  0  0  0  0  0  0  0
  -29.5377    7.4870  -20.7133 H   0  0  0  0  0  0  0  0  0  0  0  0
  1  2  1  0  0  0  0
  1 24  1  0  0  0  0
  1 25  1  0  0  0  0
  1 26  1  0  0  0  0
  2  3  1  0  0  0  0
  3  8  2  0  0  0  0
  3  4  1  0  0  0  0
  4  5  2  0  0  0  0
  4 27  1  0  0  0  0
  5  6  1  0  0  0  0
  5 28  1  0  0  0  0
  6  7  2  0  0  0  0
  6 11  1  0  0  0  0
  7  8  1  0  0  0  0
  7  9  1  0  0  0  0
  8 29  1  0  0  0  0
  9 10  1  0  0  0  0
 10 30  1  0  0  0  0
 10 31  1  0  0  0  0
 10 32  1  0  0  0  0
 11 23  1  0  0  0  0
 11 33  1  0  0  0  0
 11 34  1  0  0  0  0
 12 13  1  0  0  0  0
 12 23  1  0  0  0  0
 12 35  1  0  0  0  0
 12 36  1  0  0  0  0
 13 14  1  0  0  0  0
 13 37  1  0  0  0  0
 13 38  1  0  0  0  0
 14 15  1  0  0  0  0
 14 39  1  0  0  0  0
 15 16  2  0  0  0  0
 15 17  1  0  0  0  0
 17 21  2  0  0  0  0
 17 18  1  0  0  0  0
 18 19  2  0  0  0  0
 18 22  1  0  0  0  0
 19 20  1  0  0  0  0
 20 21  1  0  0  0  0
 22 40  1  0  0  0  0
 22 41  1  0  0  0  0
 23 42  1  0  0  0  0
 23 43  1  0  0  0  0
M  END
> <Name>
ZINC04998060

> <reference>
BDB5023

> <quality>
0.730

> <status>
decoy

> <atoms in reference ligand area>
11

> <score>
-19.4578

$$$$
ZINC17002242
      BALL 1.4.0 (Jan  4 2012, 23:22:29)

 35 35  0999  0  0  0  0  0  0999 V2000
  -31.4112    7.1189  -25.2892 C   0  0  0  0  0  0  0  0  0  0  0  0
  -29.2504    7.7706  -24.4122 C   0  0  0  0  0  0  0  0  0  0  0  0
  -31.2515    8.1418  -23.1004 C   0  0  0  0  0  0  0  0  0  0  0  0
  -31.3713    9.5345  -23.7223 C   0  0  0  0  0  0  0  0  0  0  0  0
  -31.3504   10.5907  -22.6155 C   0  0  0  0  0  0  0  0  0  0  0  0
  -30.9852    9.9594  -21.3449 N   0  0  0  0  0  0  0  0  0  0  0  0
  -30.6951   10.7521  -20.2267 N   0  0  0  0  0  0  0  0  0  0  0  0
  -31.1064   11.9738  -20.1779 N   0  0  0  0  0  0  0  0  0  0  0  0
  -30.8233   12.7472  -19.0867 C   0  0  0  0  0  0  0  0  0  0  0  0
  -31.1988   14.0740  -18.8948 C   0  0  0  0  0  0  0  0  0  0  0  0
  -30.6939   14.4362  -17.6584 N   0  0  0  0  0  0  0  0  0  0  0  0
  -30.0487   13.3655  -17.1603 C   0  0  0  0  0  0  0  0  0  0  0  0
  -30.1306   12.3690  -17.9999 N   0  0  0  0  0  0  0  0  0  0  0  0
  -31.9686   14.9131  -19.8119 C   0  0  0  0  0  0  0  0  0  0  0  0
  -31.5638   16.0228  -20.1070 O   0  0  0  0  0  0  0  0  0  0  0  0
  -33.1264   14.4581  -20.3307 N   0  0  0  0  0  0  0  0  0  0  0  0
  -30.5876    7.2431  -24.0681 N   0  3  0  0  0  0  0  0  0  0  0  0
  -31.1324    6.1989  -25.8238 H   0  0  0  0  0  0  0  0  0  0  0  0
  -31.2299    7.9872  -25.9398 H   0  0  0  0  0  0  0  0  0  0  0  0
  -32.4761    7.0785  -25.0166 H   0  0  0  0  0  0  0  0  0  0  0  0
  -28.7132    8.0305  -23.4881 H   0  0  0  0  0  0  0  0  0  0  0  0
  -29.3636    8.6714  -25.0332 H   0  0  0  0  0  0  0  0  0  0  0  0
  -28.6823    7.0093  -24.9670 H   0  0  0  0  0  0  0  0  0  0  0  0
  -32.2540    7.7542  -22.8667 H   0  0  0  0  0  0  0  0  0  0  0  0
  -30.6512    8.1996  -22.1804 H   0  0  0  0  0  0  0  0  0  0  0  0
  -30.5271    9.7045  -24.4066 H   0  0  0  0  0  0  0  0  0  0  0  0
  -32.3164    9.6081  -24.2804 H   0  0  0  0  0  0  0  0  0  0  0  0
  -30.6123   11.3676  -22.8638 H   0  0  0  0  0  0  0  0  0  0  0  0
  -32.3469   11.0474  -22.5240 H   0  0  0  0  0  0  0  0  0  0  0  0
  -30.9417    8.9328  -21.2736 H   0  0  0  0  0  0  0  0  0  0  0  0
  -30.7934   15.3550  -17.2037 H   0  0  0  0  0  0  0  0  0  0  0  0
  -29.5301   13.3344  -16.1907 H   0  0  0  0  0  0  0  0  0  0  0  0
  -34.0047   14.9665  -20.1546 H   0  0  0  0  0  0  0  0  0  0  0  0
  -33.1329   13.6019  -20.9034 H   0  0  0  0  0  0  0  0  0  0  0  0
  -30.4801    6.3121  -23.6408 H   0  0  0  0  0  0  0  0  0  0  0  0
  1 17  1  0  0  0  0
  1 18  1  0  0  0  0
  1 19  1  0  0  0  0
  1 20  1  0  0  0  0
  2 17  1  0  0  0  0
  2 21  1  0  0  0  0
  2 22  1  0  0  0  0
  2 23  1  0  0  0  0
  3  4  1  0  0  0  0
  3 17  1  0  0  0  0
  3 24  1  0  0  0  0
  3 25  1  0  0  0  0
  4  5  1  0  0  0  0
  4 26  1  0  0  0  0
  4 27  1  0  0  0  0
  5  6  1  0  0  0  0
  5 28  1  0  0  0  0
  5 29  1  0  0  0  0
  6  7  1  0  0  0  0
  6 30  1  0  0  0  0
  7  8  2  0  0  0  0
  8  9  1  0  0  0  0
  9 13  1  0  0  0  0
  9 10  2  0  0  0  0
 10 11  1  0  0  0  0
 10 14  1  0  0  0  0
 11 12  1  0  0  0  0
 11 31  1  0  0  0  0
 12 13  2  0  0  0  0
 12 32  1  0  0  0  0
 14 15  2  0  0  0  0
 14 16  1  0  0  0  0
 16 33  1  0  0  0  0
 16 34  1  0  0  0  0
 17 35  1  0  0  0  0
M  END
> <Name>
ZINC17002242

> <reference>
BDB5021

> <quality>
0.654

> <status>
decoy

> <atoms in reference ligand area>
11

> <score>
-19.4352

$$$$
ZINC06425106
      BALL 1.4.0 (Jan  4 2012, 23:22:29)

 32 31  0999  0  0  0  0  0  0999 V2000
  -27.0222    5.0333  -16.4475 C   0  0  0  0  0  0  0  0  0  0  0  0
  -28.2141    4.4327  -17.6700 S   0  0  0  0  0  0  0  0  0  0  0  0
  -29.3317    5.7945  -17.7024 C   0  0  0  0  0  0  0  0  0  0  0  0
  -29.2301    6.7517  -16.8027 N   0  0  0  0  0  0  0  0  0  0  0  0
  -30.1187    7.8345  -16.8285 N   0  0  0  0  0  0  0  0  0  0  0  0
  -29.9281    8.8083  -17.6591 C   0  0  0  0  0  0  0  0  0  0  0  0
  -30.8839    9.9730  -17.6869 C   0  0  0  0  0  0  0  0  0  0  0  0
  -30.3062   11.0862  -18.5632 C   0  0  0  0  0  0  0  0  0  0  0  0
  -30.7924   12.4432  -18.0504 C   0  0  0  0  0  0  0  0  0  0  0  0
  -29.6484   13.4564  -18.1249 C   0  0  0  0  0  0  0  0  0  0  0  0
  -30.0510   14.7354  -17.3883 C   0  0  0  0  0  0  0  0  0  0  0  0
  -28.8772   15.4206  -16.9471 O   0  0  0  0  0  0  0  0  0  0  0  0
  -28.4811   12.9023  -17.5145 O   0  0  0  0  0  0  0  0  0  0  0  0
  -31.8818   12.8948  -18.8575 O   0  0  0  0  0  0  0  0  0  0  0  0
  -28.8788   11.0410  -18.5111 O   0  0  0  0  0  0  0  0  0  0  0  0
  -32.1382    9.5472  -18.2232 O   0  0  0  0  0  0  0  0  0  0  0  0
  -30.5852    5.8762  -18.9380 S   0  5  0  0  0  0  0  0  0  0  0  0
  -26.8683    4.3491  -15.6000 H   0  0  0  0  0  0  0  0  0  0  0  0
  -27.2122    6.0617  -16.1063 H   0  0  0  0  0  0  0  0  0  0  0  0
  -26.0553    5.0729  -16.9707 H   0  0  0  0  0  0  0  0  0  0  0  0
  -29.0684    8.7859  -18.3449 H   0  0  0  0  0  0  0  0  0  0  0  0
  -31.0315   10.3505  -16.6643 H   0  0  0  0  0  0  0  0  0  0  0  0
  -30.6399   10.9457  -19.6019 H   0  0  0  0  0  0  0  0  0  0  0  0
  -31.1260   12.3428  -17.0070 H   0  0  0  0  0  0  0  0  0  0  0  0
  -29.4348   13.6916  -19.1781 H   0  0  0  0  0  0  0  0  0  0  0  0
  -30.6210   15.3861  -18.0678 H   0  0  0  0  0  0  0  0  0  0  0  0
  -30.6734   14.4785  -16.5185 H   0  0  0  0  0  0  0  0  0  0  0  0
  -28.7618   16.2516  -17.4725 H   0  0  0  0  0  0  0  0  0  0  0  0
  -28.4875   11.9181  -17.6207 H   0  0  0  0  0  0  0  0  0  0  0  0
  -32.4889   13.4542  -18.3111 H   0  0  0  0  0  0  0  0  0  0  0  0
  -28.5631   10.1633  -18.8430 H   0  0  0  0  0  0  0  0  0  0  0  0
  -32.8758    9.9689  -17.7150 H   0  0  0  0  0  0  0  0  0  0  0  0
  1  2  1  0  0  0  0
  1 18  1  0  0  0  0
  1 19  1  0  0  0  0
  1 20  1  0  0  0  0
  2  3  1  0  0  0  0
  3  4  2  0  0  0  0
  3 17  1  0  0  0  0
  4  5  1  0  0  0  0
  5  6  2  0  0  0  0
  6  7  1  0  0  0  0
  6 21  1  0  0  0  0
  7  8  1  0  0  0  0
  7 16  1  0  0  0  0
  7 22  1  0  0  0  0
  8  9  1  0  0  0  0
  8 15  1  0  0  0  0
  8 23  1  0  0  0  0
  9 10  1  0  0  0  0
  9 14  1  0  0  0  0
  9 24  1  0  0  0  0
 10 11  1  0  0  0  0
 10 13  1  0  0  0  0
 10 25  1  0  0  0  0
 11 12  1  0  0  0  0
 11 26  1  0  0  0  0
 11 27  1  0  0  0  0
 12 28  1  0  0  0  0
 13 29  1  0  0  0  0
 14 30  1  0  0  0  0
 15 31  1  0  0  0  0
 16 32  1  0  0  0  0
M  END
> <Name>
ZINC06425106

> <reference>
BDB4986

> <quality>
0.721

> <status>
decoy

> <atoms in reference ligand area>
10

> <score>
-19.3224

$$$$
ZINC30521525
      BALL 1.4.0 (Jan  4 2012, 23:22:29)

 51 52  0999  0  0  0  0  0  0999 V2000
  -27.4728    5.8403  -19.6873 C   0  0  0  0  0  0  0  0  0  0  0  0
  -27.5324    4.4258  -19.2952 N   0  3  0  0  0  0  0  0  0  0  0  0
  -26.8889    3.5727  -20.3031 C   0  0  0  0  0  0  0  0  0  0  0  0
  -26.9312    4.2210  -17.9706 C   0  0  0  0  0  0  0  0  0  0  0  0
  -28.0297    4.2253  -16.9058 C   0  0  0  0  0  0  0  0  0  0  0  0
  -28.7291    5.5123  -16.9308 N   0  0  0  0  0  0  0  0  0  0  0  0
  -30.0755    5.5468  -16.9809 C   0  0  0  0  0  0  0  0  0  0  0  0
  -30.7097    4.5097  -17.0053 O   0  0  0  0  0  0  0  0  0  0  0  0
  -30.7801    6.8434  -17.0061 C   0  0  0  0  0  0  0  0  0  0  0  0
  -31.8351    7.0844  -16.1218 C   0  0  0  0  0  0  0  0  0  0  0  0
  -32.4864    8.2971  -16.1438 C   0  0  0  0  0  0  0  0  0  0  0  0
  -32.1027    9.2782  -17.0528 C   0  0  0  0  0  0  0  0  0  0  0  0
  -31.0568    9.0392  -17.9388 C   0  0  0  0  0  0  0  0  0  0  0  0
  -30.3976    7.8309  -17.9180 C   0  0  0  0  0  0  0  0  0  0  0  0
  -32.7681   10.5033  -17.0761 N   0  0  0  0  0  0  0  0  0  0  0  0
  -32.9263   11.1622  -18.2412 C   0  0  0  0  0  0  0  0  0  0  0  0
  -32.5738   10.6479  -19.2813 O   0  0  0  0  0  0  0  0  0  0  0  0
  -33.5411   12.5379  -18.2514 C   0  0  0  0  0  0  0  0  0  0  0  0
  -32.9305   13.3660  -19.3841 C   0  0  0  0  0  0  0  0  0  0  0  0
  -31.5039   13.7052  -19.0652 C   0  0  0  0  0  0  0  0  0  0  0  0
  -30.9875   13.6288  -17.8808 C   0  0  0  0  0  0  0  0  0  0  0  0
  -31.7406   13.1803  -16.6626 C   0  0  0  0  0  0  0  0  0  0  0  0
  -33.2475   13.2440  -16.9216 C   0  0  0  0  0  0  0  0  0  0  0  0
  -33.9830   12.5481  -15.8054 C   0  0  0  0  0  0  0  0  0  0  0  0
  -34.0511   11.3419  -15.7865 O   0  0  0  0  0  0  0  0  0  0  0  0
  -34.5625   13.2683  -14.8321 O   0  5  0  0  0  0  0  0  0  0  0  0
  -26.4786    6.2376  -19.4348 H   0  0  0  0  0  0  0  0  0  0  0  0
  -28.2365    6.3976  -19.1250 H   0  0  0  0  0  0  0  0  0  0  0  0
  -27.6538    5.9429  -20.7675 H   0  0  0  0  0  0  0  0  0  0  0  0
  -28.5244    4.1547  -19.2379 H   0  0  0  0  0  0  0  0  0  0  0  0
  -26.0490    3.0396  -19.8337 H   0  0  0  0  0  0  0  0  0  0  0  0
  -26.5035    4.2088  -21.1136 H   0  0  0  0  0  0  0  0  0  0  0  0
  -27.6129    2.8495  -20.7067 H   0  0  0  0  0  0  0  0  0  0  0  0
  -26.4064    3.2544  -17.9515 H   0  0  0  0  0  0  0  0  0  0  0  0
  -26.2162    5.0306  -17.7620 H   0  0  0  0  0  0  0  0  0  0  0  0
  -28.7450    3.4157  -17.1134 H   0  0  0  0  0  0  0  0  0  0  0  0
  -27.5806    4.0721  -15.9134 H   0  0  0  0  0  0  0  0  0  0  0  0
  -28.1919    6.3908  -16.9100 H   0  0  0  0  0  0  0  0  0  0  0  0
  -32.1447    6.3060  -15.4089 H   0  0  0  0  0  0  0  0  0  0  0  0
  -33.3111    8.4906  -15.4421 H   0  0  0  0  0  0  0  0  0  0  0  0
  -30.7564    9.8167  -18.6566 H   0  0  0  0  0  0  0  0  0  0  0  0
  -29.5706    7.6428  -18.6185 H   0  0  0  0  0  0  0  0  0  0  0  0
  -33.1388   10.9049  -16.2030 H   0  0  0  0  0  0  0  0  0  0  0  0
  -34.6273   12.4418  -18.3966 H   0  0  0  0  0  0  0  0  0  0  0  0
  -32.9674   12.7885  -20.3196 H   0  0  0  0  0  0  0  0  0  0  0  0
  -33.5062   14.2948  -19.5101 H   0  0  0  0  0  0  0  0  0  0  0  0
  -30.8567   14.0396  -19.8894 H   0  0  0  0  0  0  0  0  0  0  0  0
  -29.9311   13.9100  -17.7595 H   0  0  0  0  0  0  0  0  0  0  0  0
  -31.4887   13.8346  -15.8150 H   0  0  0  0  0  0  0  0  0  0  0  0
  -31.4563   12.1463  -16.4178 H   0  0  0  0  0  0  0  0  0  0  0  0
  -33.5793   14.2916  -16.9683 H   0  0  0  0  0  0  0  0  0  0  0  0
  1  2  1  0  0  0  0
  1 27  1  0  0  0  0
  1 28  1  0  0  0  0
  1 29  1  0  0  0  0
  2  3  1  0  0  0  0
  2  4  1  0  0  0  0
  2 30  1  0  0  0  0
  3 31  1  0  0  0  0
  3 32  1  0  0  0  0
  3 33  1  0  0  0  0
  4  5  1  0  0  0  0
  4 34  1  0  0  0  0
  4 35  1  0  0  0  0
  5  6  1  0  0  0  0
  5 36  1  0  0  0  0
  5 37  1  0  0  0  0
  6  7  1  0  0  0  0
  6 38  1  0  0  0  0
  7  8  2  0  0  0  0
  7  9  1  0  0  0  0
  9 14  2  0  0  0  0
  9 10  1  0  0  0  0
 10 11  2  0  0  0  0
 10 39  1  0  0  0  0
 11 12  1  0  0  0  0
 11 40  1  0  0  0  0
 12 13  2  0  0  0  0
 12 15  1  0  0  0  0
 13 14  1  0  0  0  0
 13 41  1  0  0  0  0
 14 42  1  0  0  0  0
 15 16  1  0  0  0  0
 15 43  1  0  0  0  0
 16 17  2  0  0  0  0
 16 18  1  0  0  0  0
 18 23  1  0  0  0  0
 18 19  1  0  0  0  0
 18 44  1  0  0  0  0
 19 20  1  0  0  0  0
 19 45  1  0  0  0  0
 19 46  1  0  0  0  0
 20 21  2  0  0  0  0
 20 47  1  0  0  0  0
 21 22  1  0  0  0  0
 21 48  1  0  0  0  0
 22 23  1  0  0  0  0
 22 49  1  0  0  0  0
 22 50  1  0  0  0  0
 23 24  1  0  0  0  0
 23 51  1  0  0  0  0
 24 25  2  0  0  0  0
 24 26  1  0  0  0  0
M  END
> <Name>
ZINC30521525

> <reference>
BDB4942

> <quality>
0.651

> <status>
decoy

> <atoms in reference ligand area>
10

> <score>
-19.3208

$$$$
ZINC20306534
      BALL 1.4.0 (Jan  4 2012, 23:22:29)

 33 33  0999  0  0  0  0  0  0999 V2000
  -32.4536   14.3889  -21.7291 C   0  0  0  0  0  0  0  0  0  0  0  0
  -32.1235   14.0052  -20.3682 O   0  0  0  0  0  0  0  0  0  0  0  0
  -31.7926   12.7162  -20.1594 C   0  0  0  0  0  0  0  0  0  0  0  0
  -30.7814   12.4404  -19.5454 O   0  0  0  0  0  0  0  0  0  0  0  0
  -32.6594   11.6378  -20.6772 C   0  0  0  0  0  0  0  0  0  0  0  0
  -33.9156   11.4144  -20.1100 C   0  0  0  0  0  0  0  0  0  0  0  0
  -34.7201   10.4061  -20.5988 C   0  0  0  0  0  0  0  0  0  0  0  0
  -34.2846    9.6169  -21.6487 C   0  0  0  0  0  0  0  0  0  0  0  0
  -33.0389    9.8294  -22.2119 C   0  0  0  0  0  0  0  0  0  0  0  0
  -32.2263   10.8377  -21.7364 C   0  0  0  0  0  0  0  0  0  0  0  0
  -35.1690    8.5168  -22.1770 C   0  0  0  0  0  0  0  0  0  0  0  0
  -34.3276    7.6671  -23.5410 S   0  0  0  0  0  0  0  0  0  0  0  0
  -35.6460    7.3655  -24.7499 C   0  0  0  0  0  0  0  0  0  0  0  0
  -35.0657    6.6441  -25.9680 C   0  0  0  0  0  0  0  0  0  0  0  0
  -35.5905    7.2835  -27.2277 C   0  0  0  0  0  0  0  0  0  0  0  0
  -36.2012    8.3244  -27.1676 O   0  0  0  0  0  0  0  0  0  0  0  0
  -35.3746    6.6998  -28.4170 O   0  5  0  0  0  0  0  0  0  0  0  0
  -35.4624    5.2301  -25.9346 N   0  3  0  0  0  0  0  0  0  0  0  0
  -33.4768   14.0294  -21.9129 H   0  0  0  0  0  0  0  0  0  0  0  0
  -31.7740   13.8238  -22.3839 H   0  0  0  0  0  0  0  0  0  0  0  0
  -32.3689   15.4729  -21.8961 H   0  0  0  0  0  0  0  0  0  0  0  0
  -34.2629   12.0411  -19.2753 H   0  0  0  0  0  0  0  0  0  0  0  0
  -35.7100   10.2290  -20.1529 H   0  0  0  0  0  0  0  0  0  0  0  0
  -32.6955    9.1928  -23.0407 H   0  0  0  0  0  0  0  0  0  0  0  0
  -31.2396   11.0109  -22.1907 H   0  0  0  0  0  0  0  0  0  0  0  0
  -35.3800    7.7973  -21.3722 H   0  0  0  0  0  0  0  0  0  0  0  0
  -36.1135    8.9471  -22.5412 H   0  0  0  0  0  0  0  0  0  0  0  0
  -36.4274    6.7409  -24.2924 H   0  0  0  0  0  0  0  0  0  0  0  0
  -36.0817    8.3249  -25.0660 H   0  0  0  0  0  0  0  0  0  0  0  0
  -33.9683    6.7175  -25.9494 H   0  0  0  0  0  0  0  0  0  0  0  0
  -34.9691    4.7521  -25.1671 H   0  0  0  0  0  0  0  0  0  0  0  0
  -35.2188    4.7829  -26.8299 H   0  0  0  0  0  0  0  0  0  0  0  0
  -36.4789    5.1615  -25.7833 H   0  0  0  0  0  0  0  0  0  0  0  0
  1  2  1  0  0  0  0
  1 19  1  0  0  0  0
  1 20  1  0  0  0  0
  1 21  1  0  0  0  0
  2  3  1  0  0  0  0
  3  4  2  0  0  0  0
  3  5  1  0  0  0  0
  5 10  2  0  0  0  0
  5  6  1  0  0  0  0
  6  7  2  0  0  0  0
  6 22  1  0  0  0  0
  7  8  1  0  0  0  0
  7 23  1  0  0  0  0
  8  9  2  0  0  0  0
  8 11  1  0  0  0  0
  9 10  1  0  0  0  0
  9 24  1  0  0  0  0
 10 25  1  0  0  0  0
 11 12  1  0  0  0  0
 11 26  1  0  0  0  0
 11 27  1  0  0  0  0
 12 13  1  0  0  0  0
 13 14  1  0  0  0  0
 13 28  1  0  0  0  0
 13 29  1  0  0  0  0
 14 15  1  0  0  0  0
 14 18  1  0  0  0  0
 14 30  1  0  0  0  0
 15 16  2  0  0  0  0
 15 17  1  0  0  0  0
 18 31  1  0  0  0  0
 18 32  1  0  0  0  0
 18 33  1  0  0  0  0
M  END
> <Name>
ZINC20306534

> <reference>
BDB5232

> <quality>
0.752

> <status>
decoy

> <atoms in reference ligand area>
11

> <score>
-19.1297

$$$$
ZINC22150898
      BALL 1.4.0 (Jan  4 2012, 23:22:29)

 43 44  0999  0  0  0  0  0  0999 V2000
  -29.5470   16.2421  -20.3525 C   0  0  0  0  0  0  0  0  0  0  0  0
  -29.8331   14.7393  -20.3307 C   0  0  0  0  0  0  0  0  0  0  0  0
  -29.0714   14.1116  -19.2426 N   0  3  0  0  0  0  0  0  0  0  0  0
  -27.6418   14.0413  -19.5730 C   0  0  0  0  0  0  0  0  0  0  0  0
  -26.8474   13.6600  -18.3223 C   0  0  0  0  0  0  0  0  0  0  0  0
  -29.2841   14.8209  -17.9738 C   0  0  0  0  0  0  0  0  0  0  0  0
  -29.9797   13.8893  -16.9793 C   0  0  0  0  0  0  0  0  0  0  0  0
  -31.3611   13.6593  -17.4096 N   0  0  0  0  0  0  0  0  0  0  0  0
  -32.1228   12.6948  -16.7910 C   0  0  0  0  0  0  0  0  0  0  0  0
  -33.1820   12.9347  -15.9737 N   0  5  0  0  0  0  0  0  0  0  0  0
  -33.6619   11.6968  -15.5670 C   0  0  0  0  0  0  0  0  0  0  0  0
  -32.8499   10.7440  -16.1728 C   0  0  0  0  0  0  0  0  0  0  0  0
  -31.9392   11.3945  -16.8988 N   0  0  0  0  0  0  0  0  0  0  0  0
  -33.1052    9.4027  -15.9375 N   0  0  0  0  0  0  0  0  0  0  0  0
  -34.1210    9.0408  -15.1312 C   0  0  0  0  0  0  0  0  0  0  0  0
  -34.3278    7.8592  -14.9317 O   0  0  0  0  0  0  0  0  0  0  0  0
  -34.9149    9.9535  -14.5454 N   0  0  0  0  0  0  0  0  0  0  0  0
  -34.7147   11.2738  -14.7367 C   0  0  0  0  0  0  0  0  0  0  0  0
  -35.4385   12.0912  -14.1953 O   0  0  0  0  0  0  0  0  0  0  0  0
  -36.0107    9.5078  -13.6810 C   0  0  0  0  0  0  0  0  0  0  0  0
  -32.2660    8.3773  -16.5626 C   0  0  0  0  0  0  0  0  0  0  0  0
  -29.6349   16.6183  -21.3824 H   0  0  0  0  0  0  0  0  0  0  0  0
  -28.5286   16.4280  -19.9806 H   0  0  0  0  0  0  0  0  0  0  0  0
  -30.2717   16.7633  -19.7099 H   0  0  0  0  0  0  0  0  0  0  0  0
  -30.9082   14.5729  -20.1684 H   0  0  0  0  0  0  0  0  0  0  0  0
  -29.5339   14.2940  -21.2911 H   0  0  0  0  0  0  0  0  0  0  0  0
  -29.4178   13.1483  -19.1286 H   0  0  0  0  0  0  0  0  0  0  0  0
  -27.3002   15.0208  -19.9389 H   0  0  0  0  0  0  0  0  0  0  0  0
  -27.4826   13.2824  -20.3533 H   0  0  0  0  0  0  0  0  0  0  0  0
  -26.1710   12.8248  -18.5566 H   0  0  0  0  0  0  0  0  0  0  0  0
  -27.5411   13.3563  -17.5244 H   0  0  0  0  0  0  0  0  0  0  0  0
  -26.2574   14.5246  -17.9842 H   0  0  0  0  0  0  0  0  0  0  0  0
  -28.3139   15.1365  -17.5629 H   0  0  0  0  0  0  0  0  0  0  0  0
  -29.9138   15.7058  -18.1483 H   0  0  0  0  0  0  0  0  0  0  0  0
  -29.4440   12.9294  -16.9395 H   0  0  0  0  0  0  0  0  0  0  0  0
  -29.9795   14.3511  -15.9809 H   0  0  0  0  0  0  0  0  0  0  0  0
  -31.7621   14.2198  -18.1751 H   0  0  0  0  0  0  0  0  0  0  0  0
  -36.2367    8.4809  -14.0041 H   0  0  0  0  0  0  0  0  0  0  0  0
  -36.8713   10.1353  -13.9558 H   0  0  0  0  0  0  0  0  0  0  0  0
  -35.7780    9.5657  -12.6075 H   0  0  0  0  0  0  0  0  0  0  0  0
  -31.2740    8.5019  -16.1039 H   0  0  0  0  0  0  0  0  0  0  0  0
  -32.1775    8.6838  -17.6153 H   0  0  0  0  0  0  0  0  0  0  0  0
  -32.6538    7.3536  -16.4540 H   0  0  0  0  0  0  0  0  0  0  0  0
  1  2  1  0  0  0  0
  1 22  1  0  0  0  0
  1 23  1  0  0  0  0
  1 24  1  0  0  0  0
  2  3  1  0  0  0  0
  2 25  1  0  0  0  0
  2 26  1  0  0  0  0
  3  4  1  0  0  0  0
  3  6  1  0  0  0  0
  3 27  1  0  0  0  0
  4  5  1  0  0  0  0
  4 28  1  0  0  0  0
  4 29  1  0  0  0  0
  5 30  1  0  0  0  0
  5 31  1  0  0  0  0
  5 32  1  0  0  0  0
  6  7  1  0  0  0  0
  6 33  1  0  0  0  0
  6 34  1  0  0  0  0
  7  8  1  0  0  0  0
  7 35  1  0  0  0  0
  7 36  1  0  0  0  0
  8  9  1  0  0  0  0
  8 37  1  0  0  0  0
  9 13  2  0  0  0  0
  9 10  1  0  0  0  0
 10 11  1  0  0  0  0
 11 18  1  0  0  0  0
 11 12  2  0  0  0  0
 12 13  1  0  0  0  0
 12 14  1  0  0  0  0
 14 15  1  0  0  0  0
 14 21  1  0  0  0  0
 15 16  2  0  0  0  0
 15 17  1  0  0  0  0
 17 18  1  0  0  0  0
 17 20  1  0  0  0  0
 18 19  2  0  0  0  0
 20 38  1  0  0  0  0
 20 39  1  0  0  0  0
 20 40  1  0  0  0  0
 21 41  1  0  0  0  0
 21 42  1  0  0  0  0
 21 43  1  0  0  0  0
M  END
> <Name>
ZINC22150898

> <reference>
BDB4995

> <quality>
0.793

> <status>
decoy

> <atoms in reference ligand area>
11

> <score>
-19.09

$$$$
ZINC20236263
      BALL 1.4.0 (Jan  4 2012, 23:22:29)

 41 41  0999  0  0  0  0  0  0999 V2000
  -37.3198    7.4510  -16.9102 C   0  0  0  0  0  0  0  0  0  0  0  0
  -36.2944    7.9172  -17.9457 C   0  0  0  0  0  0  0  0  0  0  0  0
  -35.1604    8.4724  -17.2766 O   0  0  0  0  0  0  0  0  0  0  0  0
  -34.4795    9.4541  -17.9263 C   0  0  0  0  0  0  0  0  0  0  0  0
  -33.5030   10.1787  -17.2591 C   0  0  0  0  0  0  0  0  0  0  0  0
  -32.8108   11.1756  -17.9184 C   0  0  0  0  0  0  0  0  0  0  0  0
  -33.0926   11.4522  -19.2496 C   0  0  0  0  0  0  0  0  0  0  0  0
  -34.0703   10.7261  -19.9169 C   0  0  0  0  0  0  0  0  0  0  0  0
  -34.7615    9.7297  -19.2561 C   0  0  0  0  0  0  0  0  0  0  0  0
  -32.3920   12.4623  -19.9182 N   0  0  0  0  0  0  0  0  0  0  0  0
  -32.3606   13.8196  -19.3680 C   0  0  0  0  0  0  0  0  0  0  0  0
  -32.6134   14.8302  -20.4886 C   0  0  0  0  0  0  0  0  0  0  0  0
  -32.8200   16.1637  -19.9080 N   0  3  0  0  0  0  0  0  0  0  0  0
  -31.5984   12.1233  -21.3317 S   0  0  0  0  0  0  0  0  0  0  0  0
  -32.0029   10.8181  -21.7217 O   0  0  0  0  0  0  0  0  0  0  0  0
  -31.7659   13.2560  -22.1732 O   0  0  0  0  0  0  0  0  0  0  0  0
  -29.9835   12.0320  -20.9768 N   0  0  0  0  0  0  0  0  0  0  0  0
  -29.5340   12.1076  -19.5846 C   0  0  0  0  0  0  0  0  0  0  0  0
  -29.0042   11.8758  -22.0553 C   0  0  0  0  0  0  0  0  0  0  0  0
  -37.8861    6.5978  -17.3119 H   0  0  0  0  0  0  0  0  0  0  0  0
  -38.0121    8.2747  -16.6816 H   0  0  0  0  0  0  0  0  0  0  0  0
  -36.8000    7.1444  -15.9906 H   0  0  0  0  0  0  0  0  0  0  0  0
  -35.9755    7.0606  -18.5575 H   0  0  0  0  0  0  0  0  0  0  0  0
  -36.7476    8.6820  -18.5936 H   0  0  0  0  0  0  0  0  0  0  0  0
  -33.2799    9.9595  -16.2044 H   0  0  0  0  0  0  0  0  0  0  0  0
  -32.0365   11.7502  -17.3891 H   0  0  0  0  0  0  0  0  0  0  0  0
  -34.2941   10.9445  -20.9715 H   0  0  0  0  0  0  0  0  0  0  0  0
  -35.5359    9.1544  -19.7846 H   0  0  0  0  0  0  0  0  0  0  0  0
  -33.1411   13.9221  -18.5996 H   0  0  0  0  0  0  0  0  0  0  0  0
  -31.3754   14.0113  -18.9177 H   0  0  0  0  0  0  0  0  0  0  0  0
  -33.5089   14.5350  -21.0550 H   0  0  0  0  0  0  0  0  0  0  0  0
  -31.7447   14.8551  -21.1629 H   0  0  0  0  0  0  0  0  0  0  0  0
  -31.9508   16.7110  -19.9845 H   0  0  0  0  0  0  0  0  0  0  0  0
  -33.0802   16.0706  -18.9157 H   0  0  0  0  0  0  0  0  0  0  0  0
  -33.5746   16.6468  -20.4159 H   0  0  0  0  0  0  0  0  0  0  0  0
  -29.1266   13.1242  -19.4819 H   0  0  0  0  0  0  0  0  0  0  0  0
  -28.6759   11.4212  -19.5350 H   0  0  0  0  0  0  0  0  0  0  0  0
  -30.3054   11.8800  -18.8341 H   0  0  0  0  0  0  0  0  0  0  0  0
  -28.9376   12.8738  -22.5131 H   0  0  0  0  0  0  0  0  0  0  0  0
  -29.5053   11.2282  -22.7899 H   0  0  0  0  0  0  0  0  0  0  0  0
  -28.0251   11.4852  -21.7410 H   0  0  0  0  0  0  0  0  0  0  0  0
  1  2  1  0  0  0  0
  1 20  1  0  0  0  0
  1 21  1  0  0  0  0
  1 22  1  0  0  0  0
  2  3  1  0  0  0  0
  2 23  1  0  0  0  0
  2 24  1  0  0  0  0
  3  4  1  0  0  0  0
  4  9  2  0  0  0  0
  4  5  1  0  0  0  0
  5  6  2  0  0  0  0
  5 25  1  0  0  0  0
  6  7  1  0  0  0  0
  6 26  1  0  0  0  0
  7  8  2  0  0  0  0
  7 10  1  0  0  0  0
  8  9  1  0  0  0  0
  8 27  1  0  0  0  0
  9 28  1  0  0  0  0
 10 11  1  0  0  0  0
 10 14  1  0  0  0  0
 11 12  1  0  0  0  0
 11 29  1  0  0  0  0
 11 30  1  0  0  0  0
 12 13  1  0  0  0  0
 12 31  1  0  0  0  0
 12 32  1  0  0  0  0
 13 33  1  0  0  0  0
 13 34  1  0  0  0  0
 13 35  1  0  0  0  0
 14 15  2  0  0  0  0
 14 16  2  0  0  0  0
 14 17  1  0  0  0  0
 17 18  1  0  0  0  0
 17 19  1  0  0  0  0
 18 36  1  0  0  0  0
 18 37  1  0  0  0  0
 18 38  1  0  0  0  0
 19 39  1  0  0  0  0
 19 40  1  0  0  0  0
 19 41  1  0  0  0  0
M  END
> <Name>
ZINC20236263

> <reference>
BDB5195

> <quality>
0.791

> <status>
decoy

> <atoms in reference ligand area>
21

> <score>
-19.0163

$$$$
ZINC19483528
      BALL 1.4.0 (Jan  4 2012, 23:22:29)

 35 35  0999  0  0  0  0  0  0999 V2000
  -32.8352   14.0606  -21.3454 C   0  0  0  0  0  0  0  0  0  0  0  0
  -32.2885   13.1159  -20.4231 O   0  0  0  0  0  0  0  0  0  0  0  0
  -32.9673   11.9489  -20.2595 C   0  0  0  0  0  0  0  0  0  0  0  0
  -33.3522   11.2086  -21.3658 C   0  0  0  0  0  0  0  0  0  0  0  0
  -34.0377   10.0199  -21.1975 C   0  0  0  0  0  0  0  0  0  0  0  0
  -34.3506    9.5726  -19.9273 C   0  0  0  0  0  0  0  0  0  0  0  0
  -33.9695   10.3064  -18.8194 C   0  0  0  0  0  0  0  0  0  0  0  0
  -33.2773   11.4958  -18.9808 C   0  0  0  0  0  0  0  0  0  0  0  0
  -32.9019   12.2190  -17.8920 O   0  0  0  0  0  0  0  0  0  0  0  0
  -33.5769   13.4593  -17.6729 C   0  0  0  0  0  0  0  0  0  0  0  0
  -35.1033    8.2792  -19.7498 C   0  0  0  0  0  0  0  0  0  0  0  0
  -36.3171    8.4643  -18.4145 S   0  0  0  0  0  0  0  0  0  0  0  0
  -37.3278    6.9623  -18.5288 C   0  0  0  0  0  0  0  0  0  0  0  0
  -38.7481    7.2655  -18.0476 C   0  0  0  0  0  0  0  0  0  0  0  0
  -39.5877    6.0176  -18.1426 C   0  0  0  0  0  0  0  0  0  0  0  0
  -39.1001    4.9911  -18.5531 O   0  0  0  0  0  0  0  0  0  0  0  0
  -40.8773    6.0465  -17.7712 O   0  5  0  0  0  0  0  0  0  0  0  0
  -38.7053    7.7219  -16.6520 N   0  3  0  0  0  0  0  0  0  0  0  0
  -33.8163   13.6655  -21.6477 H   0  0  0  0  0  0  0  0  0  0  0  0
  -32.1791   14.0463  -22.2281 H   0  0  0  0  0  0  0  0  0  0  0  0
  -32.9193   15.0714  -20.9195 H   0  0  0  0  0  0  0  0  0  0  0  0
  -33.1124   11.5667  -22.3778 H   0  0  0  0  0  0  0  0  0  0  0  0
  -34.3349    9.4286  -22.0762 H   0  0  0  0  0  0  0  0  0  0  0  0
  -34.2157    9.9460  -17.8097 H   0  0  0  0  0  0  0  0  0  0  0  0
  -32.8287   14.2504  -17.8291 H   0  0  0  0  0  0  0  0  0  0  0  0
  -33.8644   13.4717  -16.6112 H   0  0  0  0  0  0  0  0  0  0  0  0
  -34.4490   13.5911  -18.3302 H   0  0  0  0  0  0  0  0  0  0  0  0
  -35.6240    8.0265  -20.6853 H   0  0  0  0  0  0  0  0  0  0  0  0
  -34.3977    7.4750  -19.4940 H   0  0  0  0  0  0  0  0  0  0  0  0
  -37.3604    6.6208  -19.5739 H   0  0  0  0  0  0  0  0  0  0  0  0
  -36.8884    6.1746  -17.8991 H   0  0  0  0  0  0  0  0  0  0  0  0
  -39.1884    8.0526  -18.6774 H   0  0  0  0  0  0  0  0  0  0  0  0
  -38.1458    7.0635  -16.0914 H   0  0  0  0  0  0  0  0  0  0  0  0
  -39.6627    7.7657  -16.2746 H   0  0  0  0  0  0  0  0  0  0  0  0
  -38.2774    8.6577  -16.6091 H   0  0  0  0  0  0  0  0  0  0  0  0
  1  2  1  0  0  0  0
  1 19  1  0  0  0  0
  1 20  1  0  0  0  0
  1 21  1  0  0  0  0
  2  3  1  0  0  0  0
  3  8  2  0  0  0  0
  3  4  1  0  0  0  0
  4  5  2  0  0  0  0
  4 22  1  0  0  0  0
  5  6  1  0  0  0  0
  5 23  1  0  0  0  0
  6  7  2  0  0  0  0
  6 11  1  0  0  0  0
  7  8  1  0  0  0  0
  7 24  1  0  0  0  0
  8  9  1  0  0  0  0
  9 10  1  0  0  0  0
 10 25  1  0  0  0  0
 10 26  1  0  0  0  0
 10 27  1  0  0  0  0
 11 12  1  0  0  0  0
 11 28  1  0  0  0  0
 11 29  1  0  0  0  0
 12 13  1  0  0  0  0
 13 14  1  0  0  0  0
 13 30  1  0  0  0  0
 13 31  1  0  0  0  0
 14 15  1  0  0  0  0
 14 18  1  0  0  0  0
 14 32  1  0  0  0  0
 15 16  2  0  0  0  0
 15 17  1  0  0  0  0
 18 33  1  0  0  0  0
 18 34  1  0  0  0  0
 18 35  1  0  0  0  0
M  END
> <Name>
ZINC19483528

> <reference>
BDB5195

> <quality>
0.758

> <status>
decoy

> <atoms in reference ligand area>
12

> <score>
-18.9733

$$$$
ZINC02861235
      BALL 1.4.0 (Jan  4 2012, 23:22:29)

 53 54  0999  0  0  0  0  0  0999 V2000
  -33.0206   14.8905  -21.7331 C   0  0  0  0  0  0  0  0  0  0  0  0
  -33.3431   13.8492  -20.6594 C   0  0  0  0  0  0  0  0  0  0  0  0
  -33.3301   12.4523  -21.2833 C   0  0  0  0  0  0  0  0  0  0  0  0
  -32.3424   11.6496  -20.6338 O   0  0  0  0  0  0  0  0  0  0  0  0
  -32.5958   11.2771  -19.3516 C   0  0  0  0  0  0  0  0  0  0  0  0
  -31.6347   11.4686  -18.3695 C   0  0  0  0  0  0  0  0  0  0  0  0
  -31.8946   11.0886  -17.0671 C   0  0  0  0  0  0  0  0  0  0  0  0
  -33.1111   10.5174  -16.7419 C   0  0  0  0  0  0  0  0  0  0  0  0
  -34.0684   10.3204  -17.7199 C   0  0  0  0  0  0  0  0  0  0  0  0
  -33.8158   10.7043  -19.0226 C   0  0  0  0  0  0  0  0  0  0  0  0
  -33.3917   10.1034  -15.3203 C   0  0  0  0  0  0  0  0  0  0  0  0
  -32.8335    8.6996  -15.0783 C   0  0  0  0  0  0  0  0  0  0  0  0
  -31.4250    8.6022  -15.6678 C   0  0  0  0  0  0  0  0  0  0  0  0
  -29.7681    6.8452  -15.8419 C   0  0  0  0  0  0  0  0  0  0  0  0
  -29.0815    6.5141  -17.1684 C   0  0  0  0  0  0  0  0  0  0  0  0
  -27.6013    6.7687  -17.0453 C   0  0  0  0  0  0  0  0  0  0  0  0
  -27.2014    7.7033  -16.3922 O   0  0  0  0  0  0  0  0  0  0  0  0
  -29.7256    5.6390  -14.9395 C   0  0  0  0  0  0  0  0  0  0  0  0
  -30.7519    4.7136  -14.9739 C   0  0  0  0  0  0  0  0  0  0  0  0
  -30.7128    3.6070  -14.1465 C   0  0  0  0  0  0  0  0  0  0  0  0
  -29.6470    3.4255  -13.2849 C   0  0  0  0  0  0  0  0  0  0  0  0
  -28.6208    4.3509  -13.2505 C   0  0  0  0  0  0  0  0  0  0  0  0
  -28.6598    5.4575  -14.0780 C   0  0  0  0  0  0  0  0  0  0  0  0
  -34.8027   10.1003  -15.0948 O   0  0  0  0  0  0  0  0  0  0  0  0
  -31.1743    7.2123  -16.0938 N   0  3  0  0  0  0  0  0  0  0  0  0
  -26.7272    5.9572  -17.6611 O   0  5  0  0  0  0  0  0  0  0  0  0
  -31.9336   14.9228  -21.8993 H   0  0  0  0  0  0  0  0  0  0  0  0
  -33.3699   15.8798  -21.4027 H   0  0  0  0  0  0  0  0  0  0  0  0
  -33.5259   14.6190  -22.6717 H   0  0  0  0  0  0  0  0  0  0  0  0
  -32.5885   13.9004  -19.8605 H   0  0  0  0  0  0  0  0  0  0  0  0
  -34.3384   14.0523  -20.2373 H   0  0  0  0  0  0  0  0  0  0  0  0
  -34.3190   11.9866  -21.1604 H   0  0  0  0  0  0  0  0  0  0  0  0
  -33.0920   12.5302  -22.3544 H   0  0  0  0  0  0  0  0  0  0  0  0
  -30.6667   11.9226  -18.6278 H   0  0  0  0  0  0  0  0  0  0  0  0
  -31.1331   11.2406  -16.2880 H   0  0  0  0  0  0  0  0  0  0  0  0
  -35.0318    9.8575  -17.4603 H   0  0  0  0  0  0  0  0  0  0  0  0
  -34.5813   10.5559  -19.7985 H   0  0  0  0  0  0  0  0  0  0  0  0
  -32.9116   10.8130  -14.6302 H   0  0  0  0  0  0  0  0  0  0  0  0
  -32.7921    8.5027  -13.9969 H   0  0  0  0  0  0  0  0  0  0  0  0
  -33.4847    7.9565  -15.5617 H   0  0  0  0  0  0  0  0  0  0  0  0
  -30.6858    8.8914  -14.9062 H   0  0  0  0  0  0  0  0  0  0  0  0
  -31.3427    9.2727  -16.5359 H   0  0  0  0  0  0  0  0  0  0  0  0
  -29.2464    7.6859  -15.3612 H   0  0  0  0  0  0  0  0  0  0  0  0
  -29.2517    5.4558  -17.4154 H   0  0  0  0  0  0  0  0  0  0  0  0
  -29.4968    7.1480  -17.9658 H   0  0  0  0  0  0  0  0  0  0  0  0
  -31.5998    4.8578  -15.6598 H   0  0  0  0  0  0  0  0  0  0  0  0
  -31.5297    2.8708  -14.1736 H   0  0  0  0  0  0  0  0  0  0  0  0
  -29.6157    2.5447  -12.6268 H   0  0  0  0  0  0  0  0  0  0  0  0
  -27.7729    4.2068  -12.5646 H   0  0  0  0  0  0  0  0  0  0  0  0
  -27.8429    6.1937  -14.0510 H   0  0  0  0  0  0  0  0  0  0  0  0
  -35.2618   10.5214  -15.8642 H   0  0  0  0  0  0  0  0  0  0  0  0
  -31.7918    6.5774  -15.5681 H   0  0  0  0  0  0  0  0  0  0  0  0
  -31.3752    7.1212  -17.1000 H   0  0  0  0  0  0  0  0  0  0  0  0
  1  2  1  0  0  0  0
  1 27  1  0  0  0  0
  1 28  1  0  0  0  0
  1 29  1  0  0  0  0
  2  3  1  0  0  0  0
  2 30  1  0  0  0  0
  2 31  1  0  0  0  0
  3  4  1  0  0  0  0
  3 32  1  0  0  0  0
  3 33  1  0  0  0  0
  4  5  1  0  0  0  0
  5 10  2  0  0  0  0
  5  6  1  0  0  0  0
  6  7  2  0  0  0  0
  6 34  1  0  0  0  0
  7  8  1  0  0  0  0
  7 35  1  0  0  0  0
  8  9  2  0  0  0  0
  8 11  1  0  0  0  0
  9 10  1  0  0  0  0
  9 36  1  0  0  0  0
 10 37  1  0  0  0  0
 11 12  1  0  0  0  0
 11 24  1  0  0  0  0
 11 38  1  0  0  0  0
 12 13  1  0  0  0  0
 12 39  1  0  0  0  0
 12 40  1  0  0  0  0
 13 25  1  0  0  0  0
 13 41  1  0  0  0  0
 13 42  1  0  0  0  0
 14 15  1  0  0  0  0
 14 18  1  0  0  0  0
 14 25  1  0  0  0  0
 14 43  1  0  0  0  0
 15 16  1  0  0  0  0
 15 44  1  0  0  0  0
 15 45  1  0  0  0  0
 16 17  2  0  0  0  0
 16 26  1  0  0  0  0
 18 23  2  0  0  0  0
 18 19  1  0  0  0  0
 19 20  2  0  0  0  0
 19 46  1  0  0  0  0
 20 21  1  0  0  0  0
 20 47  1  0  0  0  0
 21 22  2  0  0  0  0
 21 48  1  0  0  0  0
 22 23  1  0  0  0  0
 22 49  1  0  0  0  0
 23 50  1  0  0  0  0
 24 51  1  0  0  0  0
 25 52  1  0  0  0  0
 25 53  1  0  0  0  0
M  END
> <Name>
ZINC02861235

> <reference>
BDB4997

> <quality>
0.669

> <status>
decoy

> <atoms in reference ligand area>
13

> <score>
-18.665

$$$$
ZINC19844186
      BALL 1.4.0 (Jan  4 2012, 23:22:29)

 42 43  0999  0  0  0  0  0  0999 V2000
  -36.5816   10.3264  -13.4419 C   0  0  0  0  0  0  0  0  0  0  0  0
  -35.9078    9.1249  -13.0619 O   0  0  0  0  0  0  0  0  0  0  0  0
  -35.0504    8.5854  -13.9679 C   0  0  0  0  0  0  0  0  0  0  0  0
  -34.5180    7.3216  -13.7532 C   0  0  0  0  0  0  0  0  0  0  0  0
  -33.6507    6.7693  -14.6763 C   0  0  0  0  0  0  0  0  0  0  0  0
  -33.3016    7.4774  -15.8100 C   0  0  0  0  0  0  0  0  0  0  0  0
  -33.8269    8.7451  -16.0274 C   0  0  0  0  0  0  0  0  0  0  0  0
  -34.7029    9.2991  -15.1038 C   0  0  0  0  0  0  0  0  0  0  0  0
  -33.4738    9.4614  -17.1733 N   0  0  0  0  0  0  0  0  0  0  0  0
  -32.7329   10.6809  -16.8245 C   0  0  0  0  0  0  0  0  0  0  0  0
  -32.2094   11.3403  -18.1048 C   0  0  0  0  0  0  0  0  0  0  0  0
  -33.3405   11.5411  -19.0231 N   0  0  0  0  0  0  0  0  0  0  0  0
  -34.2130   10.3934  -19.3139 C   0  0  0  0  0  0  0  0  0  0  0  0
  -34.6578    9.7713  -17.9859 C   0  0  0  0  0  0  0  0  0  0  0  0
  -33.6246   13.0206  -19.7110 S   0  0  0  0  0  0  0  0  0  0  0  0
  -34.7192   12.8068  -20.5914 O   0  0  0  0  0  0  0  0  0  0  0  0
  -33.7421   13.9145  -18.6126 O   0  0  0  0  0  0  0  0  0  0  0  0
  -32.1229   13.3899  -20.6592 C   0  0  0  0  0  0  0  0  0  0  0  0
  -32.1666   14.8423  -21.1382 C   0  0  0  0  0  0  0  0  0  0  0  0
  -33.0197   14.9393  -22.3301 N   0  3  0  0  0  0  0  0  0  0  0  0
  -36.9629   10.7744  -12.5125 H   0  0  0  0  0  0  0  0  0  0  0  0
  -37.4466   10.0177  -14.0473 H   0  0  0  0  0  0  0  0  0  0  0  0
  -35.9313   11.0236  -13.9905 H   0  0  0  0  0  0  0  0  0  0  0  0
  -34.7868    6.7590  -12.8470 H   0  0  0  0  0  0  0  0  0  0  0  0
  -33.2374    5.7638  -14.5082 H   0  0  0  0  0  0  0  0  0  0  0  0
  -32.6074    7.0373  -16.5409 H   0  0  0  0  0  0  0  0  0  0  0  0
  -35.1203   10.3026  -15.2733 H   0  0  0  0  0  0  0  0  0  0  0  0
  -31.8854   10.4229  -16.1725 H   0  0  0  0  0  0  0  0  0  0  0  0
  -33.4015   11.3792  -16.2996 H   0  0  0  0  0  0  0  0  0  0  0  0
  -31.7559   12.3122  -17.8603 H   0  0  0  0  0  0  0  0  0  0  0  0
  -31.4617   10.6869  -18.5784 H   0  0  0  0  0  0  0  0  0  0  0  0
  -35.0958   10.7334  -19.8752 H   0  0  0  0  0  0  0  0  0  0  0  0
  -33.6595    9.6473  -19.9027 H   0  0  0  0  0  0  0  0  0  0  0  0
  -35.2193    8.8464  -18.1844 H   0  0  0  0  0  0  0  0  0  0  0  0
  -35.2996   10.4824  -17.4451 H   0  0  0  0  0  0  0  0  0  0  0  0
  -31.2399   13.2414  -20.0202 H   0  0  0  0  0  0  0  0  0  0  0  0
  -32.0631   12.7193  -21.5291 H   0  0  0  0  0  0  0  0  0  0  0  0
  -31.1492   15.1779  -21.3881 H   0  0  0  0  0  0  0  0  0  0  0  0
  -32.5774   15.4792  -20.3410 H   0  0  0  0  0  0  0  0  0  0  0  0
  -32.7959   15.8032  -22.8444 H   0  0  0  0  0  0  0  0  0  0  0  0
  -34.0093   14.9569  -22.0448 H   0  0  0  0  0  0  0  0  0  0  0  0
  -32.8536   14.1256  -22.9393 H   0  0  0  0  0  0  0  0  0  0  0  0
  1  2  1  0  0  0  0
  1 21  1  0  0  0  0
  1 22  1  0  0  0  0
  1 23  1  0  0  0  0
  2  3  1  0  0  0  0
  3  8  2  0  0  0  0
  3  4  1  0  0  0  0
  4  5  2  0  0  0  0
  4 24  1  0  0  0  0
  5  6  1  0  0  0  0
  5 25  1  0  0  0  0
  6  7  2  0  0  0  0
  6 26  1  0  0  0  0
  7  8  1  0  0  0  0
  7  9  1  0  0  0  0
  8 27  1  0  0  0  0
  9 14  1  0  0  0  0
  9 10  1  0  0  0  0
 10 11  1  0  0  0  0
 10 28  1  0  0  0  0
 10 29  1  0  0  0  0
 11 12  1  0  0  0  0
 11 30  1  0  0  0  0
 11 31  1  0  0  0  0
 12 13  1  0  0  0  0
 12 15  1  0  0  0  0
 13 14  1  0  0  0  0
 13 32  1  0  0  0  0
 13 33  1  0  0  0  0
 14 34  1  0  0  0  0
 14 35  1  0  0  0  0
 15 16  2  0  0  0  0
 15 17  2  0  0  0  0
 15 18  1  0  0  0  0
 18 19  1  0  0  0  0
 18 36  1  0  0  0  0
 18 37  1  0  0  0  0
 19 20  1  0  0  0  0
 19 38  1  0  0  0  0
 19 39  1  0  0  0  0
 20 40  1  0  0  0  0
 20 41  1  0  0  0  0
 20 42  1  0  0  0  0
M  END
> <Name>
ZINC19844186

> <reference>
BDB5233

> <quality>
0.730

> <status>
decoy

> <atoms in reference ligand area>
11

> <score>
-18.4931

$$$$
ZINC13165761
      BALL 1.4.0 (Jan  4 2012, 23:22:29)

 37 37  0999  0  0  0  0  0  0999 V2000
  -31.1731   13.6289  -17.4427 C   0  0  0  0  0  0  0  0  0  0  0  0
  -32.1326   13.5377  -18.6310 C   0  0  0  0  0  0  0  0  0  0  0  0
  -33.2565   12.5521  -18.3046 C   0  0  0  0  0  0  0  0  0  0  0  0
  -33.9859   12.1656  -19.5928 C   0  0  0  0  0  0  0  0  0  0  0  0
  -32.6889   11.3516  -17.6859 N   0  0  0  0  0  0  0  0  0  0  0  0
  -31.9390   10.5128  -18.4346 C   0  0  0  0  0  0  0  0  0  0  0  0
  -31.7221   10.7346  -19.6065 O   0  0  0  0  0  0  0  0  0  0  0  0
  -31.3749    9.2848  -17.7443 C   0  5  0  0  0  0  0  0  0  0  0  0
  -31.7142    9.1261  -16.2749 C   0  0  0  0  0  0  0  0  0  0  0  0
  -31.3083    8.1745  -15.6370 O   0  0  0  0  0  0  0  0  0  0  0  0
  -32.4718   10.0626  -15.7052 N   0  0  0  0  0  0  0  0  0  0  0  0
  -32.9276   11.1041  -16.3666 C   0  0  0  0  0  0  0  0  0  0  0  0
  -33.8903   12.2303  -15.5089 S   0  5  0  0  0  0  0  0  0  0  0  0
  -31.8787    8.0650  -18.4719 C   0  0  0  0  0  0  0  0  0  0  0  0
  -31.5003    6.2710  -20.0844 C   0  0  0  0  0  0  0  0  0  0  0  0
  -30.3958    5.8893  -21.0720 C   0  0  0  0  0  0  0  0  0  0  0  0
  -29.1675    5.4029  -20.3003 C   0  0  0  0  0  0  0  0  0  0  0  0
  -27.9837    5.9048  -20.9238 O   0  0  0  0  0  0  0  0  0  0  0  0
  -31.0603    7.4917  -19.3252 N   0  3  0  0  0  0  0  0  0  0  0  0
  -30.1373   13.6792  -17.8094 H   0  0  0  0  0  0  0  0  0  0  0  0
  -31.2928   12.7410  -16.8045 H   0  0  0  0  0  0  0  0  0  0  0  0
  -31.3980   14.5328  -16.8575 H   0  0  0  0  0  0  0  0  0  0  0  0
  -31.5859   13.1881  -19.5192 H   0  0  0  0  0  0  0  0  0  0  0  0
  -32.5628   14.5300  -18.8321 H   0  0  0  0  0  0  0  0  0  0  0  0
  -33.9661   13.0228  -17.6083 H   0  0  0  0  0  0  0  0  0  0  0  0
  -33.4239   12.5414  -20.4605 H   0  0  0  0  0  0  0  0  0  0  0  0
  -34.9939   12.6059  -19.5910 H   0  0  0  0  0  0  0  0  0  0  0  0
  -34.0656   11.0703  -19.6554 H   0  0  0  0  0  0  0  0  0  0  0  0
  -32.8904    7.6707  -18.2958 H   0  0  0  0  0  0  0  0  0  0  0  0
  -31.6714    5.4420  -19.3820 H   0  0  0  0  0  0  0  0  0  0  0  0
  -32.4267    6.4931  -20.6345 H   0  0  0  0  0  0  0  0  0  0  0  0
  -30.7553    5.0860  -21.7319 H   0  0  0  0  0  0  0  0  0  0  0  0
  -30.1239    6.7668  -21.6771 H   0  0  0  0  0  0  0  0  0  0  0  0
  -29.2178    5.7671  -19.2636 H   0  0  0  0  0  0  0  0  0  0  0  0
  -29.1438    4.3032  -20.3020 H   0  0  0  0  0  0  0  0  0  0  0  0
  -27.8374    6.8443  -20.6482 H   0  0  0  0  0  0  0  0  0  0  0  0
  -30.1174    7.8785  -19.4738 H   0  0  0  0  0  0  0  0  0  0  0  0
  1  2  1  0  0  0  0
  1 20  1  0  0  0  0
  1 21  1  0  0  0  0
  1 22  1  0  0  0  0
  2  3  1  0  0  0  0
  2 23  1  0  0  0  0
  2 24  1  0  0  0  0
  3  4  1  0  0  0  0
  3  5  1  0  0  0  0
  3 25  1  0  0  0  0
  4 26  1  0  0  0  0
  4 27  1  0  0  0  0
  4 28  1  0  0  0  0
  5 12  1  0  0  0  0
  5  6  1  0  0  0  0
  6  7  2  0  0  0  0
  6  8  1  0  0  0  0
  8  9  1  0  0  0  0
  8 14  1  0  0  0  0
  9 10  2  0  0  0  0
  9 11  1  0  0  0  0
 11 12  2  0  0  0  0
 12 13  1  0  0  0  0
 14 19  2  0  0  0  0
 14 29  1  0  0  0  0
 15 16  1  0  0  0  0
 15 19  1  0  0  0  0
 15 30  1  0  0  0  0
 15 31  1  0  0  0  0
 16 17  1  0  0  0  0
 16 32  1  0  0  0  0
 16 33  1  0  0  0  0
 17 18  1  0  0  0  0
 17 34  1  0  0  0  0
 17 35  1  0  0  0  0
 18 36  1  0  0  0  0
 19 37  1  0  0  0  0
M  END
> <Name>
ZINC13165761

> <reference>
BDB5234

> <quality>
0.789

> <status>
decoy

> <atoms in reference ligand area>
12

> <score>
-18.3933

$$$$
ZINC03121134
      BALL 1.4.0 (Jan  4 2012, 23:22:29)

 30 30  0999  0  0  0  0  0  0999 V2000
  -34.3378   11.8547  -20.4447 C   0  0  0  0  0  0  0  0  0  0  0  0
  -33.0752   11.1406  -20.3816 O   0  0  0  0  0  0  0  0  0  0  0  0
  -32.9815   10.1427  -19.4826 C   0  0  0  0  0  0  0  0  0  0  0  0
  -32.7473    9.0099  -19.8545 O   0  0  0  0  0  0  0  0  0  0  0  0
  -33.1474   10.4004  -18.1701 N   0  5  0  0  0  0  0  0  0  0  0  0
  -31.8553   10.8031  -17.2438 P   0  0  0  0  0  0  0  0  0  0  0  0
  -31.8402    9.9623  -16.0260 O   0  0  0  0  0  0  0  0  0  0  0  0
  -30.4388   10.5512  -18.1170 N   0  0  0  0  0  0  0  0  0  0  0  0
  -29.6301   11.6510  -18.0660 N   0  0  0  0  0  0  0  0  0  0  0  0
  -29.9356   12.7785  -18.8315 C   0  0  0  0  0  0  0  0  0  0  0  0
  -31.2450   13.0153  -19.2304 C   0  0  0  0  0  0  0  0  0  0  0  0
  -31.5437   14.1314  -19.9869 C   0  0  0  0  0  0  0  0  0  0  0  0
  -30.5409   15.0128  -20.3474 C   0  0  0  0  0  0  0  0  0  0  0  0
  -29.2364   14.7802  -19.9520 C   0  0  0  0  0  0  0  0  0  0  0  0
  -28.9309   13.6659  -19.1954 C   0  0  0  0  0  0  0  0  0  0  0  0
  -31.9585   12.3539  -16.8241 O   0  0  0  0  0  0  0  0  0  0  0  0
  -33.0981   12.9072  -16.1629 C   0  0  0  0  0  0  0  0  0  0  0  0
  -35.1208   11.1217  -20.2007 H   0  0  0  0  0  0  0  0  0  0  0  0
  -34.4715   12.1554  -21.4943 H   0  0  0  0  0  0  0  0  0  0  0  0
  -34.3688   12.7211  -19.7679 H   0  0  0  0  0  0  0  0  0  0  0  0
  -30.2117    9.6831  -18.6227 H   0  0  0  0  0  0  0  0  0  0  0  0
  -28.7950   11.6487  -17.4630 H   0  0  0  0  0  0  0  0  0  0  0  0
  -32.0430   12.3145  -18.9441 H   0  0  0  0  0  0  0  0  0  0  0  0
  -32.5803   14.3195  -20.3031 H   0  0  0  0  0  0  0  0  0  0  0  0
  -30.7815   15.9010  -20.9501 H   0  0  0  0  0  0  0  0  0  0  0  0
  -28.4413   15.4834  -20.2403 H   0  0  0  0  0  0  0  0  0  0  0  0
  -27.8930   13.4814  -18.8813 H   0  0  0  0  0  0  0  0  0  0  0  0
  -32.6819   13.7777  -15.6348 H   0  0  0  0  0  0  0  0  0  0  0  0
  -33.3192   12.1638  -15.3828 H   0  0  0  0  0  0  0  0  0  0  0  0
  -33.9645   13.1504  -16.7955 H   0  0  0  0  0  0  0  0  0  0  0  0
  1  2  1  0  0  0  0
  1 18  1  0  0  0  0
  1 19  1  0  0  0  0
  1 20  1  0  0  0  0
  2  3  1  0  0  0  0
  3  4  2  0  0  0  0
  3  5  1  0  0  0  0
  5  6  1  0  0  0  0
  6  7  2  0  0  0  0
  6  8  1  0  0  0  0
  6 16  1  0  0  0  0
  8  9  1  0  0  0  0
  8 21  1  0  0  0  0
  9 10  1  0  0  0  0
  9 22  1  0  0  0  0
 10 15  2  0  0  0  0
 10 11  1  0  0  0  0
 11 12  2  0  0  0  0
 11 23  1  0  0  0  0
 12 13  1  0  0  0  0
 12 24  1  0  0  0  0
 13 14  2  0  0  0  0
 13 25  1  0  0  0  0
 14 15  1  0  0  0  0
 14 26  1  0  0  0  0
 15 27  1  0  0  0  0
 16 17  1  0  0  0  0
 17 28  1  0  0  0  0
 17 29  1  0  0  0  0
 17 30  1  0  0  0  0
M  END
> <Name>
ZINC03121134

> <reference>
BDB5015

> <quality>
0.725

> <status>
decoy

> <atoms in reference ligand area>
13

> <score>
-18.1417

$$$$
ZINC31345689
      BALL 1.4.0 (Jan  4 2012, 23:22:29)

 43 43  0999  0  0  0  0  0  0999 V2000
  -35.5869    8.7655  -24.4020 C   0  0  0  0  0  0  0  0  0  0  0  0
  -35.3610    8.5453  -22.9049 C   0  0  0  0  0  0  0  0  0  0  0  0
  -34.0012    8.1685  -22.6786 O   0  0  0  0  0  0  0  0  0  0  0  0
  -33.4555    8.5239  -21.4968 C   0  0  0  0  0  0  0  0  0  0  0  0
  -33.8195    7.9805  -20.4707 O   0  0  0  0  0  0  0  0  0  0  0  0
  -32.4561    9.5240  -21.4515 C   0  0  0  0  0  0  0  0  0  0  0  0
  -31.8907    9.8935  -20.2820 C   0  0  0  0  0  0  0  0  0  0  0  0
  -30.9254   10.8585  -20.2397 N   0  0  0  0  0  0  0  0  0  0  0  0
  -30.4713   11.5024  -21.3223 C   0  0  0  0  0  0  0  0  0  0  0  0
  -29.6089   12.3480  -21.1847 O   0  0  0  0  0  0  0  0  0  0  0  0
  -30.9393   11.2440  -22.5594 N   0  0  0  0  0  0  0  0  0  0  0  0
  -31.9792   10.2127  -22.7141 C   0  0  0  0  0  0  0  0  0  0  0  0
  -32.3318    9.2297  -19.0030 C   0  0  0  0  0  0  0  0  0  0  0  0
  -33.7435    9.5462  -18.7487 N   0  0  0  0  0  0  0  0  0  0  0  0
  -34.4385    8.4026  -18.1426 C   0  0  0  0  0  0  0  0  0  0  0  0
  -35.8424    8.3232  -18.6846 C   0  0  0  0  0  0  0  0  0  0  0  0
  -36.7482    7.9504  -17.9696 O   0  0  0  0  0  0  0  0  0  0  0  0
  -36.0913    8.6667  -19.9639 N   0  0  0  0  0  0  0  0  0  0  0  0
  -33.8714   10.7449  -17.9093 C   0  0  0  0  0  0  0  0  0  0  0  0
  -32.8415   10.6885  -16.7792 C   0  0  0  0  0  0  0  0  0  0  0  0
  -33.6262   11.9923  -18.7608 C   0  0  0  0  0  0  0  0  0  0  0  0
  -34.9209    9.5641  -24.7608 H   0  0  0  0  0  0  0  0  0  0  0  0
  -36.6334    9.0554  -24.5772 H   0  0  0  0  0  0  0  0  0  0  0  0
  -35.3690    7.8352  -24.9471 H   0  0  0  0  0  0  0  0  0  0  0  0
  -35.5785    9.4759  -22.3604 H   0  0  0  0  0  0  0  0  0  0  0  0
  -36.0266    7.7464  -22.5462 H   0  0  0  0  0  0  0  0  0  0  0  0
  -30.5241   11.1049  -19.3236 H   0  0  0  0  0  0  0  0  0  0  0  0
  -30.5784   11.7556  -23.3773 H   0  0  0  0  0  0  0  0  0  0  0  0
  -32.8478   10.6719  -23.2089 H   0  0  0  0  0  0  0  0  0  0  0  0
  -31.6024    9.4455  -23.4065 H   0  0  0  0  0  0  0  0  0  0  0  0
  -31.7181    9.5972  -18.1673 H   0  0  0  0  0  0  0  0  0  0  0  0
  -32.2116    8.1401  -19.0948 H   0  0  0  0  0  0  0  0  0  0  0  0
  -34.4745    8.5307  -17.0507 H   0  0  0  0  0  0  0  0  0  0  0  0
  -33.8993    7.4750  -18.3855 H   0  0  0  0  0  0  0  0  0  0  0  0
  -36.6191    9.5261  -20.1731 H   0  0  0  0  0  0  0  0  0  0  0  0
  -35.7537    8.0699  -20.7324 H   0  0  0  0  0  0  0  0  0  0  0  0
  -34.8838   10.7864  -17.4810 H   0  0  0  0  0  0  0  0  0  0  0  0
  -32.2514    9.7642  -16.8654 H   0  0  0  0  0  0  0  0  0  0  0  0
  -33.3592   10.7031  -15.8088 H   0  0  0  0  0  0  0  0  0  0  0  0
  -32.1713   11.5580  -16.8491 H   0  0  0  0  0  0  0  0  0  0  0  0
  -32.8915   12.6403  -18.2607 H   0  0  0  0  0  0  0  0  0  0  0  0
  -34.5708   12.5412  -18.8895 H   0  0  0  0  0  0  0  0  0  0  0  0
  -33.2396   11.6940  -19.7465 H   0  0  0  0  0  0  0  0  0  0  0  0
  1  2  1  0  0  0  0
  1 22  1  0  0  0  0
  1 23  1  0  0  0  0
  1 24  1  0  0  0  0
  2  3  1  0  0  0  0
  2 25  1  0  0  0  0
  2 26  1  0  0  0  0
  3  4  1  0  0  0  0
  4  5  2  0  0  0  0
  4  6  1  0  0  0  0
  6 12  1  0  0  0  0
  6  7  2  0  0  0  0
  7  8  1  0  0  0  0
  7 13  1  0  0  0  0
  8  9  1  0  0  0  0
  8 27  1  0  0  0  0
  9 10  2  0  0  0  0
  9 11  1  0  0  0  0
 11 12  1  0  0  0  0
 11 28  1  0  0  0  0
 12 29  1  0  0  0  0
 12 30  1  0  0  0  0
 13 14  1  0  0  0  0
 13 31  1  0  0  0  0
 13 32  1  0  0  0  0
 14 15  1  0  0  0  0
 14 19  1  0  0  0  0
 15 16  1  0  0  0  0
 15 33  1  0  0  0  0
 15 34  1  0  0  0  0
 16 17  2  0  0  0  0
 16 18  1  0  0  0  0
 18 35  1  0  0  0  0
 18 36  1  0  0  0  0
 19 20  1  0  0  0  0
 19 21  1  0  0  0  0
 19 37  1  0  0  0  0
 20 38  1  0  0  0  0
 20 39  1  0  0  0  0
 20 40  1  0  0  0  0
 21 41  1  0  0  0  0
 21 42  1  0  0  0  0
 21 43  1  0  0  0  0
M  END
> <Name>
ZINC31345689

> <reference>
BDB4986

> <quality>
0.723

> <status>
decoy

> <atoms in reference ligand area>
12

> <score>
-17.9383

$$$$
ZINC04189752
      BALL 1.4.0 (Jan  4 2012, 23:22:29)

 43 44  0999  0  0  0  0  0  0999 V2000
  -31.4664    6.0846  -24.7588 C   0  0  0  0  0  0  0  0  0  0  0  0
  -31.7835    6.9211  -23.6444 O   0  0  0  0  0  0  0  0  0  0  0  0
  -31.1583    8.1269  -23.5800 C   0  0  0  0  0  0  0  0  0  0  0  0
  -30.1136    8.4145  -24.4434 C   0  0  0  0  0  0  0  0  0  0  0  0
  -29.4792    9.6411  -24.3769 C   0  0  0  0  0  0  0  0  0  0  0  0
  -29.8844   10.5839  -23.4500 C   0  0  0  0  0  0  0  0  0  0  0  0
  -30.9294   10.3069  -22.5891 C   0  0  0  0  0  0  0  0  0  0  0  0
  -31.5669    9.0762  -22.6460 C   0  0  0  0  0  0  0  0  0  0  0  0
  -32.6230    8.7908  -21.7702 N   0  0  0  0  0  0  0  0  0  0  0  0
  -32.3646    8.3221  -20.5333 C   0  0  0  0  0  0  0  0  0  0  0  0
  -31.2265    8.0522  -20.2124 O   0  0  0  0  0  0  0  0  0  0  0  0
  -33.4899    8.1333  -19.5488 C   0  0  0  0  0  0  0  0  0  0  0  0
  -34.3325    9.4090  -19.4865 C   0  0  0  0  0  0  0  0  0  0  0  0
  -34.8009    9.7697  -20.8726 C   0  0  0  0  0  0  0  0  0  0  0  0
  -34.4903   10.8318  -21.3579 O   0  0  0  0  0  0  0  0  0  0  0  0
  -34.2587   11.7765  -18.9845 C   0  0  0  0  0  0  0  0  0  0  0  0
  -33.4004   12.8353  -19.6275 C   0  0  0  0  0  0  0  0  0  0  0  0
  -32.9837   13.9222  -18.8823 C   0  0  0  0  0  0  0  0  0  0  0  0
  -32.1940   14.8903  -19.4831 C   0  0  0  0  0  0  0  0  0  0  0  0
  -31.8515   14.7283  -20.8171 C   0  0  0  0  0  0  0  0  0  0  0  0
  -32.3103   13.6179  -21.4998 C   0  0  0  0  0  0  0  0  0  0  0  0
  -33.0554   12.7138  -20.8943 N   0  0  0  0  0  0  0  0  0  0  0  0
  -35.5632    8.9113  -21.5681 O   0  5  0  0  0  0  0  0  0  0  0  0
  -33.5099   10.5063  -18.9434 N   0  3  0  0  0  0  0  0  0  0  0  0
  -31.9499    6.5407  -25.6353 H   0  0  0  0  0  0  0  0  0  0  0  0
  -31.9553    5.1178  -24.5688 H   0  0  0  0  0  0  0  0  0  0  0  0
  -30.3828    5.9682  -24.9086 H   0  0  0  0  0  0  0  0  0  0  0  0
  -29.7888    7.6668  -25.1818 H   0  0  0  0  0  0  0  0  0  0  0  0
  -28.6499    9.8676  -25.0632 H   0  0  0  0  0  0  0  0  0  0  0  0
  -29.3737   11.5567  -23.3978 H   0  0  0  0  0  0  0  0  0  0  0  0
  -31.2556   11.0622  -21.8589 H   0  0  0  0  0  0  0  0  0  0  0  0
  -33.5966    8.9394  -22.0718 H   0  0  0  0  0  0  0  0  0  0  0  0
  -34.1219    7.2925  -19.8709 H   0  0  0  0  0  0  0  0  0  0  0  0
  -33.0751    7.9198  -18.5527 H   0  0  0  0  0  0  0  0  0  0  0  0
  -35.2057    9.2451  -18.8379 H   0  0  0  0  0  0  0  0  0  0  0  0
  -34.5164   12.0840  -17.9603 H   0  0  0  0  0  0  0  0  0  0  0  0
  -35.1788   11.6410  -19.5720 H   0  0  0  0  0  0  0  0  0  0  0  0
  -33.2749   14.0178  -17.8258 H   0  0  0  0  0  0  0  0  0  0  0  0
  -31.8472   15.7662  -18.9152 H   0  0  0  0  0  0  0  0  0  0  0  0
  -31.2226   15.4741  -21.3253 H   0  0  0  0  0  0  0  0  0  0  0  0
  -32.0510   13.4867  -22.5607 H   0  0  0  0  0  0  0  0  0  0  0  0
  -33.2554   10.2921  -17.9687 H   0  0  0  0  0  0  0  0  0  0  0  0
  -32.6505   10.5994  -19.5034 H   0  0  0  0  0  0  0  0  0  0  0  0
  1  2  1  0  0  0  0
  1 25  1  0  0  0  0
  1 26  1  0  0  0  0
  1 27  1  0  0  0  0
  2  3  1  0  0  0  0
  3  8  2  0  0  0  0
  3  4  1  0  0  0  0
  4  5  2  0  0  0  0
  4 28  1  0  0  0  0
  5  6  1  0  0  0  0
  5 29  1  0  0  0  0
  6  7  2  0  0  0  0
  6 30  1  0  0  0  0
  7  8  1  0  0  0  0
  7 31  1  0  0  0  0
  8  9  1  0  0  0  0
  9 10  1  0  0  0  0
  9 32  1  0  0  0  0
 10 11  2  0  0  0  0
 10 12  1  0  0  0  0
 12 13  1  0  0  0  0
 12 33  1  0  0  0  0
 12 34  1  0  0  0  0
 13 14  1  0  0  0  0
 13 24  1  0  0  0  0
 13 35  1  0  0  0  0
 14 15  2  0  0  0  0
 14 23  1  0  0  0  0
 16 17  1  0  0  0  0
 16 24  1  0  0  0  0
 16 36  1  0  0  0  0
 16 37  1  0  0  0  0
 17 22  2  0  0  0  0
 17 18  1  0  0  0  0
 18 19  2  0  0  0  0
 18 38  1  0  0  0  0
 19 20  1  0  0  0  0
 19 39  1  0  0  0  0
 20 21  2  0  0  0  0
 20 40  1  0  0  0  0
 21 22  1  0  0  0  0
 21 41  1  0  0  0  0
 24 42  1  0  0  0  0
 24 43  1  0  0  0  0
M  END
> <Name>
ZINC04189752

> <reference>
BDB5013

> <quality>
0.734

> <status>
decoy

> <atoms in reference ligand area>
14

> <score>
-17.8895

$$$$
ZINC04226538
      BALL 1.4.0 (Jan  4 2012, 23:22:29)

 35 36  0999  0  0  0  0  0  0999 V2000
  -32.3462    7.1995  -19.3117 C   0  0  0  0  0  0  0  0  0  0  0  0
  -32.1040    8.5788  -18.7553 C   0  0  0  0  0  0  0  0  0  0  0  0
  -31.0135    9.3090  -19.2109 C   0  0  0  0  0  0  0  0  0  0  0  0
  -30.7762   10.5765  -18.7047 C   0  0  0  0  0  0  0  0  0  0  0  0
  -31.6768   11.0836  -17.7363 C   0  0  0  0  0  0  0  0  0  0  0  0
  -31.5033   12.3613  -17.1836 C   0  0  0  0  0  0  0  0  0  0  0  0
  -32.3809   12.8252  -16.2550 C   0  0  0  0  0  0  0  0  0  0  0  0
  -33.4683   12.0375  -15.8396 C   0  0  0  0  0  0  0  0  0  0  0  0
  -33.6639   10.7726  -16.3689 C   0  0  0  0  0  0  0  0  0  0  0  0
  -32.7664   10.2774  -17.3286 C   0  0  0  0  0  0  0  0  0  0  0  0
  -34.4102   12.5629  -14.8294 C   0  0  0  0  0  0  0  0  0  0  0  0
  -35.1637   13.4715  -15.1160 O   0  0  0  0  0  0  0  0  0  0  0  0
  -29.6939   11.3279  -19.1371 N   0  0  0  0  0  0  0  0  0  0  0  0
  -29.6747   11.8687  -20.4985 C   0  0  0  0  0  0  0  0  0  0  0  0
  -28.2861   12.4345  -20.8028 C   0  0  0  0  0  0  0  0  0  0  0  0
  -28.3806   13.4166  -21.9722 C   0  0  0  0  0  0  0  0  0  0  0  0
  -27.0838   13.9450  -22.2566 O   0  0  0  0  0  0  0  0  0  0  0  0
  -32.9931    9.0138  -17.8339 N   0  3  0  0  0  0  0  0  0  0  0  0
  -34.4330   12.0344  -13.5905 O   0  5  0  0  0  0  0  0  0  0  0  0
  -33.4290    7.0311  -19.2156 H   0  0  0  0  0  0  0  0  0  0  0  0
  -31.8436    6.5110  -18.6164 H   0  0  0  0  0  0  0  0  0  0  0  0
  -31.9954    7.0761  -20.3469 H   0  0  0  0  0  0  0  0  0  0  0  0
  -30.3414    8.8825  -19.9702 H   0  0  0  0  0  0  0  0  0  0  0  0
  -30.6570   12.9879  -17.5017 H   0  0  0  0  0  0  0  0  0  0  0  0
  -32.2387   13.8272  -15.8242 H   0  0  0  0  0  0  0  0  0  0  0  0
  -34.5165   10.1603  -16.0399 H   0  0  0  0  0  0  0  0  0  0  0  0
  -28.9035   11.5058  -18.5011 H   0  0  0  0  0  0  0  0  0  0  0  0
  -29.9086   11.0674  -21.2148 H   0  0  0  0  0  0  0  0  0  0  0  0
  -30.4235   12.6696  -20.5867 H   0  0  0  0  0  0  0  0  0  0  0  0
  -27.9006   12.9578  -19.9154 H   0  0  0  0  0  0  0  0  0  0  0  0
  -27.6046   11.6131  -21.0691 H   0  0  0  0  0  0  0  0  0  0  0  0
  -28.7658   12.8937  -22.8601 H   0  0  0  0  0  0  0  0  0  0  0  0
  -29.0610   14.2394  -21.7073 H   0  0  0  0  0  0  0  0  0  0  0  0
  -26.5700   13.2902  -22.7928 H   0  0  0  0  0  0  0  0  0  0  0  0
  -33.7902    8.4375  -17.5284 H   0  0  0  0  0  0  0  0  0  0  0  0
  1  2  1  0  0  0  0
  1 20  1  0  0  0  0
  1 21  1  0  0  0  0
  1 22  1  0  0  0  0
  2  3  2  0  0  0  0
  2 18  1  0  0  0  0
  3  4  1  0  0  0  0
  3 23  1  0  0  0  0
  4  5  2  0  0  0  0
  4 13  1  0  0  0  0
  5 10  1  0  0  0  0
  5  6  1  0  0  0  0
  6  7  2  0  0  0  0
  6 24  1  0  0  0  0
  7  8  1  0  0  0  0
  7 25  1  0  0  0  0
  8  9  2  0  0  0  0
  8 11  1  0  0  0  0
  9 10  1  0  0  0  0
  9 26  1  0  0  0  0
 10 18  2  0  0  0  0
 11 12  2  0  0  0  0
 11 19  1  0  0  0  0
 13 14  1  0  0  0  0
 13 27  1  0  0  0  0
 14 15  1  0  0  0  0
 14 28  1  0  0  0  0
 14 29  1  0  0  0  0
 15 16  1  0  0  0  0
 15 30  1  0  0  0  0
 15 31  1  0  0  0  0
 16 17  1  0  0  0  0
 16 32  1  0  0  0  0
 16 33  1  0  0  0  0
 17 34  1  0  0  0  0
 18 35  1  0  0  0  0
M  END
> <Name>
ZINC04226538

> <reference>
BDB5242

> <quality>
0.858

> <status>
decoy

> <atoms in reference ligand area>
15

> <score>
-17.6129

$$$$
ZINC29484918
      BALL 1.4.0 (Jan  4 2012, 23:22:29)

 37 38  0999  0  0  0  0  0  0999 V2000
  -30.2618    5.7465  -28.2393 C   0  0  0  0  0  0  0  0  0  0  0  0
  -31.4749    5.5980  -27.4987 O   0  0  0  0  0  0  0  0  0  0  0  0
  -31.9262    6.8019  -26.8750 C   0  0  0  0  0  0  0  0  0  0  0  0
  -32.6919    6.4575  -25.5961 C   0  0  0  0  0  0  0  0  0  0  0  0
  -32.6371    7.5940  -24.6731 N   0  3  0  0  0  0  0  0  0  0  0  0
  -33.1523    7.4900  -23.4794 C   0  0  0  0  0  0  0  0  0  0  0  0
  -33.6768    6.2899  -23.0587 N   0  0  0  0  0  0  0  0  0  0  0  0
  -33.1766    8.8868  -22.4056 S   0  0  0  0  0  0  0  0  0  0  0  0
  -31.5448    9.5848  -22.7609 C   0  0  0  0  0  0  0  0  0  0  0  0
  -31.3377   10.8256  -21.9312 C   0  0  0  0  0  0  0  0  0  0  0  0
  -30.3537   10.8514  -20.9622 C   0  0  0  0  0  0  0  0  0  0  0  0
  -30.1803   12.0151  -20.2042 C   0  0  0  0  0  0  0  0  0  0  0  0
  -29.3197   12.0698  -19.3398 O   0  0  0  0  0  0  0  0  0  0  0  0
  -30.9800   13.0764  -20.4436 N   0  0  0  0  0  0  0  0  0  0  0  0
  -30.8235   14.2159  -19.7146 C   0  0  0  0  0  0  0  0  0  0  0  0
  -31.6121   15.2917  -19.9358 C   0  0  0  0  0  0  0  0  0  0  0  0
  -32.6057   15.2451  -20.9238 C   0  0  0  0  0  0  0  0  0  0  0  0
  -32.7697   14.1099  -21.6595 C   0  0  0  0  0  0  0  0  0  0  0  0
  -31.9393   13.0009  -21.4146 C   0  0  0  0  0  0  0  0  0  0  0  0
  -32.0987   11.8901  -22.1319 N   0  0  0  0  0  0  0  0  0  0  0  0
  -30.1535    6.8125  -28.4879 H   0  0  0  0  0  0  0  0  0  0  0  0
  -30.3737    5.1805  -29.1758 H   0  0  0  0  0  0  0  0  0  0  0  0
  -29.3929    5.3883  -27.6677 H   0  0  0  0  0  0  0  0  0  0  0  0
  -32.5894    7.3464  -27.5632 H   0  0  0  0  0  0  0  0  0  0  0  0
  -31.0602    7.4323  -26.6247 H   0  0  0  0  0  0  0  0  0  0  0  0
  -32.2355    5.5771  -25.1200 H   0  0  0  0  0  0  0  0  0  0  0  0
  -33.7407    6.2378  -25.8444 H   0  0  0  0  0  0  0  0  0  0  0  0
  -32.1919    8.4751  -24.9668 H   0  0  0  0  0  0  0  0  0  0  0  0
  -33.0520    5.4942  -22.8656 H   0  0  0  0  0  0  0  0  0  0  0  0
  -34.6943    6.1869  -22.9367 H   0  0  0  0  0  0  0  0  0  0  0  0
  -30.7682    8.8457  -22.5146 H   0  0  0  0  0  0  0  0  0  0  0  0
  -31.4799    9.8432  -23.8282 H   0  0  0  0  0  0  0  0  0  0  0  0
  -29.7166    9.9715  -20.7890 H   0  0  0  0  0  0  0  0  0  0  0  0
  -30.0469   14.2617  -18.9369 H   0  0  0  0  0  0  0  0  0  0  0  0
  -31.4737   16.2055  -19.3392 H   0  0  0  0  0  0  0  0  0  0  0  0
  -33.2486   16.1193  -21.1039 H   0  0  0  0  0  0  0  0  0  0  0  0
  -33.5448   14.0610  -22.4384 H   0  0  0  0  0  0  0  0  0  0  0  0
  1  2  1  0  0  0  0
  1 21  1  0  0  0  0
  1 22  1  0  0  0  0
  1 23  1  0  0  0  0
  2  3  1  0  0  0  0
  3  4  1  0  0  0  0
  3 24  1  0  0  0  0
  3 25  1  0  0  0  0
  4  5  1  0  0  0  0
  4 26  1  0  0  0  0
  4 27  1  0  0  0  0
  5  6  2  0  0  0  0
  5 28  1  0  0  0  0
  6  7  1  0  0  0  0
  6  8  1  0  0  0  0
  7 29  1  0  0  0  0
  7 30  1  0  0  0  0
  8  9  1  0  0  0  0
  9 10  1  0  0  0  0
  9 31  1  0  0  0  0
  9 32  1  0  0  0  0
 10 20  1  0  0  0  0
 10 11  2  0  0  0  0
 11 12  1  0  0  0  0
 11 33  1  0  0  0  0
 12 13  2  0  0  0  0
 12 14  1  0  0  0  0
 14 19  1  0  0  0  0
 14 15  1  0  0  0  0
 15 16  2  0  0  0  0
 15 34  1  0  0  0  0
 16 17  1  0  0  0  0
 16 35  1  0  0  0  0
 17 18  2  0  0  0  0
 17 36  1  0  0  0  0
 18 19  1  0  0  0  0
 18 37  1  0  0  0  0
 19 20  2  0  0  0  0
M  END
> <Name>
ZINC29484918

> <reference>
BDB5204

> <quality>
0.807

> <status>
decoy

> <atoms in reference ligand area>
11

> <score>
-17.1819

$$$$
ZINC04839229
      BALL 1.4.0 (Jan  4 2012, 23:22:29)

 46 47  0999  0  0  0  0  0  0999 V2000
  -34.3587   13.4497  -14.3110 C   0  0  0  0  0  0  0  0  0  0  0  0
  -34.8605   12.6274  -15.3665 O   0  0  0  0  0  0  0  0  0  0  0  0
  -33.8676   12.2250  -16.3121 C   0  0  0  0  0  0  0  0  0  0  0  0
  -33.5991   10.7262  -16.1630 C   0  0  0  0  0  0  0  0  0  0  0  0
  -32.7302   10.2456  -17.3271 C   0  0  0  0  0  0  0  0  0  0  0  0
  -32.2754    8.8779  -17.0648 N   0  0  0  0  0  0  0  0  0  0  0  0
  -31.6463    8.1510  -18.0670 C   0  0  0  0  0  0  0  0  0  0  0  0
  -30.4939    7.4269  -17.7862 C   0  0  0  0  0  0  0  0  0  0  0  0
  -29.8713    6.7049  -18.7832 C   0  0  0  0  0  0  0  0  0  0  0  0
  -30.3875    6.6951  -20.0697 C   0  0  0  0  0  0  0  0  0  0  0  0
  -31.5287    7.4067  -20.3671 C   0  0  0  0  0  0  0  0  0  0  0  0
  -32.1740    8.1392  -19.3673 C   0  0  0  0  0  0  0  0  0  0  0  0
  -33.3994    8.8982  -19.6774 C   0  0  0  0  0  0  0  0  0  0  0  0
  -34.4552    8.5857  -19.1612 O   0  0  0  0  0  0  0  0  0  0  0  0
  -33.3494    9.9383  -20.5330 N   0  0  0  0  0  0  0  0  0  0  0  0
  -32.1778   10.1496  -21.3968 C   0  0  0  0  0  0  0  0  0  0  0  0
  -31.7045   11.5937  -21.2386 C   0  0  0  0  0  0  0  0  0  0  0  0
  -33.8964   12.3137  -20.4912 C   0  0  0  0  0  0  0  0  0  0  0  0
  -34.4622   10.8958  -20.6232 C   0  0  0  0  0  0  0  0  0  0  0  0
  -29.7089    5.9154  -21.1292 N   0  0  0  0  0  0  0  0  0  0  0  0
  -29.1267    6.4913  -22.0309 O   0  0  0  0  0  0  0  0  0  0  0  0
  -29.7329    4.6981  -21.0995 O   0  0  0  0  0  0  0  0  0  0  0  0
  -32.8301   12.5145  -21.4920 N   0  3  0  0  0  0  0  0  0  0  0  0
  -35.1653   13.5709  -13.5730 H   0  0  0  0  0  0  0  0  0  0  0  0
  -34.1286   14.4362  -14.7400 H   0  0  0  0  0  0  0  0  0  0  0  0
  -33.4655   13.0084  -13.8446 H   0  0  0  0  0  0  0  0  0  0  0  0
  -34.2257   12.4333  -17.3311 H   0  0  0  0  0  0  0  0  0  0  0  0
  -32.9376   12.7833  -16.1290 H   0  0  0  0  0  0  0  0  0  0  0  0
  -33.0751   10.5400  -15.2139 H   0  0  0  0  0  0  0  0  0  0  0  0
  -34.5535   10.1792  -16.1686 H   0  0  0  0  0  0  0  0  0  0  0  0
  -33.3189   10.2638  -18.2562 H   0  0  0  0  0  0  0  0  0  0  0  0
  -31.8579   10.9074  -17.4327 H   0  0  0  0  0  0  0  0  0  0  0  0
  -32.4223    8.4554  -16.1370 H   0  0  0  0  0  0  0  0  0  0  0  0
  -30.0778    7.4294  -16.7679 H   0  0  0  0  0  0  0  0  0  0  0  0
  -28.9594    6.1332  -18.5560 H   0  0  0  0  0  0  0  0  0  0  0  0
  -31.9316    7.3985  -21.3906 H   0  0  0  0  0  0  0  0  0  0  0  0
  -31.3714    9.4636  -21.0986 H   0  0  0  0  0  0  0  0  0  0  0  0
  -32.4539    9.9662  -22.4456 H   0  0  0  0  0  0  0  0  0  0  0  0
  -30.8972   11.7967  -21.9577 H   0  0  0  0  0  0  0  0  0  0  0  0
  -31.3300   11.7466  -20.2156 H   0  0  0  0  0  0  0  0  0  0  0  0
  -34.6995   13.0462  -20.6601 H   0  0  0  0  0  0  0  0  0  0  0  0
  -33.4814   12.4514  -19.4819 H   0  0  0  0  0  0  0  0  0  0  0  0
  -35.1790   10.7083  -19.8101 H   0  0  0  0  0  0  0  0  0  0  0  0
  -34.9637   10.7885  -21.5963 H   0  0  0  0  0  0  0  0  0  0  0  0
  -32.4937   13.4867  -21.4407 H   0  0  0  0  0  0  0  0  0  0  0  0
  -33.2097   12.3396  -22.4334 H   0  0  0  0  0  0  0  0  0  0  0  0
  1  2  1  0  0  0  0
  1 24  1  0  0  0  0
  1 25  1  0  0  0  0
  1 26  1  0  0  0  0
  2  3  1  0  0  0  0
  3  4  1  0  0  0  0
  3 27  1  0  0  0  0
  3 28  1  0  0  0  0
  4  5  1  0  0  0  0
  4 29  1  0  0  0  0
  4 30  1  0  0  0  0
  5  6  1  0  0  0  0
  5 31  1  0  0  0  0
  5 32  1  0  0  0  0
  6  7  1  0  0  0  0
  6 33  1  0  0  0  0
  7 12  2  0  0  0  0
  7  8  1  0  0  0  0
  8  9  2  0  0  0  0
  8 34  1  0  0  0  0
  9 10  1  0  0  0  0
  9 35  1  0  0  0  0
 10 11  2  0  0  0  0
 10 20  1  0  0  0  0
 11 12  1  0  0  0  0
 11 36  1  0  0  0  0
 12 13  1  0  0  0  0
 13 14  2  0  0  0  0
 13 15  1  0  0  0  0
 15 19  1  0  0  0  0
 15 16  1  0  0  0  0
 16 17  1  0  0  0  0
 16 37  1  0  0  0  0
 16 38  1  0  0  0  0
 17 23  1  0  0  0  0
 17 39  1  0  0  0  0
 17 40  1  0  0  0  0
 18 19  1  0  0  0  0
 18 23  1  0  0  0  0
 18 41  1  0  0  0  0
 18 42  1  0  0  0  0
 19 43  1  0  0  0  0
 19 44  1  0  0  0  0
 20 21  2  0  0  0  0
 20 22  2  0  0  0  0
 23 45  1  0  0  0  0
 23 46  1  0  0  0  0
M  END
> <Name>
ZINC04839229

> <reference>
BDB5195

> <quality>
0.747

> <status>
decoy

> <atoms in reference ligand area>
10

> <score>
-17.1649

$$$$
ZINC29471577
      BALL 1.4.0 (Jan  4 2012, 23:22:29)

 44 44  0999  0  0  0  0  0  0999 V2000
  -28.4060   14.2746  -16.6552 C   0  0  0  0  0  0  0  0  0  0  0  0
  -29.5910   14.3496  -17.6202 C   0  0  0  0  0  0  0  0  0  0  0  0
  -29.3932   13.3372  -18.7502 C   0  0  0  0  0  0  0  0  0  0  0  0
  -27.9522   13.4153  -19.2584 C   0  0  0  0  0  0  0  0  0  0  0  0
  -29.6618   11.9871  -18.2490 N   0  3  0  0  0  0  0  0  0  0  0  0
  -30.6572   11.2976  -18.7335 C   0  0  0  0  0  0  0  0  0  0  0  0
  -31.5227   11.8774  -19.6320 N   0  0  0  0  0  0  0  0  0  0  0  0
  -30.8934    9.6235  -18.2374 S   0  0  0  0  0  0  0  0  0  0  0  0
  -32.3962    9.7991  -17.2442 C   0  0  0  0  0  0  0  0  0  0  0  0
  -32.2933    8.9277  -16.0189 C   0  0  0  0  0  0  0  0  0  0  0  0
  -31.3015    8.2542  -15.8354 O   0  0  0  0  0  0  0  0  0  0  0  0
  -33.3034    8.8968  -15.1271 N   0  0  0  0  0  0  0  0  0  0  0  0
  -34.5014    9.7103  -15.3489 C   0  0  0  0  0  0  0  0  0  0  0  0
  -33.2033    8.0496  -13.9362 C   0  0  0  0  0  0  0  0  0  0  0  0
  -33.0408    6.5795  -14.3568 C   0  0  0  0  0  0  0  0  0  0  0  0
  -32.6165    5.7256  -13.1377 C   0  0  0  0  0  0  0  0  0  0  0  0
  -31.7137    6.9380  -12.0899 S   0  0  0  0  0  0  0  0  0  0  0  0
  -32.4066    7.0912  -10.8587 O   0  0  0  0  0  0  0  0  0  0  0  0
  -30.3333    6.6013  -12.0782 O   0  0  0  0  0  0  0  0  0  0  0  0
  -31.9527    8.4564  -13.1057 C   0  0  0  0  0  0  0  0  0  0  0  0
  -27.8912   13.3104  -16.7791 H   0  0  0  0  0  0  0  0  0  0  0  0
  -28.7680   14.3661  -15.6206 H   0  0  0  0  0  0  0  0  0  0  0  0
  -27.7044   15.0940  -16.8708 H   0  0  0  0  0  0  0  0  0  0  0  0
  -29.6569   15.3626  -18.0437 H   0  0  0  0  0  0  0  0  0  0  0  0
  -30.5200   14.1173  -17.0790 H   0  0  0  0  0  0  0  0  0  0  0  0
  -30.0854   13.5671  -19.5737 H   0  0  0  0  0  0  0  0  0  0  0  0
  -27.2919   12.8566  -18.5789 H   0  0  0  0  0  0  0  0  0  0  0  0
  -27.6324   14.4671  -19.2971 H   0  0  0  0  0  0  0  0  0  0  0  0
  -27.8939   12.9782  -20.2662 H   0  0  0  0  0  0  0  0  0  0  0  0
  -29.0645   11.5825  -17.5139 H   0  0  0  0  0  0  0  0  0  0  0  0
  -31.9456   12.7929  -19.4223 H   0  0  0  0  0  0  0  0  0  0  0  0
  -31.7478   11.3961  -20.5143 H   0  0  0  0  0  0  0  0  0  0  0  0
  -33.2685    9.4916  -17.8396 H   0  0  0  0  0  0  0  0  0  0  0  0
  -32.5129   10.8491  -16.9379 H   0  0  0  0  0  0  0  0  0  0  0  0
  -34.1749   10.5274  -16.0090 H   0  0  0  0  0  0  0  0  0  0  0  0
  -34.7316   10.1546  -14.3693 H   0  0  0  0  0  0  0  0  0  0  0  0
  -35.3507    9.1486  -15.7650 H   0  0  0  0  0  0  0  0  0  0  0  0
  -34.1166    8.1758  -13.3363 H   0  0  0  0  0  0  0  0  0  0  0  0
  -33.9968    6.2040  -14.7503 H   0  0  0  0  0  0  0  0  0  0  0  0
  -32.2717    6.5050  -15.1397 H   0  0  0  0  0  0  0  0  0  0  0  0
  -31.9349    4.9198  -13.4479 H   0  0  0  0  0  0  0  0  0  0  0  0
  -33.5010    5.3532  -12.6004 H   0  0  0  0  0  0  0  0  0  0  0  0
  -32.1770    9.3128  -12.4528 H   0  0  0  0  0  0  0  0  0  0  0  0
  -31.0820    8.6109  -13.7600 H   0  0  0  0  0  0  0  0  0  0  0  0
  1  2  1  0  0  0  0
  1 21  1  0  0  0  0
  1 22  1  0  0  0  0
  1 23  1  0  0  0  0
  2  3  1  0  0  0  0
  2 24  1  0  0  0  0
  2 25  1  0  0  0  0
  3  4  1  0  0  0  0
  3  5  1  0  0  0  0
  3 26  1  0  0  0  0
  4 27  1  0  0  0  0
  4 28  1  0  0  0  0
  4 29  1  0  0  0  0
  5  6  2  0  0  0  0
  5 30  1  0  0  0  0
  6  7  1  0  0  0  0
  6  8  1  0  0  0  0
  7 31  1  0  0  0  0
  7 32  1  0  0  0  0
  8  9  1  0  0  0  0
  9 10  1  0  0  0  0
  9 33  1  0  0  0  0
  9 34  1  0  0  0  0
 10 11  2  0  0  0  0
 10 12  1  0  0  0  0
 12 13  1  0  0  0  0
 12 14  1  0  0  0  0
 13 35  1  0  0  0  0
 13 36  1  0  0  0  0
 13 37  1  0  0  0  0
 14 20  1  0  0  0  0
 14 15  1  0  0  0  0
 14 38  1  0  0  0  0
 15 16  1  0  0  0  0
 15 39  1  0  0  0  0
 15 40  1  0  0  0  0
 16 17  1  0  0  0  0
 16 41  1  0  0  0  0
 16 42  1  0  0  0  0
 17 18  2  0  0  0  0
 17 19  2  0  0  0  0
 17 20  1  0  0  0  0
 20 43  1  0  0  0  0
 20 44  1  0  0  0  0
M  END
> <Name>
ZINC29471577

> <reference>
BDB5198

> <quality>
0.748

> <status>
decoy

> <atoms in reference ligand area>
12

> <score>
-16.9294

$$$$
ZINC04794950
      BALL 1.4.0 (Jan  4 2012, 23:22:29)

 54 54  0999  0  0  0  0  0  0999 V2000
  -31.2806    7.6553  -15.9991 C   0  0  0  0  0  0  0  0  0  0  0  0
  -30.6181    8.3355  -17.1201 N   0  0  0  0  0  0  0  0  0  0  0  0
  -31.7460    9.0630  -18.1355 P   0  0  0  0  0  0  0  0  0  0  0  0
  -33.0992    8.2040  -18.1424 N   0  0  0  0  0  0  0  0  0  0  0  0
  -34.4104    8.8416  -18.8068 P   0  0  0  0  0  0  0  0  0  0  0  0
  -34.5969   10.3263  -18.2328 N   0  0  0  0  0  0  0  0  0  0  0  0
  -33.3348   11.3135  -18.2314 P   0  0  0  0  0  0  0  0  0  0  0  0
  -32.0845   10.5346  -17.5998 N   0  0  0  0  0  0  0  0  0  0  0  0
  -33.6811   12.6751  -17.3050 N   0  0  0  0  0  0  0  0  0  0  0  0
  -34.3082   12.2994  -16.0308 C   0  0  0  0  0  0  0  0  0  0  0  0
  -32.4730   13.4801  -17.0801 C   0  0  0  0  0  0  0  0  0  0  0  0
  -32.9758   11.7767  -19.8092 N   0  0  0  0  0  0  0  0  0  0  0  0
  -33.9171   12.7993  -20.2847 C   0  0  0  0  0  0  0  0  0  0  0  0
  -31.5884   12.2474  -19.9169 C   0  0  0  0  0  0  0  0  0  0  0  0
  -34.2278    8.8991  -20.4789 N   0  0  0  0  0  0  0  0  0  0  0  0
  -34.9306    7.7819  -21.1239 C   0  0  0  0  0  0  0  0  0  0  0  0
  -34.6853   10.1883  -21.0144 C   0  0  0  0  0  0  0  0  0  0  0  0
  -35.7554    7.9091  -18.4144 N   0  0  0  0  0  0  0  0  0  0  0  0
  -35.9968    7.9168  -16.9654 C   0  0  0  0  0  0  0  0  0  0  0  0
  -36.9437    8.3641  -19.1485 C   0  0  0  0  0  0  0  0  0  0  0  0
  -31.1264    9.1569  -19.6974 N   0  0  0  0  0  0  0  0  0  0  0  0
  -31.6587    8.0782  -20.5408 C   0  0  0  0  0  0  0  0  0  0  0  0
  -31.6945    8.4141  -15.3187 H   0  0  0  0  0  0  0  0  0  0  0  0
  -30.5341    7.0563  -15.4569 H   0  0  0  0  0  0  0  0  0  0  0  0
  -32.0862    7.0046  -16.3700 H   0  0  0  0  0  0  0  0  0  0  0  0
  -29.9795    9.0543  -16.7508 H   0  0  0  0  0  0  0  0  0  0  0  0
  -35.2108   12.9113  -15.8859 H   0  0  0  0  0  0  0  0  0  0  0  0
  -33.6009   12.5044  -15.2136 H   0  0  0  0  0  0  0  0  0  0  0  0
  -34.5754   11.2324  -16.0369 H   0  0  0  0  0  0  0  0  0  0  0  0
  -32.5711   14.0056  -16.1187 H   0  0  0  0  0  0  0  0  0  0  0  0
  -32.3862   14.2224  -17.8873 H   0  0  0  0  0  0  0  0  0  0  0  0
  -31.5819   12.8353  -17.0659 H   0  0  0  0  0  0  0  0  0  0  0  0
  -33.5424   13.2125  -21.2328 H   0  0  0  0  0  0  0  0  0  0  0  0
  -33.9713   13.6056  -19.5385 H   0  0  0  0  0  0  0  0  0  0  0  0
  -34.9142   12.3598  -20.4351 H   0  0  0  0  0  0  0  0  0  0  0  0
  -31.4577   13.1190  -19.2588 H   0  0  0  0  0  0  0  0  0  0  0  0
  -31.3969   12.5511  -20.9567 H   0  0  0  0  0  0  0  0  0  0  0  0
  -30.8907   11.4487  -19.6248 H   0  0  0  0  0  0  0  0  0  0  0  0
  -34.1978    7.0024  -21.3796 H   0  0  0  0  0  0  0  0  0  0  0  0
  -35.4034    8.1466  -22.0477 H   0  0  0  0  0  0  0  0  0  0  0  0
  -35.6950    7.3709  -20.4481 H   0  0  0  0  0  0  0  0  0  0  0  0
  -35.4958   10.5698  -20.3759 H   0  0  0  0  0  0  0  0  0  0  0  0
  -35.0734   10.0320  -22.0317 H   0  0  0  0  0  0  0  0  0  0  0  0
  -33.8544   10.9088  -21.0365 H   0  0  0  0  0  0  0  0  0  0  0  0
  -35.7747    6.9171  -16.5637 H   0  0  0  0  0  0  0  0  0  0  0  0
  -37.0566    8.1491  -16.7839 H   0  0  0  0  0  0  0  0  0  0  0  0
  -35.3590    8.6678  -16.4763 H   0  0  0  0  0  0  0  0  0  0  0  0
  -36.6188    8.9567  -20.0164 H   0  0  0  0  0  0  0  0  0  0  0  0
  -37.5478    9.0006  -18.4853 H   0  0  0  0  0  0  0  0  0  0  0  0
  -37.5381    7.5017  -19.4844 H   0  0  0  0  0  0  0  0  0  0  0  0
  -30.0996    9.0835  -19.6626 H   0  0  0  0  0  0  0  0  0  0  0  0
  -30.8215    7.5864  -21.0576 H   0  0  0  0  0  0  0  0  0  0  0  0
  -32.3356    8.5150  -21.2897 H   0  0  0  0  0  0  0  0  0  0  0  0
  -32.2022    7.3458  -19.9257 H   0  0  0  0  0  0  0  0  0  0  0  0
  1  2  1  0  0  0  0
  1 23  1  0  0  0  0
  1 24  1  0  0  0  0
  1 25  1  0  0  0  0
  2  3  1  0  0  0  0
  2 26  1  0  0  0  0
  3  8  1  0  0  0  0
  3  4  2  0  0  0  0
  3 21  1  0  0  0  0
  4  5  1  0  0  0  0
  5  6  2  0  0  0  0
  5 15  1  0  0  0  0
  5 18  1  0  0  0  0
  6  7  1  0  0  0  0
  7  8  2  0  0  0  0
  7  9  1  0  0  0  0
  7 12  1  0  0  0  0
  9 10  1  0  0  0  0
  9 11  1  0  0  0  0
 10 27  1  0  0  0  0
 10 28  1  0  0  0  0
 10 29  1  0  0  0  0
 11 30  1  0  0  0  0
 11 31  1  0  0  0  0
 11 32  1  0  0  0  0
 12 13  1  0  0  0  0
 12 14  1  0  0  0  0
 13 33  1  0  0  0  0
 13 34  1  0  0  0  0
 13 35  1  0  0  0  0
 14 36  1  0  0  0  0
 14 37  1  0  0  0  0
 14 38  1  0  0  0  0
 15 16  1  0  0  0  0
 15 17  1  0  0  0  0
 16 39  1  0  0  0  0
 16 40  1  0  0  0  0
 16 41  1  0  0  0  0
 17 42  1  0  0  0  0
 17 43  1  0  0  0  0
 17 44  1  0  0  0  0
 18 19  1  0  0  0  0
 18 20  1  0  0  0  0
 19 45  1  0  0  0  0
 19 46  1  0  0  0  0
 19 47  1  0  0  0  0
 20 48  1  0  0  0  0
 20 49  1  0  0  0  0
 20 50  1  0  0  0  0
 21 22  1  0  0  0  0
 21 51  1  0  0  0  0
 22 52  1  0  0  0  0
 22 53  1  0  0  0  0
 22 54  1  0  0  0  0
M  END
> <Name>
ZINC04794950

> <reference>
BDB4952

> <quality>
0.725

> <status>
decoy

> <atoms in reference ligand area>
12

> <score>
-16.8494

$$$$
ZINC21038636
      BALL 1.4.0 (Jan  4 2012, 23:22:29)

 35 37  0999  0  0  0  0  0  0999 V2000
  -26.7907    7.5820  -12.6760 C   0  0  0  0  0  0  0  0  0  0  0  0
  -27.8170    6.8421  -13.2360 C   0  0  0  0  0  0  0  0  0  0  0  0
  -28.0297    6.9412  -14.6172 C   0  0  0  0  0  0  0  0  0  0  0  0
  -27.2085    7.7873  -15.3667 C   0  0  0  0  0  0  0  0  0  0  0  0
  -26.2482    8.4752  -14.7853 N   0  0  0  0  0  0  0  0  0  0  0  0
  -26.0220    8.3968  -13.4877 C   0  0  0  0  0  0  0  0  0  0  0  0
  -29.1053    6.1705  -15.2675 C   0  0  0  0  0  0  0  0  0  0  0  0
  -28.8253    5.0713  -15.8998 N   0  0  0  0  0  0  0  0  0  0  0  0
  -29.8473    4.3390  -16.5178 N   0  0  0  0  0  0  0  0  0  0  0  0
  -30.8641    4.9998  -17.1921 C   0  0  0  0  0  0  0  0  0  0  0  0
  -30.7167    6.1013  -17.9886 N   0  0  0  0  0  0  0  0  0  0  0  0
  -31.9495    6.4455  -18.4655 C   0  0  0  0  0  0  0  0  0  0  0  0
  -32.8235    5.5964  -17.9801 N   0  0  0  0  0  0  0  0  0  0  0  0
  -32.1347    4.6772  -17.1779 N   0  0  0  0  0  0  0  0  0  0  0  0
  -32.3044    7.7973  -19.5385 S   0  0  0  0  0  0  0  0  0  0  0  0
  -32.0433    9.2618  -18.5005 C   0  0  0  0  0  0  0  0  0  0  0  0
  -32.0751   10.4991  -19.3603 C   0  0  0  0  0  0  0  0  0  0  0  0
  -31.4019   10.5550  -20.3674 O   0  0  0  0  0  0  0  0  0  0  0  0
  -32.8516   11.5435  -19.0097 N   0  0  0  0  0  0  0  0  0  0  0  0
  -32.8809   12.6846  -19.8027 C   0  0  0  0  0  0  0  0  0  0  0  0
  -33.4333   12.7945  -21.0453 N   0  0  0  0  0  0  0  0  0  0  0  0
  -33.2247   14.0878  -21.4309 C   0  0  0  0  0  0  0  0  0  0  0  0
  -32.5881   14.6836  -20.4616 N   0  0  0  0  0  0  0  0  0  0  0  0
  -32.3827   13.8588  -19.4976 N   0  5  0  0  0  0  0  0  0  0  0  0
  -26.5881    7.5230  -11.5964 H   0  0  0  0  0  0  0  0  0  0  0  0
  -28.4495    6.1927  -12.6129 H   0  0  0  0  0  0  0  0  0  0  0  0
  -27.3656    7.8796  -16.4515 H   0  0  0  0  0  0  0  0  0  0  0  0
  -25.2085    8.9895  -13.0439 H   0  0  0  0  0  0  0  0  0  0  0  0
  -30.1449    6.5266  -15.2172 H   0  0  0  0  0  0  0  0  0  0  0  0
  -29.8439    3.3101  -16.4716 H   0  0  0  0  0  0  0  0  0  0  0  0
  -32.5531    3.8869  -16.6667 H   0  0  0  0  0  0  0  0  0  0  0  0
  -31.0663    9.1886  -18.0004 H   0  0  0  0  0  0  0  0  0  0  0  0
  -32.8392    9.3214  -17.7435 H   0  0  0  0  0  0  0  0  0  0  0  0
  -33.4233   11.4959  -18.1543 H   0  0  0  0  0  0  0  0  0  0  0  0
  -33.5360   14.5425  -22.3828 H   0  0  0  0  0  0  0  0  0  0  0  0
  1  6  2  0  0  0  0
  1  2  1  0  0  0  0
  1 25  1  0  0  0  0
  2  3  2  0  0  0  0
  2 26  1  0  0  0  0
  3  4  1  0  0  0  0
  3  7  1  0  0  0  0
  4  5  2  0  0  0  0
  4 27  1  0  0  0  0
  5  6  1  0  0  0  0
  6 28  1  0  0  0  0
  7  8  2  0  0  0  0
  7 29  1  0  0  0  0
  8  9  1  0  0  0  0
  9 10  1  0  0  0  0
  9 30  1  0  0  0  0
 10 14  1  0  0  0  0
 10 11  2  0  0  0  0
 11 12  1  0  0  0  0
 12 13  2  0  0  0  0
 12 15  1  0  0  0  0
 13 14  1  0  0  0  0
 14 31  1  0  0  0  0
 15 16  1  0  0  0  0
 16 17  1  0  0  0  0
 16 32  1  0  0  0  0
 16 33  1  0  0  0  0
 17 18  2  0  0  0  0
 17 19  1  0  0  0  0
 19 20  1  0  0  0  0
 19 34  1  0  0  0  0
 20 21  2  0  0  0  0
 20 24  1  0  0  0  0
 21 22  1  0  0  0  0
 22 23  2  0  0  0  0
 22 35  1  0  0  0  0
 23 24  1  0  0  0  0
M  END
> <Name>
ZINC21038636

> <reference>
BDB5244

> <quality>
0.692

> <status>
decoy

> <atoms in reference ligand area>
10

> <score>
-16.701

$$$$
ZINC05116227
      BALL 1.4.0 (Jan  4 2012, 23:22:29)

 44 44  0999  0  0  0  0  0  0999 V2000
  -29.6100   10.2586  -24.1865 C   0  0  0  0  0  0  0  0  0  0  0  0
  -29.9113   10.2193  -22.7104 C   0  0  0  0  0  0  0  0  0  0  0  0
  -30.6967    9.2081  -22.1925 C   0  0  0  0  0  0  0  0  0  0  0  0
  -30.9739    9.1717  -20.8326 C   0  0  0  0  0  0  0  0  0  0  0  0
  -30.4658   10.1549  -19.9938 C   0  0  0  0  0  0  0  0  0  0  0  0
  -29.6767   11.1631  -20.5107 C   0  0  0  0  0  0  0  0  0  0  0  0
  -29.3990   11.1993  -21.8710 C   0  0  0  0  0  0  0  0  0  0  0  0
  -28.6029   12.2244  -22.3958 N   0  0  0  0  0  0  0  0  0  0  0  0
  -31.7705    8.1468  -20.3078 N   0  3  0  0  0  0  0  0  0  0  0  0
  -31.5016    7.6245  -18.9657 C   0  0  0  0  0  0  0  0  0  0  0  0
  -30.5138    6.4599  -19.0602 C   0  0  0  0  0  0  0  0  0  0  0  0
  -30.0411    6.0769  -17.6563 C   0  0  0  0  0  0  0  0  0  0  0  0
  -29.1412    7.1831  -17.1017 C   0  0  0  0  0  0  0  0  0  0  0  0
  -27.6061    6.4530  -16.4686 S   0  0  0  0  0  0  0  0  0  0  0  0
  -27.8345    5.8583  -15.1984 O   0  0  0  0  0  0  0  0  0  0  0  0
  -26.9466    5.7301  -17.4990 O   0  0  0  0  0  0  0  0  0  0  0  0
  -32.8728    7.5970  -21.1007 C   0  0  0  0  0  0  0  0  0  0  0  0
  -32.3103    6.6840  -22.1919 C   0  0  0  0  0  0  0  0  0  0  0  0
  -33.6564    8.7412  -21.7469 C   0  0  0  0  0  0  0  0  0  0  0  0
  -26.6969    7.6399  -16.1838 O   0  5  0  0  0  0  0  0  0  0  0  0
  -30.3503   10.9529  -24.6106 H   0  0  0  0  0  0  0  0  0  0  0  0
  -29.8591    9.2528  -24.5557 H   0  0  0  0  0  0  0  0  0  0  0  0
  -28.5759   10.5498  -24.4224 H   0  0  0  0  0  0  0  0  0  0  0  0
  -31.1027    8.4316  -22.8576 H   0  0  0  0  0  0  0  0  0  0  0  0
  -30.6920   10.1306  -18.9176 H   0  0  0  0  0  0  0  0  0  0  0  0
  -29.2679   11.9377  -19.8450 H   0  0  0  0  0  0  0  0  0  0  0  0
  -28.9243   12.7569  -23.2169 H   0  0  0  0  0  0  0  0  0  0  0  0
  -27.6959   12.4460  -21.9610 H   0  0  0  0  0  0  0  0  0  0  0  0
  -32.1892    7.2711  -19.9633 H   0  0  0  0  0  0  0  0  0  0  0  0
  -31.0700    8.4210  -18.3418 H   0  0  0  0  0  0  0  0  0  0  0  0
  -32.4403    7.2722  -18.5133 H   0  0  0  0  0  0  0  0  0  0  0  0
  -31.0087    5.5962  -19.5283 H   0  0  0  0  0  0  0  0  0  0  0  0
  -29.6480    6.7605  -19.6685 H   0  0  0  0  0  0  0  0  0  0  0  0
  -30.9130    5.9496  -16.9977 H   0  0  0  0  0  0  0  0  0  0  0  0
  -29.4760    5.1343  -17.7029 H   0  0  0  0  0  0  0  0  0  0  0  0
  -28.9033    7.8984  -17.9028 H   0  0  0  0  0  0  0  0  0  0  0  0
  -29.6615    7.7059  -16.2856 H   0  0  0  0  0  0  0  0  0  0  0  0
  -33.5415    7.0179  -20.4469 H   0  0  0  0  0  0  0  0  0  0  0  0
  -31.2381    6.5150  -22.0134 H   0  0  0  0  0  0  0  0  0  0  0  0
  -32.4473    7.1584  -23.1749 H   0  0  0  0  0  0  0  0  0  0  0  0
  -32.8403    5.7202  -22.1739 H   0  0  0  0  0  0  0  0  0  0  0  0
  -32.9885    9.3207  -22.4012 H   0  0  0  0  0  0  0  0  0  0  0  0
  -34.0615    9.3981  -20.9631 H   0  0  0  0  0  0  0  0  0  0  0  0
  -34.4843    8.3291  -22.3424 H   0  0  0  0  0  0  0  0  0  0  0  0
  1  2  1  0  0  0  0
  1 21  1  0  0  0  0
  1 22  1  0  0  0  0
  1 23  1  0  0  0  0
  2  7  2  0  0  0  0
  2  3  1  0  0  0  0
  3  4  2  0  0  0  0
  3 24  1  0  0  0  0
  4  5  1  0  0  0  0
  4  9  1  0  0  0  0
  5  6  2  0  0  0  0
  5 25  1  0  0  0  0
  6  7  1  0  0  0  0
  6 26  1  0  0  0  0
  7  8  1  0  0  0  0
  8 27  1  0  0  0  0
  8 28  1  0  0  0  0
  9 10  1  0  0  0  0
  9 17  1  0  0  0  0
  9 29  1  0  0  0  0
 10 11  1  0  0  0  0
 10 30  1  0  0  0  0
 10 31  1  0  0  0  0
 11 12  1  0  0  0  0
 11 32  1  0  0  0  0
 11 33  1  0  0  0  0
 12 13  1  0  0  0  0
 12 34  1  0  0  0  0
 12 35  1  0  0  0  0
 13 14  1  0  0  0  0
 13 36  1  0  0  0  0
 13 37  1  0  0  0  0
 14 15  2  0  0  0  0
 14 16  2  0  0  0  0
 14 20  1  0  0  0  0
 17 18  1  0  0  0  0
 17 19  1  0  0  0  0
 17 38  1  0  0  0  0
 18 39  1  0  0  0  0
 18 40  1  0  0  0  0
 18 41  1  0  0  0  0
 19 42  1  0  0  0  0
 19 43  1  0  0  0  0
 19 44  1  0  0  0  0
M  END
> <Name>
ZINC05116227

> <reference>
BDB4995

> <quality>
0.772

> <status>
decoy

> <atoms in reference ligand area>
12

> <score>
-16.6579

$$$$
ZINC20744634
      BALL 1.4.0 (Jan  4 2012, 23:22:29)

 47 49  0999  0  0  0  0  0  0999 V2000
  -29.6577    5.5834  -14.0492 C   0  0  0  0  0  0  0  0  0  0  0  0
  -29.6725    6.5202  -15.1754 N   0  0  0  0  0  0  0  0  0  0  0  0
  -30.7725    6.8956  -15.8879 C   0  0  0  0  0  0  0  0  0  0  0  0
  -30.3256    7.8030  -16.8680 C   0  0  0  0  0  0  0  0  0  0  0  0
  -28.9299    7.9359  -16.7024 C   0  0  0  0  0  0  0  0  0  0  0  0
  -28.5578    7.1780  -15.7106 N   0  0  0  0  0  0  0  0  0  0  0  0
  -31.2741    8.3574  -17.7501 C   0  0  0  0  0  0  0  0  0  0  0  0
  -32.5459    8.0002  -17.6186 N   0  0  0  0  0  0  0  0  0  0  0  0
  -32.9240    7.1407  -16.6797 C   0  0  0  0  0  0  0  0  0  0  0  0
  -32.0690    6.5957  -15.8312 N   0  0  0  0  0  0  0  0  0  0  0  0
  -34.2625    6.8020  -16.5866 N   0  0  0  0  0  0  0  0  0  0  0  0
  -35.2916    7.7676  -16.9802 C   0  0  0  0  0  0  0  0  0  0  0  0
  -35.8544    8.4314  -15.7498 C   0  0  0  0  0  0  0  0  0  0  0  0
  -36.9498    7.8823  -15.1093 C   0  0  0  0  0  0  0  0  0  0  0  0
  -37.4642    8.4858  -13.9781 C   0  0  0  0  0  0  0  0  0  0  0  0
  -36.8877    9.6499  -13.4914 C   0  0  0  0  0  0  0  0  0  0  0  0
  -35.7921   10.2020  -14.1391 C   0  0  0  0  0  0  0  0  0  0  0  0
  -35.2780    9.5917  -15.2667 C   0  0  0  0  0  0  0  0  0  0  0  0
  -37.3950   10.2482  -12.3816 O   0  0  0  0  0  0  0  0  0  0  0  0
  -38.6737   10.8732  -12.5087 C   0  0  0  0  0  0  0  0  0  0  0  0
  -30.8897    9.2523  -18.7290 N   0  0  0  0  0  0  0  0  0  0  0  0
  -31.6031   10.5228  -18.8810 C   0  0  0  0  0  0  0  0  0  0  0  0
  -30.6972   11.6727  -18.4363 C   0  0  0  0  0  0  0  0  0  0  0  0
  -29.4343   11.6903  -19.2999 C   0  0  0  0  0  0  0  0  0  0  0  0
  -28.3013   11.9870  -18.4811 O   0  0  0  0  0  0  0  0  0  0  0  0
  -30.2401    6.1207  -13.2861 H   0  0  0  0  0  0  0  0  0  0  0  0
  -28.6112    5.6324  -13.7138 H   0  0  0  0  0  0  0  0  0  0  0  0
  -30.0160    4.5628  -14.2488 H   0  0  0  0  0  0  0  0  0  0  0  0
  -28.2683    8.5722  -17.3086 H   0  0  0  0  0  0  0  0  0  0  0  0
  -34.5353    5.8710  -16.2406 H   0  0  0  0  0  0  0  0  0  0  0  0
  -36.0986    7.2471  -17.5167 H   0  0  0  0  0  0  0  0  0  0  0  0
  -34.8472    8.5302  -17.6367 H   0  0  0  0  0  0  0  0  0  0  0  0
  -37.4121    6.9641  -15.5008 H   0  0  0  0  0  0  0  0  0  0  0  0
  -38.3302    8.0436  -13.4638 H   0  0  0  0  0  0  0  0  0  0  0  0
  -35.3332   11.1250  -13.7551 H   0  0  0  0  0  0  0  0  0  0  0  0
  -34.4094   10.0290  -15.7806 H   0  0  0  0  0  0  0  0  0  0  0  0
  -39.1280   10.4647  -13.4234 H   0  0  0  0  0  0  0  0  0  0  0  0
  -38.4798   11.9428  -12.6768 H   0  0  0  0  0  0  0  0  0  0  0  0
  -39.3157   10.7111  -11.6303 H   0  0  0  0  0  0  0  0  0  0  0  0
  -30.1013    9.0265  -19.3522 H   0  0  0  0  0  0  0  0  0  0  0  0
  -31.8817   10.6630  -19.9359 H   0  0  0  0  0  0  0  0  0  0  0  0
  -32.5112   10.5113  -18.2604 H   0  0  0  0  0  0  0  0  0  0  0  0
  -31.2325   12.6268  -18.5510 H   0  0  0  0  0  0  0  0  0  0  0  0
  -30.4173   11.5337  -17.3816 H   0  0  0  0  0  0  0  0  0  0  0  0
  -29.5331   12.4592  -20.0804 H   0  0  0  0  0  0  0  0  0  0  0  0
  -29.2980   10.7055  -19.7706 H   0  0  0  0  0  0  0  0  0  0  0  0
  -28.3855   11.5137  -17.6157 H   0  0  0  0  0  0  0  0  0  0  0  0
  1  2  1  0  0  0  0
  1 26  1  0  0  0  0
  1 27  1  0  0  0  0
  1 28  1  0  0  0  0
  2  6  1  0  0  0  0
  2  3  1  0  0  0  0
  3 10  2  0  0  0  0
  3  4  1  0  0  0  0
  4  5  1  0  0  0  0
  4  7  2  0  0  0  0
  5  6  2  0  0  0  0
  5 29  1  0  0  0  0
  7  8  1  0  0  0  0
  7 21  1  0  0  0  0
  8  9  2  0  0  0  0
  9 10  1  0  0  0  0
  9 11  1  0  0  0  0
 11 12  1  0  0  0  0
 11 30  1  0  0  0  0
 12 13  1  0  0  0  0
 12 31  1  0  0  0  0
 12 32  1  0  0  0  0
 13 18  2  0  0  0  0
 13 14  1  0  0  0  0
 14 15  2  0  0  0  0
 14 33  1  0  0  0  0
 15 16  1  0  0  0  0
 15 34  1  0  0  0  0
 16 17  2  0  0  0  0
 16 19  1  0  0  0  0
 17 18  1  0  0  0  0
 17 35  1  0  0  0  0
 18 36  1  0  0  0  0
 19 20  1  0  0  0  0
 20 37  1  0  0  0  0
 20 38  1  0  0  0  0
 20 39  1  0  0  0  0
 21 22  1  0  0  0  0
 21 40  1  0  0  0  0
 22 23  1  0  0  0  0
 22 41  1  0  0  0  0
 22 42  1  0  0  0  0
 23 24  1  0  0  0  0
 23 43  1  0  0  0  0
 23 44  1  0  0  0  0
 24 25  1  0  0  0  0
 24 45  1  0  0  0  0
 24 46  1  0  0  0  0
 25 47  1  0  0  0  0
M  END
> <Name>
ZINC20744634

> <reference>
BDB5003

> <quality>
0.685

> <status>
decoy

> <atoms in reference ligand area>
10

> <score>
-16.6101

$$$$
ZINC05499507
      BALL 1.4.0 (Jan  4 2012, 23:22:29)

 41 42  0999  0  0  0  0  0  0999 V2000
  -29.7229    6.9866  -15.8951 C   0  0  0  0  0  0  0  0  0  0  0  0
  -31.0677    7.6457  -15.5818 C   0  0  0  0  0  0  0  0  0  0  0  0
  -31.7871    9.9526  -15.4298 C   0  0  0  0  0  0  0  0  0  0  0  0
  -33.2825    9.6403  -15.3463 C   0  0  0  0  0  0  0  0  0  0  0  0
  -34.0105   10.5804  -16.1390 O   0  0  0  0  0  0  0  0  0  0  0  0
  -31.8913    8.7892  -17.5507 C   0  0  0  0  0  0  0  0  0  0  0  0
  -31.3150    7.6034  -18.3267 C   0  0  0  0  0  0  0  0  0  0  0  0
  -31.0353    8.0260  -19.7703 C   0  0  0  0  0  0  0  0  0  0  0  0
  -31.9049    9.1497  -20.1275 N   0  0  0  0  0  0  0  0  0  0  0  0
  -33.2383    9.2534  -19.8635 C   0  0  0  0  0  0  0  0  0  0  0  0
  -33.6954   10.3828  -20.3206 N   0  0  0  0  0  0  0  0  0  0  0  0
  -32.6875   11.0738  -20.9053 C   0  0  0  0  0  0  0  0  0  0  0  0
  -31.5264   10.2908  -20.7884 C   0  0  0  0  0  0  0  0  0  0  0  0
  -30.3843   10.7504  -21.2889 N   0  0  0  0  0  0  0  0  0  0  0  0
  -30.3372   11.9224  -21.8867 C   0  0  0  0  0  0  0  0  0  0  0  0
  -31.4010   12.6930  -22.0205 N   0  0  0  0  0  0  0  0  0  0  0  0
  -32.5866   12.3173  -21.5516 C   0  0  0  0  0  0  0  0  0  0  0  0
  -33.6960   13.1317  -21.6971 N   0  0  0  0  0  0  0  0  0  0  0  0
  -32.2550    6.5271  -18.3192 O   0  0  0  0  0  0  0  0  0  0  0  0
  -31.1361    8.9416  -16.2893 N   0  3  0  0  0  0  0  0  0  0  0  0
  -29.7625    6.5081  -16.8848 H   0  0  0  0  0  0  0  0  0  0  0  0
  -29.4888    6.2323  -15.1296 H   0  0  0  0  0  0  0  0  0  0  0  0
  -28.9358    7.7550  -15.8971 H   0  0  0  0  0  0  0  0  0  0  0  0
  -31.8858    6.9953  -15.9249 H   0  0  0  0  0  0  0  0  0  0  0  0
  -31.1537    7.8131  -14.4980 H   0  0  0  0  0  0  0  0  0  0  0  0
  -31.3459    9.9181  -14.4228 H   0  0  0  0  0  0  0  0  0  0  0  0
  -31.6434   10.9527  -15.8647 H   0  0  0  0  0  0  0  0  0  0  0  0
  -33.4663    8.6234  -15.7234 H   0  0  0  0  0  0  0  0  0  0  0  0
  -33.6147    9.7089  -14.2999 H   0  0  0  0  0  0  0  0  0  0  0  0
  -34.9529   10.2875  -16.2174 H   0  0  0  0  0  0  0  0  0  0  0  0
  -31.7935    9.7055  -18.1515 H   0  0  0  0  0  0  0  0  0  0  0  0
  -32.9515    8.6028  -17.3246 H   0  0  0  0  0  0  0  0  0  0  0  0
  -30.3781    7.2754  -17.8527 H   0  0  0  0  0  0  0  0  0  0  0  0
  -31.2335    7.1808  -20.4459 H   0  0  0  0  0  0  0  0  0  0  0  0
  -29.9831    8.3325  -19.8655 H   0  0  0  0  0  0  0  0  0  0  0  0
  -33.8391    8.4943  -19.3411 H   0  0  0  0  0  0  0  0  0  0  0  0
  -29.3756   12.2729  -22.2897 H   0  0  0  0  0  0  0  0  0  0  0  0
  -34.1971   13.1485  -22.5969 H   0  0  0  0  0  0  0  0  0  0  0  0
  -34.0193   13.7168  -20.9135 H   0  0  0  0  0  0  0  0  0  0  0  0
  -33.0334    6.7635  -18.8833 H   0  0  0  0  0  0  0  0  0  0  0  0
  -30.1794    9.2543  -16.5079 H   0  0  0  0  0  0  0  0  0  0  0  0
  1  2  1  0  0  0  0
  1 21  1  0  0  0  0
  1 22  1  0  0  0  0
  1 23  1  0  0  0  0
  2 20  1  0  0  0  0
  2 24  1  0  0  0  0
  2 25  1  0  0  0  0
  3  4  1  0  0  0  0
  3 20  1  0  0  0  0
  3 26  1  0  0  0  0
  3 27  1  0  0  0  0
  4  5  1  0  0  0  0
  4 28  1  0  0  0  0
  4 29  1  0  0  0  0
  5 30  1  0  0  0  0
  6  7  1  0  0  0  0
  6 20  1  0  0  0  0
  6 31  1  0  0  0  0
  6 32  1  0  0  0  0
  7  8  1  0  0  0  0
  7 19  1  0  0  0  0
  7 33  1  0  0  0  0
  8  9  1  0  0  0  0
  8 34  1  0  0  0  0
  8 35  1  0  0  0  0
  9 13  1  0  0  0  0
  9 10  1  0  0  0  0
 10 11  2  0  0  0  0
 10 36  1  0  0  0  0
 11 12  1  0  0  0  0
 12 17  2  0  0  0  0
 12 13  1  0  0  0  0
 13 14  2  0  0  0  0
 14 15  1  0  0  0  0
 15 16  2  0  0  0  0
 15 37  1  0  0  0  0
 16 17  1  0  0  0  0
 17 18  1  0  0  0  0
 18 38  1  0  0  0  0
 18 39  1  0  0  0  0
 19 40  1  0  0  0  0
 20 41  1  0  0  0  0
M  END
> <Name>
ZINC05499507

> <reference>
BDB5222

> <quality>
0.793

> <status>
decoy

> <atoms in reference ligand area>
11

> <score>
-16.4277

$$$$
ZINC05434281
      BALL 1.4.0 (Jan  4 2012, 23:22:29)

 25 24  0999  0  0  0  0  0  0999 V2000
  -28.5477    7.4139  -16.8248 C   0  0  0  0  0  0  0  0  0  0  0  0
  -29.9662    7.6368  -17.2826 C   0  0  0  0  0  0  0  0  0  0  0  0
  -30.5529    6.7646  -17.8782 O   0  0  0  0  0  0  0  0  0  0  0  0
  -30.5777    8.8044  -17.0285 O   0  0  0  0  0  0  0  0  0  0  0  0
  -31.2286    9.4645  -18.1460 C   0  0  0  0  0  0  0  0  0  0  0  0
  -30.9836   10.9722  -18.0608 C   0  0  0  0  0  0  0  0  0  0  0  0
  -28.8662   12.1449  -18.1235 C   0  0  0  0  0  0  0  0  0  0  0  0
  -29.0542   13.5928  -18.4964 C   0  0  0  0  0  0  0  0  0  0  0  0
  -28.5635   14.0235  -19.5131 O   0  0  0  0  0  0  0  0  0  0  0  0
  -32.7327    9.1884  -18.0955 C   0  0  0  0  0  0  0  0  0  0  0  0
  -33.4081    9.8205  -16.5478 Cl  0  0  0  0  0  0  0  0  0  0  0  0
  -33.5411   10.0081  -19.4832 Cl  0  0  0  0  0  0  0  0  0  0  0  0
  -33.0214    7.4115  -18.1959 Cl  0  0  0  0  0  0  0  0  0  0  0  0
  -29.8167   11.3202  -18.8932 N   0  3  0  0  0  0  0  0  0  0  0  0
  -29.7667   14.4043  -17.6991 O   0  5  0  0  0  0  0  0  0  0  0  0
  -28.5292    6.3944  -16.4121 H   0  0  0  0  0  0  0  0  0  0  0  0
  -28.3948    8.1145  -15.9907 H   0  0  0  0  0  0  0  0  0  0  0  0
  -27.8070    7.5523  -17.6261 H   0  0  0  0  0  0  0  0  0  0  0  0
  -30.8166    9.0789  -19.0902 H   0  0  0  0  0  0  0  0  0  0  0  0
  -31.8700   11.5100  -18.4282 H   0  0  0  0  0  0  0  0  0  0  0  0
  -30.7865   11.2552  -17.0162 H   0  0  0  0  0  0  0  0  0  0  0  0
  -27.8373   11.8353  -18.3588 H   0  0  0  0  0  0  0  0  0  0  0  0
  -29.0544   12.0139  -17.0477 H   0  0  0  0  0  0  0  0  0  0  0  0
  -29.3471   10.4566  -19.2009 H   0  0  0  0  0  0  0  0  0  0  0  0
  -30.1313   11.8461  -19.7211 H   0  0  0  0  0  0  0  0  0  0  0  0
  1  2  1  0  0  0  0
  1 16  1  0  0  0  0
  1 17  1  0  0  0  0
  1 18  1  0  0  0  0
  2  3  2  0  0  0  0
  2  4  1  0  0  0  0
  4  5  1  0  0  0  0
  5  6  1  0  0  0  0
  5 10  1  0  0  0  0
  5 19  1  0  0  0  0
  6 14  1  0  0  0  0
  6 20  1  0  0  0  0
  6 21  1  0  0  0  0
  7  8  1  0  0  0  0
  7 14  1  0  0  0  0
  7 22  1  0  0  0  0
  7 23  1  0  0  0  0
  8  9  2  0  0  0  0
  8 15  1  0  0  0  0
 10 11  1  0  0  0  0
 10 12  1  0  0  0  0
 10 13  1  0  0  0  0
 14 24  1  0  0  0  0
 14 25  1  0  0  0  0
M  END
> <Name>
ZINC05434281

> <reference>
BDB5232

> <quality>
0.777

> <status>
decoy

> <atoms in reference ligand area>
10

> <score>
-16.4165

$$$$
ZINC06535546
      BALL 1.4.0 (Jan  4 2012, 23:22:29)

 41 42  0999  0  0  0  0  0  0999 V2000
  -29.3613    5.6569  -14.1194 C   0  0  0  0  0  0  0  0  0  0  0  0
  -28.0497    5.5700  -13.6944 C   0  0  0  0  0  0  0  0  0  0  0  0
  -27.6952    6.0459  -12.4403 C   0  0  0  0  0  0  0  0  0  0  0  0
  -28.6581    6.6137  -11.6188 C   0  0  0  0  0  0  0  0  0  0  0  0
  -29.9672    6.7038  -12.0509 C   0  0  0  0  0  0  0  0  0  0  0  0
  -30.3180    6.2283  -13.3010 C   0  0  0  0  0  0  0  0  0  0  0  0
  -31.7469    6.3275  -13.7697 C   0  0  0  0  0  0  0  0  0  0  0  0
  -32.0950    7.7930  -14.0381 C   0  0  0  0  0  0  0  0  0  0  0  0
  -31.9071    9.2185  -16.0287 C   0  0  0  0  0  0  0  0  0  0  0  0
  -31.4169    9.2821  -17.2874 C   0  0  0  0  0  0  0  0  0  0  0  0
  -31.0657   10.5272  -17.8444 C   0  0  0  0  0  0  0  0  0  0  0  0
  -31.9362   11.5717  -17.7985 C   0  0  0  0  0  0  0  0  0  0  0  0
  -31.5559   12.8251  -18.3332 C   0  0  0  0  0  0  0  0  0  0  0  0
  -30.3051   13.0991  -18.5798 N   0  0  0  0  0  0  0  0  0  0  0  0
  -29.2389   12.1497  -18.2637 C   0  0  0  0  0  0  0  0  0  0  0  0
  -29.7223   10.7190  -18.5020 C   0  0  0  0  0  0  0  0  0  0  0  0
  -28.0466   12.4268  -19.1426 C   0  0  0  0  0  0  0  0  0  0  0  0
  -28.1887   12.5321  -20.3379 O   0  0  0  0  0  0  0  0  0  0  0  0
  -32.5988   13.8456  -18.6190 C   0  0  0  0  0  0  0  0  0  0  0  0
  -33.6124   13.8805  -17.9526 O   0  0  0  0  0  0  0  0  0  0  0  0
  -26.4069    5.9557  -12.0173 O   0  0  0  0  0  0  0  0  0  0  0  0
  -32.2401    7.9471  -15.5269 N   0  3  0  0  0  0  0  0  0  0  0  0
  -26.8260   12.5511  -18.5984 O   0  5  0  0  0  0  0  0  0  0  0  0
  -32.4186   14.7308  -19.6169 O   0  5  0  0  0  0  0  0  0  0  0  0
  -29.6448    5.2711  -15.1098 H   0  0  0  0  0  0  0  0  0  0  0  0
  -27.2870    5.1237  -14.3496 H   0  0  0  0  0  0  0  0  0  0  0  0
  -28.3796    6.9918  -10.6240 H   0  0  0  0  0  0  0  0  0  0  0  0
  -30.7311    7.1542  -11.4000 H   0  0  0  0  0  0  0  0  0  0  0  0
  -31.8704    5.7463  -14.6954 H   0  0  0  0  0  0  0  0  0  0  0  0
  -32.4169    5.9284  -12.9940 H   0  0  0  0  0  0  0  0  0  0  0  0
  -33.0442    8.0468  -13.5435 H   0  0  0  0  0  0  0  0  0  0  0  0
  -31.2847    8.4418  -13.6744 H   0  0  0  0  0  0  0  0  0  0  0  0
  -32.0404   10.1256  -15.4209 H   0  0  0  0  0  0  0  0  0  0  0  0
  -31.2923    8.3613  -17.8763 H   0  0  0  0  0  0  0  0  0  0  0  0
  -32.9312   11.4423  -17.3477 H   0  0  0  0  0  0  0  0  0  0  0  0
  -28.9576   12.2631  -17.2063 H   0  0  0  0  0  0  0  0  0  0  0  0
  -28.9986   10.0114  -18.0713 H   0  0  0  0  0  0  0  0  0  0  0  0
  -29.8130   10.5387  -19.5833 H   0  0  0  0  0  0  0  0  0  0  0  0
  -25.8611    6.1124  -12.8283 H   0  0  0  0  0  0  0  0  0  0  0  0
  -31.6448    7.2465  -15.9914 H   0  0  0  0  0  0  0  0  0  0  0  0
  -33.2141    7.7378  -15.7885 H   0  0  0  0  0  0  0  0  0  0  0  0
  1  6  2  0  0  0  0
  1  2  1  0  0  0  0
  1 25  1  0  0  0  0
  2  3  2  0  0  0  0
  2 26  1  0  0  0  0
  3  4  1  0  0  0  0
  3 21  1  0  0  0  0
  4  5  2  0  0  0  0
  4 27  1  0  0  0  0
  5  6  1  0  0  0  0
  5 28  1  0  0  0  0
  6  7  1  0  0  0  0
  7  8  1  0  0  0  0
  7 29  1  0  0  0  0
  7 30  1  0  0  0  0
  8 22  1  0  0  0  0
  8 31  1  0  0  0  0
  8 32  1  0  0  0  0
  9 10  2  0  0  0  0
  9 22  1  0  0  0  0
  9 33  1  0  0  0  0
 10 11  1  0  0  0  0
 10 34  1  0  0  0  0
 11 16  1  0  0  0  0
 11 12  2  0  0  0  0
 12 13  1  0  0  0  0
 12 35  1  0  0  0  0
 13 14  2  0  0  0  0
 13 19  1  0  0  0  0
 14 15  1  0  0  0  0
 15 16  1  0  0  0  0
 15 17  1  0  0  0  0
 15 36  1  0  0  0  0
 16 37  1  0  0  0  0
 16 38  1  0  0  0  0
 17 18  2  0  0  0  0
 17 23  1  0  0  0  0
 19 20  2  0  0  0  0
 19 24  1  0  0  0  0
 21 39  1  0  0  0  0
 22 40  1  0  0  0  0
 22 41  1  0  0  0  0
M  END
> <Name>
ZINC06535546

> <reference>
BDB4934

> <quality>
0.675

> <status>
decoy

> <atoms in reference ligand area>
12

> <score>
-16.0991

$$$$
ZINC31172347
      BALL 1.4.0 (Jan  4 2012, 23:22:29)

 52 54  0999  0  0  0  0  0  0999 V2000
  -34.2687    4.1371  -25.5311 C   0  0  0  0  0  0  0  0  0  0  0  0
  -34.9174    5.2672  -24.8529 N   0  0  0  0  0  0  0  0  0  0  0  0
  -33.9250    6.1218  -24.1873 C   0  0  0  0  0  0  0  0  0  0  0  0
  -34.3020    6.2887  -22.7139 C   0  0  0  0  0  0  0  0  0  0  0  0
  -33.8218    7.6295  -22.2213 C   0  0  0  0  0  0  0  0  0  0  0  0
  -33.0828    8.2998  -22.9111 O   0  0  0  0  0  0  0  0  0  0  0  0
  -34.2135    8.0838  -21.0144 N   0  0  0  0  0  0  0  0  0  0  0  0
  -33.8550    9.3736  -20.6014 C   0  0  0  0  0  0  0  0  0  0  0  0
  -33.6121    9.6288  -19.2565 C   0  0  0  0  0  0  0  0  0  0  0  0
  -33.2527   10.8961  -18.8441 C   0  0  0  0  0  0  0  0  0  0  0  0
  -33.1449   11.9213  -19.7716 C   0  0  0  0  0  0  0  0  0  0  0  0
  -33.3938   11.6694  -21.1224 C   0  0  0  0  0  0  0  0  0  0  0  0
  -33.7487   10.3943  -21.5341 C   0  0  0  0  0  0  0  0  0  0  0  0
  -33.2080   12.8734  -21.7977 N   0  0  0  0  0  0  0  0  0  0  0  0
  -32.8621   13.8150  -20.8998 C   0  0  0  0  0  0  0  0  0  0  0  0
  -32.6270   14.9800  -21.1616 O   0  0  0  0  0  0  0  0  0  0  0  0
  -32.8154   13.2726  -19.6686 N   0  0  0  0  0  0  0  0  0  0  0  0
  -35.7367    6.0450  -25.7920 C   0  0  0  0  0  0  0  0  0  0  0  0
  -36.5681    5.1073  -26.6290 C   0  0  0  0  0  0  0  0  0  0  0  0
  -36.0270    4.2780  -27.3295 O   0  0  0  0  0  0  0  0  0  0  0  0
  -37.9129    5.1903  -26.5992 N   0  0  0  0  0  0  0  0  0  0  0  0
  -38.6837    4.3810  -27.4443 C   0  0  0  0  0  0  0  0  0  0  0  0
  -38.9432    4.7858  -28.7468 C   0  0  0  0  0  0  0  0  0  0  0  0
  -39.6988    3.9854  -29.5807 C   0  0  0  0  0  0  0  0  0  0  0  0
  -40.2078    2.7824  -29.1138 C   0  0  0  0  0  0  0  0  0  0  0  0
  -39.9529    2.3796  -27.8111 C   0  0  0  0  0  0  0  0  0  0  0  0
  -39.1930    3.1765  -26.9779 C   0  0  0  0  0  0  0  0  0  0  0  0
  -40.9564    1.9974  -29.9337 O   0  0  0  0  0  0  0  0  0  0  0  0
  -40.8268    2.2183  -31.3396 C   0  0  0  0  0  0  0  0  0  0  0  0
  -34.1950    4.3620  -26.6053 H   0  0  0  0  0  0  0  0  0  0  0  0
  -34.8868    3.2377  -25.3932 H   0  0  0  0  0  0  0  0  0  0  0  0
  -33.2649    3.9693  -25.1138 H   0  0  0  0  0  0  0  0  0  0  0  0
  -32.9315    5.6555  -24.2604 H   0  0  0  0  0  0  0  0  0  0  0  0
  -33.9039    7.1082  -24.6736 H   0  0  0  0  0  0  0  0  0  0  0  0
  -33.8309    5.4908  -22.1211 H   0  0  0  0  0  0  0  0  0  0  0  0
  -35.3951    6.2291  -22.6059 H   0  0  0  0  0  0  0  0  0  0  0  0
  -34.7764    7.4827  -20.3957 H   0  0  0  0  0  0  0  0  0  0  0  0
  -33.7067    8.8184  -18.5188 H   0  0  0  0  0  0  0  0  0  0  0  0
  -33.0520   11.0926  -17.7806 H   0  0  0  0  0  0  0  0  0  0  0  0
  -33.9453   10.1927  -22.5974 H   0  0  0  0  0  0  0  0  0  0  0  0
  -33.3168   13.0186  -22.8116 H   0  0  0  0  0  0  0  0  0  0  0  0
  -32.5769   13.7704  -18.7990 H   0  0  0  0  0  0  0  0  0  0  0  0
  -35.0819    6.6377  -26.4477 H   0  0  0  0  0  0  0  0  0  0  0  0
  -36.3995    6.7190  -25.2295 H   0  0  0  0  0  0  0  0  0  0  0  0
  -38.3742    5.8487  -25.9553 H   0  0  0  0  0  0  0  0  0  0  0  0
  -38.5470    5.7439  -29.1144 H   0  0  0  0  0  0  0  0  0  0  0  0
  -39.8971    4.3019  -30.6154 H   0  0  0  0  0  0  0  0  0  0  0  0
  -40.3561    1.4252  -27.4418 H   0  0  0  0  0  0  0  0  0  0  0  0
  -38.9913    2.8571  -25.9448 H   0  0  0  0  0  0  0  0  0  0  0  0
  -39.8159    2.6223  -31.4972 H   0  0  0  0  0  0  0  0  0  0  0  0
  -41.5492    3.0070  -31.5966 H   0  0  0  0  0  0  0  0  0  0  0  0
  -40.9952    1.3062  -31.9309 H   0  0  0  0  0  0  0  0  0  0  0  0
  1  2  1  0  0  0  0
  1 30  1  0  0  0  0
  1 31  1  0  0  0  0
  1 32  1  0  0  0  0
  2  3  1  0  0  0  0
  2 18  1  0  0  0  0
  3  4  1  0  0  0  0
  3 33  1  0  0  0  0
  3 34  1  0  0  0  0
  4  5  1  0  0  0  0
  4 35  1  0  0  0  0
  4 36  1  0  0  0  0
  5  6  2  0  0  0  0
  5  7  1  0  0  0  0
  7  8  1  0  0  0  0
  7 37  1  0  0  0  0
  8 13  2  0  0  0  0
  8  9  1  0  0  0  0
  9 10  2  0  0  0  0
  9 38  1  0  0  0  0
 10 11  1  0  0  0  0
 10 39  1  0  0  0  0
 11 17  1  0  0  0  0
 11 12  2  0  0  0  0
 12 13  1  0  0  0  0
 12 14  1  0  0  0  0
 13 40  1  0  0  0  0
 14 15  1  0  0  0  0
 14 41  1  0  0  0  0
 15 16  2  0  0  0  0
 15 17  1  0  0  0  0
 17 42  1  0  0  0  0
 18 19  1  0  0  0  0
 18 43  1  0  0  0  0
 18 44  1  0  0  0  0
 19 20  2  0  0  0  0
 19 21  1  0  0  0  0
 21 22  1  0  0  0  0
 21 45  1  0  0  0  0
 22 27  2  0  0  0  0
 22 23  1  0  0  0  0
 23 24  2  0  0  0  0
 23 46  1  0  0  0  0
 24 25  1  0  0  0  0
 24 47  1  0  0  0  0
 25 26  2  0  0  0  0
 25 28  1  0  0  0  0
 26 27  1  0  0  0  0
 26 48  1  0  0  0  0
 27 49  1  0  0  0  0
 28 29  1  0  0  0  0
 29 50  1  0  0  0  0
 29 51  1  0  0  0  0
 29 52  1  0  0  0  0
M  END
> <Name>
ZINC31172347

> <reference>
BDB5007

> <quality>
0.689

> <status>
decoy

> <atoms in reference ligand area>
11

> <score>
-15.9317

$$$$
ZINC05665859
      BALL 1.4.0 (Jan  4 2012, 23:22:29)

 52 53  0999  0  0  0  0  0  0999 V2000
  -30.3662    7.0664  -17.6485 C   0  0  0  0  0  0  0  0  0  0  0  0
  -31.8614    7.1886  -17.7907 C   0  0  0  0  0  0  0  0  0  0  0  0
  -32.4570    8.3383  -17.5347 C   0  0  0  0  0  0  0  0  0  0  0  0
  -31.6417    9.5288  -17.1000 C   0  5  0  0  0  0  0  0  0  0  0  0
  -32.3345   10.1601  -15.9072 C   0  0  0  0  0  0  0  0  0  0  0  0
  -32.5460    9.5269  -14.8954 O   0  0  0  0  0  0  0  0  0  0  0  0
  -32.7064   11.4534  -16.0142 N   0  0  0  0  0  0  0  0  0  0  0  0
  -32.4803   12.1660  -17.1238 C   0  0  0  0  0  0  0  0  0  0  0  0
  -32.8487   13.3236  -17.1343 O   0  0  0  0  0  0  0  0  0  0  0  0
  -31.8779   11.6970  -18.2224 N   0  0  0  0  0  0  0  0  0  0  0  0
  -31.4343   10.4248  -18.3065 C   0  0  0  0  0  0  0  0  0  0  0  0
  -30.8860   10.0150  -19.3071 O   0  0  0  0  0  0  0  0  0  0  0  0
  -31.6939   12.5908  -19.3685 C   0  0  0  0  0  0  0  0  0  0  0  0
  -31.3001   13.9832  -18.8715 C   0  0  0  0  0  0  0  0  0  0  0  0
  -31.1081   14.9166  -20.0684 C   0  0  0  0  0  0  0  0  0  0  0  0
  -32.4150   15.0080  -20.8587 C   0  0  0  0  0  0  0  0  0  0  0  0
  -32.8088   13.6157  -21.3558 C   0  0  0  0  0  0  0  0  0  0  0  0
  -33.0009   12.6823  -20.1588 C   0  0  0  0  0  0  0  0  0  0  0  0
  -34.3965    8.4970  -19.0592 C   0  0  0  0  0  0  0  0  0  0  0  0
  -35.8933    8.1924  -18.9726 C   0  0  0  0  0  0  0  0  0  0  0  0
  -35.7795    8.1785  -21.3911 C   0  0  0  0  0  0  0  0  0  0  0  0
  -37.9304    8.1357  -20.2801 C   0  0  0  0  0  0  0  0  0  0  0  0
  -33.8676    8.5154  -17.6515 N   0  3  0  0  0  0  0  0  0  0  0  0
  -36.5456    8.6488  -20.2178 N   0  0  0  0  0  0  0  0  0  0  0  0
  -30.1920    6.0345  -17.3098 H   0  0  0  0  0  0  0  0  0  0  0  0
  -30.1000    7.7344  -16.8161 H   0  0  0  0  0  0  0  0  0  0  0  0
  -29.8147    7.3041  -18.5700 H   0  0  0  0  0  0  0  0  0  0  0  0
  -32.4566    6.3196  -18.1080 H   0  0  0  0  0  0  0  0  0  0  0  0
  -33.1784   11.9051  -15.2179 H   0  0  0  0  0  0  0  0  0  0  0  0
  -30.8994   12.1951  -20.0183 H   0  0  0  0  0  0  0  0  0  0  0  0
  -30.3605   13.9187  -18.3033 H   0  0  0  0  0  0  0  0  0  0  0  0
  -32.0948   14.3792  -18.2221 H   0  0  0  0  0  0  0  0  0  0  0  0
  -30.8254   15.9178  -19.7111 H   0  0  0  0  0  0  0  0  0  0  0  0
  -30.3139   14.5217  -20.7190 H   0  0  0  0  0  0  0  0  0  0  0  0
  -32.2780   15.6788  -21.7197 H   0  0  0  0  0  0  0  0  0  0  0  0
  -33.2098   15.4031  -20.2088 H   0  0  0  0  0  0  0  0  0  0  0  0
  -33.7487   13.6812  -21.9235 H   0  0  0  0  0  0  0  0  0  0  0  0
  -32.0148   13.2189  -22.0055 H   0  0  0  0  0  0  0  0  0  0  0  0
  -33.2839   11.6814  -20.5168 H   0  0  0  0  0  0  0  0  0  0  0  0
  -33.7961   13.0781  -19.5100 H   0  0  0  0  0  0  0  0  0  0  0  0
  -33.8892    7.7105  -19.6371 H   0  0  0  0  0  0  0  0  0  0  0  0
  -34.2422    9.4804  -19.5273 H   0  0  0  0  0  0  0  0  0  0  0  0
  -36.3291    8.7232  -18.1133 H   0  0  0  0  0  0  0  0  0  0  0  0
  -36.0424    7.1089  -18.8550 H   0  0  0  0  0  0  0  0  0  0  0  0
  -35.4446    9.0463  -21.9783 H   0  0  0  0  0  0  0  0  0  0  0  0
  -36.4246    7.5432  -22.0158 H   0  0  0  0  0  0  0  0  0  0  0  0
  -34.9055    7.6003  -21.0567 H   0  0  0  0  0  0  0  0  0  0  0  0
  -37.9116    7.0359  -20.2650 H   0  0  0  0  0  0  0  0  0  0  0  0
  -38.4037    8.4788  -21.2119 H   0  0  0  0  0  0  0  0  0  0  0  0
  -38.5032    8.5066  -19.4174 H   0  0  0  0  0  0  0  0  0  0  0  0
  -34.3367    7.7729  -17.1134 H   0  0  0  0  0  0  0  0  0  0  0  0
  -34.1234    9.4126  -17.2151 H   0  0  0  0  0  0  0  0  0  0  0  0
  1  2  1  0  0  0  0
  1 25  1  0  0  0  0
  1 26  1  0  0  0  0
  1 27  1  0  0  0  0
  2  3  2  0  0  0  0
  2 28  1  0  0  0  0
  3  4  1  0  0  0  0
  3 23  1  0  0  0  0
  4 11  1  0  0  0  0
  4  5  1  0  0  0  0
  5  6  2  0  0  0  0
  5  7  1  0  0  0  0
  7  8  1  0  0  0  0
  7 29  1  0  0  0  0
  8  9  2  0  0  0  0
  8 10  1  0  0  0  0
 10 11  1  0  0  0  0
 10 13  1  0  0  0  0
 11 12  2  0  0  0  0
 13 18  1  0  0  0  0
 13 14  1  0  0  0  0
 13 30  1  0  0  0  0
 14 15  1  0  0  0  0
 14 31  1  0  0  0  0
 14 32  1  0  0  0  0
 15 16  1  0  0  0  0
 15 33  1  0  0  0  0
 15 34  1  0  0  0  0
 16 17  1  0  0  0  0
 16 35  1  0  0  0  0
 16 36  1  0  0  0  0
 17 18  1  0  0  0  0
 17 37  1  0  0  0  0
 17 38  1  0  0  0  0
 18 39  1  0  0  0  0
 18 40  1  0  0  0  0
 19 20  1  0  0  0  0
 19 23  1  0  0  0  0
 19 41  1  0  0  0  0
 19 42  1  0  0  0  0
 20 24  1  0  0  0  0
 20 43  1  0  0  0  0
 20 44  1  0  0  0  0
 21 24  1  0  0  0  0
 21 45  1  0  0  0  0
 21 46  1  0  0  0  0
 21 47  1  0  0  0  0
 22 24  1  0  0  0  0
 22 48  1  0  0  0  0
 22 49  1  0  0  0  0
 22 50  1  0  0  0  0
 23 51  1  0  0  0  0
 23 52  1  0  0  0  0
M  END
> <Name>
ZINC05665859

> <reference>
BDB5200

> <quality>
0.741

> <status>
decoy

> <atoms in reference ligand area>
14

> <score>
-15.7471

$$$$
ZINC05885721
      BALL 1.4.0 (Jan  4 2012, 23:22:29)

 52 53  0999  0  0  0  0  0  0999 V2000
  -29.1364    2.0793  -20.1486 C   0  0  0  0  0  0  0  0  0  0  0  0
  -29.0357    3.4662  -20.6223 N   0  3  0  0  0  0  0  0  0  0  0  0
  -30.3788    3.9797  -20.9230 C   0  0  0  0  0  0  0  0  0  0  0  0
  -28.4162    4.2958  -19.5803 C   0  0  0  0  0  0  0  0  0  0  0  0
  -29.3881    4.4537  -18.4093 C   0  0  0  0  0  0  0  0  0  0  0  0
  -28.8530    5.5109  -17.4413 C   0  0  0  0  0  0  0  0  0  0  0  0
  -29.5424    6.7819  -17.6766 N   0  0  0  0  0  0  0  0  0  0  0  0
  -30.5552    7.1586  -16.8710 C   0  0  0  0  0  0  0  0  0  0  0  0
  -30.8969    6.4429  -15.9482 O   0  0  0  0  0  0  0  0  0  0  0  0
  -31.2459    8.4324  -17.1067 C   0  0  0  0  0  0  0  0  0  0  0  0
  -31.5543    8.8868  -18.4647 C   0  0  0  0  0  0  0  0  0  0  0  0
  -31.2445    8.2101  -19.4328 O   0  0  0  0  0  0  0  0  0  0  0  0
  -32.2230   10.1330  -18.6340 C   0  0  0  0  0  0  0  0  0  0  0  0
  -32.5639   10.8543  -17.5553 C   0  0  0  0  0  0  0  0  0  0  0  0
  -32.2658   10.4158  -16.2933 N   0  0  0  0  0  0  0  0  0  0  0  0
  -31.6303    9.2508  -16.0463 C   0  0  0  0  0  0  0  0  0  0  0  0
  -31.3676    8.8803  -14.7770 O   0  0  0  0  0  0  0  0  0  0  0  0
  -33.2941   12.1713  -17.6586 C   0  0  0  0  0  0  0  0  0  0  0  0
  -33.1733   12.7496  -19.0659 C   0  0  0  0  0  0  0  0  0  0  0  0
  -33.5797   11.6616  -20.0678 C   0  0  0  0  0  0  0  0  0  0  0  0
  -32.5094   10.5728  -20.0457 C   0  0  0  0  0  0  0  0  0  0  0  0
  -28.2114    3.5100  -21.8375 C   0  0  0  0  0  0  0  0  0  0  0  0
  -28.7052    2.4766  -22.8170 C   0  0  0  0  0  0  0  0  0  0  0  0
  -27.9392    1.4656  -23.1442 C   0  0  0  0  0  0  0  0  0  0  0  0
  -29.2504    2.0719  -19.0546 H   0  0  0  0  0  0  0  0  0  0  0  0
  -28.2250    1.5291  -20.4255 H   0  0  0  0  0  0  0  0  0  0  0  0
  -30.0099    1.5959  -20.6106 H   0  0  0  0  0  0  0  0  0  0  0  0
  -30.3437    4.5868  -21.8396 H   0  0  0  0  0  0  0  0  0  0  0  0
  -30.7310    4.6006  -20.0860 H   0  0  0  0  0  0  0  0  0  0  0  0
  -31.0702    3.1367  -21.0691 H   0  0  0  0  0  0  0  0  0  0  0  0
  -27.4931    3.8128  -19.2274 H   0  0  0  0  0  0  0  0  0  0  0  0
  -28.1767    5.2868  -19.9932 H   0  0  0  0  0  0  0  0  0  0  0  0
  -30.3714    4.7688  -18.7886 H   0  0  0  0  0  0  0  0  0  0  0  0
  -29.4887    3.4931  -17.8828 H   0  0  0  0  0  0  0  0  0  0  0  0
  -29.0309    5.1841  -16.4062 H   0  0  0  0  0  0  0  0  0  0  0  0
  -27.7733    5.6448  -17.6031 H   0  0  0  0  0  0  0  0  0  0  0  0
  -29.2530    7.3878  -18.4577 H   0  0  0  0  0  0  0  0  0  0  0  0
  -32.5398   11.0034  -15.4931 H   0  0  0  0  0  0  0  0  0  0  0  0
  -30.4503    9.2087  -14.6012 H   0  0  0  0  0  0  0  0  0  0  0  0
  -32.8666   12.8825  -16.9365 H   0  0  0  0  0  0  0  0  0  0  0  0
  -34.3567   12.0172  -17.4196 H   0  0  0  0  0  0  0  0  0  0  0  0
  -33.8441   13.6153  -19.1689 H   0  0  0  0  0  0  0  0  0  0  0  0
  -32.1331   13.0542  -19.2537 H   0  0  0  0  0  0  0  0  0  0  0  0
  -33.6467   12.0932  -21.0773 H   0  0  0  0  0  0  0  0  0  0  0  0
  -34.5493   11.2325  -19.7750 H   0  0  0  0  0  0  0  0  0  0  0  0
  -32.8576    9.7100  -20.6326 H   0  0  0  0  0  0  0  0  0  0  0  0
  -31.5860   10.9625  -20.4992 H   0  0  0  0  0  0  0  0  0  0  0  0
  -27.1635    3.2979  -21.5790 H   0  0  0  0  0  0  0  0  0  0  0  0
  -28.2818    4.5090  -22.2927 H   0  0  0  0  0  0  0  0  0  0  0  0
  -29.7088    2.5713  -23.2572 H   0  0  0  0  0  0  0  0  0  0  0  0
  -26.9356    1.3709  -22.7041 H   0  0  0  0  0  0  0  0  0  0  0  0
  -28.2996    0.7113  -23.8592 H   0  0  0  0  0  0  0  0  0  0  0  0
  1  2  1  0  0  0  0
  1 25  1  0  0  0  0
  1 26  1  0  0  0  0
  1 27  1  0  0  0  0
  2  3  1  0  0  0  0
  2  4  1  0  0  0  0
  2 22  1  0  0  0  0
  3 28  1  0  0  0  0
  3 29  1  0  0  0  0
  3 30  1  0  0  0  0
  4  5  1  0  0  0  0
  4 31  1  0  0  0  0
  4 32  1  0  0  0  0
  5  6  1  0  0  0  0
  5 33  1  0  0  0  0
  5 34  1  0  0  0  0
  6  7  1  0  0  0  0
  6 35  1  0  0  0  0
  6 36  1  0  0  0  0
  7  8  1  0  0  0  0
  7 37  1  0  0  0  0
  8  9  2  0  0  0  0
  8 10  1  0  0  0  0
 10 16  2  0  0  0  0
 10 11  1  0  0  0  0
 11 12  2  0  0  0  0
 11 13  1  0  0  0  0
 13 21  1  0  0  0  0
 13 14  2  0  0  0  0
 14 15  1  0  0  0  0
 14 18  1  0  0  0  0
 15 16  1  0  0  0  0
 15 38  1  0  0  0  0
 16 17  1  0  0  0  0
 17 39  1  0  0  0  0
 18 19  1  0  0  0  0
 18 40  1  0  0  0  0
 18 41  1  0  0  0  0
 19 20  1  0  0  0  0
 19 42  1  0  0  0  0
 19 43  1  0  0  0  0
 20 21  1  0  0  0  0
 20 44  1  0  0  0  0
 20 45  1  0  0  0  0
 21 46  1  0  0  0  0
 21 47  1  0  0  0  0
 22 23  1  0  0  0  0
 22 48  1  0  0  0  0
 22 49  1  0  0  0  0
 23 24  2  0  0  0  0
 23 50  1  0  0  0  0
 24 51  1  0  0  0  0
 24 52  1  0  0  0  0
M  END
> <Name>
ZINC05885721

> <reference>
BDB4934

> <quality>
0.727

> <status>
decoy

> <atoms in reference ligand area>
10

> <score>
-15.4852

$$$$
ZINC21264479
      BALL 1.4.0 (Jan  4 2012, 23:22:29)

 35 35  0999  0  0  0  0  0  0999 V2000
  -30.9964    8.1097  -10.1314 C   0  0  0  0  0  0  0  0  0  0  0  0
  -31.4208    6.9213  -10.9965 C   0  0  0  0  0  0  0  0  0  0  0  0
  -31.4981    7.3520  -12.4387 C   0  0  0  0  0  0  0  0  0  0  0  0
  -30.8413    6.9065  -13.4910 N   0  0  0  0  0  0  0  0  0  0  0  0
  -31.0467    7.4005  -14.6343 N   0  0  0  0  0  0  0  0  0  0  0  0
  -31.9188    8.3751  -14.8276 C   0  0  0  0  0  0  0  0  0  0  0  0
  -32.5129    8.6075  -13.2095 S   0  0  0  0  0  0  0  0  0  0  0  0
  -32.2694    9.0306  -16.0031 N   0  0  0  0  0  0  0  0  0  0  0  0
  -33.4368    9.6999  -16.0790 C   0  0  0  0  0  0  0  0  0  0  0  0
  -34.1816    9.7306  -15.1222 O   0  5  0  0  0  0  0  0  0  0  0  0
  -33.8168   10.4102  -17.3526 C   0  0  0  0  0  0  0  0  0  0  0  0
  -32.6294   11.0593  -17.9243 N   0  3  0  0  0  0  0  0  0  0  0  0
  -32.9034   12.4655  -18.2493 C   0  0  0  0  0  0  0  0  0  0  0  0
  -33.8599   12.5363  -19.4414 C   0  0  0  0  0  0  0  0  0  0  0  0
  -33.5425   13.1530  -17.0411 C   0  0  0  0  0  0  0  0  0  0  0  0
  -31.5932   13.1716  -18.6040 C   0  0  0  0  0  0  0  0  0  0  0  0
  -31.8598   14.5394  -18.9202 O   0  0  0  0  0  0  0  0  0  0  0  0
  -29.9223    8.0354   -9.9059 H   0  0  0  0  0  0  0  0  0  0  0  0
  -31.5689    8.1038   -9.1921 H   0  0  0  0  0  0  0  0  0  0  0  0
  -31.1922    9.0469  -10.6731 H   0  0  0  0  0  0  0  0  0  0  0  0
  -30.6831    6.1118  -10.8952 H   0  0  0  0  0  0  0  0  0  0  0  0
  -32.4073    6.5616  -10.6688 H   0  0  0  0  0  0  0  0  0  0  0  0
  -34.2185    9.6821  -18.0729 H   0  0  0  0  0  0  0  0  0  0  0  0
  -34.5808   11.1710  -17.1355 H   0  0  0  0  0  0  0  0  0  0  0  0
  -31.8566   11.0126  -17.2450 H   0  0  0  0  0  0  0  0  0  0  0  0
  -32.3486   10.5618  -18.7814 H   0  0  0  0  0  0  0  0  0  0  0  0
  -34.8581   12.1921  -19.1330 H   0  0  0  0  0  0  0  0  0  0  0  0
  -33.4854   11.8937  -20.2519 H   0  0  0  0  0  0  0  0  0  0  0  0
  -33.9254   13.5746  -19.7986 H   0  0  0  0  0  0  0  0  0  0  0  0
  -34.3829   12.5455  -16.6744 H   0  0  0  0  0  0  0  0  0  0  0  0
  -33.9104   14.1470  -17.3357 H   0  0  0  0  0  0  0  0  0  0  0  0
  -32.7942   13.2621  -16.2422 H   0  0  0  0  0  0  0  0  0  0  0  0
  -31.1329   12.6781  -19.4728 H   0  0  0  0  0  0  0  0  0  0  0  0
  -30.9057   13.1213  -17.7468 H   0  0  0  0  0  0  0  0  0  0  0  0
  -32.4148   14.9421  -18.2061 H   0  0  0  0  0  0  0  0  0  0  0  0
  1  2  1  0  0  0  0
  1 18  1  0  0  0  0
  1 19  1  0  0  0  0
  1 20  1  0  0  0  0
  2  3  1  0  0  0  0
  2 21  1  0  0  0  0
  2 22  1  0  0  0  0
  3  7  1  0  0  0  0
  3  4  2  0  0  0  0
  4  5  1  0  0  0  0
  5  6  2  0  0  0  0
  6  7  1  0  0  0  0
  6  8  1  0  0  0  0
  8  9  2  0  0  0  0
  9 10  1  0  0  0  0
  9 11  1  0  0  0  0
 11 12  1  0  0  0  0
 11 23  1  0  0  0  0
 11 24  1  0  0  0  0
 12 13  1  0  0  0  0
 12 25  1  0  0  0  0
 12 26  1  0  0  0  0
 13 14  1  0  0  0  0
 13 15  1  0  0  0  0
 13 16  1  0  0  0  0
 14 27  1  0  0  0  0
 14 28  1  0  0  0  0
 14 29  1  0  0  0  0
 15 30  1  0  0  0  0
 15 31  1  0  0  0  0
 15 32  1  0  0  0  0
 16 17  1  0  0  0  0
 16 33  1  0  0  0  0
 16 34  1  0  0  0  0
 17 35  1  0  0  0  0
M  END
> <Name>
ZINC21264479

> <reference>
BDB4995

> <quality>
0.774

> <status>
decoy

> <atoms in reference ligand area>
10

> <score>
-15.3959

$$$$
ZINC04226596
      BALL 1.4.0 (Jan  4 2012, 23:22:29)

 38 39  0999  0  0  0  0  0  0999 V2000
  -31.2602   10.9356  -24.8330 C   0  0  0  0  0  0  0  0  0  0  0  0
  -30.9969    9.5204  -24.3146 C   0  0  0  0  0  0  0  0  0  0  0  0
  -32.3146    8.7451  -24.2566 C   0  0  0  0  0  0  0  0  0  0  0  0
  -32.1796    7.4492  -25.0588 C   0  0  0  0  0  0  0  0  0  0  0  0
  -33.0612    7.4908  -26.1826 O   0  0  0  0  0  0  0  0  0  0  0  0
  -32.6322    8.4256  -22.8626 N   0  0  0  0  0  0  0  0  0  0  0  0
  -32.7006    9.4369  -21.9186 C   0  0  0  0  0  0  0  0  0  0  0  0
  -32.2831   10.7257  -22.2185 C   0  0  0  0  0  0  0  0  0  0  0  0
  -32.3644   11.7155  -21.2515 C   0  0  0  0  0  0  0  0  0  0  0  0
  -33.2554   10.2577  -19.6921 C   0  0  0  0  0  0  0  0  0  0  0  0
  -33.2068    9.1906  -20.6193 C   0  0  0  0  0  0  0  0  0  0  0  0
  -33.6504    7.9161  -20.2413 C   0  0  0  0  0  0  0  0  0  0  0  0
  -34.1296    7.7034  -18.9811 C   0  0  0  0  0  0  0  0  0  0  0  0
  -34.1869    8.7342  -18.0544 C   0  0  0  0  0  0  0  0  0  0  0  0
  -33.7571   10.0120  -18.3880 C   0  0  0  0  0  0  0  0  0  0  0  0
  -33.8218   11.1005  -17.3988 C   0  0  0  0  0  0  0  0  0  0  0  0
  -33.4444   12.2164  -17.6976 O   0  0  0  0  0  0  0  0  0  0  0  0
  -31.9034   13.1099  -21.5897 C   0  0  0  0  0  0  0  0  0  0  0  0
  -32.8362   11.5312  -19.9945 N   0  3  0  0  0  0  0  0  0  0  0  0
  -34.2998   10.8594  -16.1618 O   0  5  0  0  0  0  0  0  0  0  0  0
  -32.2923   11.0040  -25.2075 H   0  0  0  0  0  0  0  0  0  0  0  0
  -30.5588   11.1648  -25.6489 H   0  0  0  0  0  0  0  0  0  0  0  0
  -31.1191   11.6584  -24.0159 H   0  0  0  0  0  0  0  0  0  0  0  0
  -30.5588    9.5734  -23.3069 H   0  0  0  0  0  0  0  0  0  0  0  0
  -30.2988    9.0059  -24.9913 H   0  0  0  0  0  0  0  0  0  0  0  0
  -33.1204    9.3591  -24.6850 H   0  0  0  0  0  0  0  0  0  0  0  0
  -32.4409    6.5925  -24.4202 H   0  0  0  0  0  0  0  0  0  0  0  0
  -31.1429    7.3417  -25.4104 H   0  0  0  0  0  0  0  0  0  0  0  0
  -32.9356    8.3430  -26.6705 H   0  0  0  0  0  0  0  0  0  0  0  0
  -32.8047    7.4490  -22.5845 H   0  0  0  0  0  0  0  0  0  0  0  0
  -31.8896   10.9607  -23.2184 H   0  0  0  0  0  0  0  0  0  0  0  0
  -33.6123    7.0856  -20.9616 H   0  0  0  0  0  0  0  0  0  0  0  0
  -34.4757    6.6990  -18.6959 H   0  0  0  0  0  0  0  0  0  0  0  0
  -34.5769    8.5374  -17.0448 H   0  0  0  0  0  0  0  0  0  0  0  0
  -32.4931   13.4080  -22.4691 H   0  0  0  0  0  0  0  0  0  0  0  0
  -30.8585   13.0018  -21.9158 H   0  0  0  0  0  0  0  0  0  0  0  0
  -32.0087   13.8207  -20.7568 H   0  0  0  0  0  0  0  0  0  0  0  0
  -32.8780   12.2980  -19.3082 H   0  0  0  0  0  0  0  0  0  0  0  0
  1  2  1  0  0  0  0
  1 21  1  0  0  0  0
  1 22  1  0  0  0  0
  1 23  1  0  0  0  0
  2  3  1  0  0  0  0
  2 24  1  0  0  0  0
  2 25  1  0  0  0  0
  3  4  1  0  0  0  0
  3  6  1  0  0  0  0
  3 26  1  0  0  0  0
  4  5  1  0  0  0  0
  4 27  1  0  0  0  0
  4 28  1  0  0  0  0
  5 29  1  0  0  0  0
  6  7  1  0  0  0  0
  6 30  1  0  0  0  0
  7 11  2  0  0  0  0
  7  8  1  0  0  0  0
  8  9  2  0  0  0  0
  8 31  1  0  0  0  0
  9 18  1  0  0  0  0
  9 19  1  0  0  0  0
 10 15  1  0  0  0  0
 10 11  1  0  0  0  0
 10 19  2  0  0  0  0
 11 12  1  0  0  0  0
 12 13  2  0  0  0  0
 12 32  1  0  0  0  0
 13 14  1  0  0  0  0
 13 33  1  0  0  0  0
 14 15  2  0  0  0  0
 14 34  1  0  0  0  0
 15 16  1  0  0  0  0
 16 17  2  0  0  0  0
 16 20  1  0  0  0  0
 18 35  1  0  0  0  0
 18 36  1  0  0  0  0
 18 37  1  0  0  0  0
 19 38  1  0  0  0  0
M  END
> <Name>
ZINC04226596

> <reference>
BDB5233

> <quality>
0.772

> <status>
decoy

> <atoms in reference ligand area>
13

> <score>
-14.9032

$$$$
ZINC05736586
      BALL 1.4.0 (Jan  4 2012, 23:22:29)

 51 52  0999  0  0  0  0  0  0999 V2000
  -26.6750    7.4747  -16.2186 C   0  0  0  0  0  0  0  0  0  0  0  0
  -27.7785    7.4116  -15.1605 C   0  0  0  0  0  0  0  0  0  0  0  0
  -29.1305    7.2027  -15.8456 C   0  0  0  0  0  0  0  0  0  0  0  0
  -29.1954    5.7880  -16.4247 C   0  0  0  0  0  0  0  0  0  0  0  0
  -29.3934    5.8625  -17.8744 N   0  0  0  0  0  0  0  0  0  0  0  0
  -30.6343    6.0893  -18.3550 C   0  0  0  0  0  0  0  0  0  0  0  0
  -31.5805    6.2317  -17.6106 O   0  0  0  0  0  0  0  0  0  0  0  0
  -30.8007    6.1600  -19.8612 C   0  5  0  0  0  0  0  0  0  0  0  0
  -29.5414    5.9665  -20.6847 C   0  0  0  0  0  0  0  0  0  0  0  0
  -29.5704    6.0049  -21.8961 O   0  0  0  0  0  0  0  0  0  0  0  0
  -28.3876    5.7494  -20.0186 N   0  0  0  0  0  0  0  0  0  0  0  0
  -28.3389    5.7033  -18.6824 C   0  0  0  0  0  0  0  0  0  0  0  0
  -27.2583    5.5027  -18.1649 O   0  0  0  0  0  0  0  0  0  0  0  0
  -31.3841    7.5061  -20.2058 C   0  0  0  0  0  0  0  0  0  0  0  0
  -31.8098    7.7466  -21.4319 C   0  0  0  0  0  0  0  0  0  0  0  0
  -31.8246    6.6401  -22.4549 C   0  0  0  0  0  0  0  0  0  0  0  0
  -31.4737    8.4940  -19.2332 N   0  0  0  0  0  0  0  0  0  0  0  0
  -31.9091    9.7446  -19.5681 N   0  0  0  0  0  0  0  0  0  0  0  0
  -31.0976   10.3115  -20.6543 C   0  0  0  0  0  0  0  0  0  0  0  0
  -31.5650   11.7396  -20.9448 C   0  0  0  0  0  0  0  0  0  0  0  0
  -33.8001   11.1549  -20.2227 C   0  0  0  0  0  0  0  0  0  0  0  0
  -33.3327    9.7268  -19.9323 C   0  0  0  0  0  0  0  0  0  0  0  0
  -33.4569   13.0667  -21.6691 C   0  0  0  0  0  0  0  0  0  0  0  0
  -32.9914   11.7047  -21.3309 N   0  3  0  0  0  0  0  0  0  0  0  0
  -26.4091    8.5247  -16.4103 H   0  0  0  0  0  0  0  0  0  0  0  0
  -27.0320    7.0115  -17.1503 H   0  0  0  0  0  0  0  0  0  0  0  0
  -25.7884    6.9331  -15.8574 H   0  0  0  0  0  0  0  0  0  0  0  0
  -27.5821    6.5739  -14.4751 H   0  0  0  0  0  0  0  0  0  0  0  0
  -27.7977    8.3534  -14.5925 H   0  0  0  0  0  0  0  0  0  0  0  0
  -29.9383    7.3350  -15.1108 H   0  0  0  0  0  0  0  0  0  0  0  0
  -29.2489    7.9360  -16.6569 H   0  0  0  0  0  0  0  0  0  0  0  0
  -28.2543    5.2603  -16.2102 H   0  0  0  0  0  0  0  0  0  0  0  0
  -30.0342    5.2419  -15.9684 H   0  0  0  0  0  0  0  0  0  0  0  0
  -27.5186    5.6152  -20.5551 H   0  0  0  0  0  0  0  0  0  0  0  0
  -32.1537    8.7546  -21.7069 H   0  0  0  0  0  0  0  0  0  0  0  0
  -32.4348    7.0236  -23.2859 H   0  0  0  0  0  0  0  0  0  0  0  0
  -32.3879    5.8204  -21.9851 H   0  0  0  0  0  0  0  0  0  0  0  0
  -30.8216    6.3271  -22.7804 H   0  0  0  0  0  0  0  0  0  0  0  0
  -31.2118    8.2834  -18.2596 H   0  0  0  0  0  0  0  0  0  0  0  0
  -30.0398   10.3263  -20.3529 H   0  0  0  0  0  0  0  0  0  0  0  0
  -31.2133    9.6971  -21.5594 H   0  0  0  0  0  0  0  0  0  0  0  0
  -30.9713   12.1622  -21.7687 H   0  0  0  0  0  0  0  0  0  0  0  0
  -31.4430   12.3577  -20.0431 H   0  0  0  0  0  0  0  0  0  0  0  0
  -34.8613   11.1435  -20.5121 H   0  0  0  0  0  0  0  0  0  0  0  0
  -33.6658   11.7772  -19.3256 H   0  0  0  0  0  0  0  0  0  0  0  0
  -33.9203    9.3113  -19.1003 H   0  0  0  0  0  0  0  0  0  0  0  0
  -33.4745    9.1053  -20.8288 H   0  0  0  0  0  0  0  0  0  0  0  0
  -32.8893   13.8017  -21.0794 H   0  0  0  0  0  0  0  0  0  0  0  0
  -34.5267   13.1554  -21.4291 H   0  0  0  0  0  0  0  0  0  0  0  0
  -33.3028   13.2564  -22.7416 H   0  0  0  0  0  0  0  0  0  0  0  0
  -33.1003   11.0997  -22.1573 H   0  0  0  0  0  0  0  0  0  0  0  0
  1  2  1  0  0  0  0
  1 25  1  0  0  0  0
  1 26  1  0  0  0  0
  1 27  1  0  0  0  0
  2  3  1  0  0  0  0
  2 28  1  0  0  0  0
  2 29  1  0  0  0  0
  3  4  1  0  0  0  0
  3 30  1  0  0  0  0
  3 31  1  0  0  0  0
  4  5  1  0  0  0  0
  4 32  1  0  0  0  0
  4 33  1  0  0  0  0
  5 12  1  0  0  0  0
  5  6  1  0  0  0  0
  6  7  2  0  0  0  0
  6  8  1  0  0  0  0
  8  9  1  0  0  0  0
  8 14  1  0  0  0  0
  9 10  2  0  0  0  0
  9 11  1  0  0  0  0
 11 12  1  0  0  0  0
 11 34  1  0  0  0  0
 12 13  2  0  0  0  0
 14 15  2  0  0  0  0
 14 17  1  0  0  0  0
 15 16  1  0  0  0  0
 15 35  1  0  0  0  0
 16 36  1  0  0  0  0
 16 37  1  0  0  0  0
 16 38  1  0  0  0  0
 17 18  1  0  0  0  0
 17 39  1  0  0  0  0
 18 22  1  0  0  0  0
 18 19  1  0  0  0  0
 19 20  1  0  0  0  0
 19 40  1  0  0  0  0
 19 41  1  0  0  0  0
 20 24  1  0  0  0  0
 20 42  1  0  0  0  0
 20 43  1  0  0  0  0
 21 22  1  0  0  0  0
 21 24  1  0  0  0  0
 21 44  1  0  0  0  0
 21 45  1  0  0  0  0
 22 46  1  0  0  0  0
 22 47  1  0  0  0  0
 23 24  1  0  0  0  0
 23 48  1  0  0  0  0
 23 49  1  0  0  0  0
 23 50  1  0  0  0  0
 24 51  1  0  0  0  0
M  END
> <Name>
ZINC05736586

> <reference>
BDB5195

> <quality>
0.766

> <status>
decoy

> <atoms in reference ligand area>
12

> <score>
-14.8325

$$$$
ZINC10315608
      BALL 1.4.0 (Jan  4 2012, 23:22:29)

 40 41  0999  0  0  0  0  0  0999 V2000
  -30.0759   10.5082  -18.6398 C   0  0  0  0  0  0  0  0  0  0  0  0
  -29.7199   11.8126  -18.9133 C   0  0  0  0  0  0  0  0  0  0  0  0
  -30.6026   12.8516  -18.6118 C   0  0  0  0  0  0  0  0  0  0  0  0
  -31.8430   12.5616  -18.0399 C   0  0  0  0  0  0  0  0  0  0  0  0
  -32.1883   11.2524  -17.7766 C   0  0  0  0  0  0  0  0  0  0  0  0
  -31.3088   10.2276  -18.0779 C   0  0  0  0  0  0  0  0  0  0  0  0
  -31.6928    8.7996  -17.7869 C   0  0  0  0  0  0  0  0  0  0  0  0
  -30.7704    6.5929  -18.1639 C   0  0  0  0  0  0  0  0  0  0  0  0
  -29.8554    6.7697  -16.9506 C   0  0  0  0  0  0  0  0  0  0  0  0
  -29.7788    5.5087  -16.2088 N   0  0  0  0  0  0  0  0  0  0  0  0
  -28.9973    5.4239  -15.0543 C   0  0  0  0  0  0  0  0  0  0  0  0
  -28.2875    6.5327  -14.6111 C   0  0  0  0  0  0  0  0  0  0  0  0
  -27.5204    6.4470  -13.4659 C   0  0  0  0  0  0  0  0  0  0  0  0
  -27.4492    5.2559  -12.7670 C   0  0  0  0  0  0  0  0  0  0  0  0
  -28.1500    4.1486  -13.2085 C   0  0  0  0  0  0  0  0  0  0  0  0
  -28.9236    4.2289  -14.3498 C   0  0  0  0  0  0  0  0  0  0  0  0
  -26.6216    5.1663  -11.5433 N   0  0  0  0  0  0  0  0  0  0  0  0
  -26.3041    6.1799  -10.9472 O   0  0  0  0  0  0  0  0  0  0  0  0
  -26.2578    4.0789  -11.1324 O   0  0  0  0  0  0  0  0  0  0  0  0
  -30.2262   14.2513  -18.8971 C   0  0  0  0  0  0  0  0  0  0  0  0
  -29.1526   14.6797  -18.5238 O   0  0  0  0  0  0  0  0  0  0  0  0
  -31.0356    7.9133  -18.7658 N   0  3  0  0  0  0  0  0  0  0  0  0
  -31.0735   15.0527  -19.5713 O   0  5  0  0  0  0  0  0  0  0  0  0
  -29.3781    9.6894  -18.8690 H   0  0  0  0  0  0  0  0  0  0  0  0
  -28.7428   12.0336  -19.3679 H   0  0  0  0  0  0  0  0  0  0  0  0
  -32.5432   13.3753  -17.8000 H   0  0  0  0  0  0  0  0  0  0  0  0
  -33.1651   11.0224  -17.3261 H   0  0  0  0  0  0  0  0  0  0  0  0
  -31.3666    8.5309  -16.7714 H   0  0  0  0  0  0  0  0  0  0  0  0
  -32.7843    8.6881  -17.8660 H   0  0  0  0  0  0  0  0  0  0  0  0
  -30.2787    5.9443  -18.9038 H   0  0  0  0  0  0  0  0  0  0  0  0
  -31.7198    6.1372  -17.8462 H   0  0  0  0  0  0  0  0  0  0  0  0
  -28.8490    7.0572  -17.2889 H   0  0  0  0  0  0  0  0  0  0  0  0
  -30.2604    7.5554  -16.2958 H   0  0  0  0  0  0  0  0  0  0  0  0
  -30.3013    4.6846  -16.5387 H   0  0  0  0  0  0  0  0  0  0  0  0
  -28.3364    7.4780  -15.1717 H   0  0  0  0  0  0  0  0  0  0  0  0
  -26.9653    7.3271  -13.1093 H   0  0  0  0  0  0  0  0  0  0  0  0
  -28.0914    3.2027  -12.6500 H   0  0  0  0  0  0  0  0  0  0  0  0
  -29.4807    3.3477  -14.7005 H   0  0  0  0  0  0  0  0  0  0  0  0
  -31.6476    7.7972  -19.5861 H   0  0  0  0  0  0  0  0  0  0  0  0
  -30.1455    8.3355  -19.0664 H   0  0  0  0  0  0  0  0  0  0  0  0
  1  6  2  0  0  0  0
  1  2  1  0  0  0  0
  1 24  1  0  0  0  0
  2  3  2  0  0  0  0
  2 25  1  0  0  0  0
  3  4  1  0  0  0  0
  3 20  1  0  0  0  0
  4  5  2  0  0  0  0
  4 26  1  0  0  0  0
  5  6  1  0  0  0  0
  5 27  1  0  0  0  0
  6  7  1  0  0  0  0
  7 22  1  0  0  0  0
  7 28  1  0  0  0  0
  7 29  1  0  0  0  0
  8  9  1  0  0  0  0
  8 22  1  0  0  0  0
  8 30  1  0  0  0  0
  8 31  1  0  0  0  0
  9 10  1  0  0  0  0
  9 32  1  0  0  0  0
  9 33  1  0  0  0  0
 10 11  1  0  0  0  0
 10 34  1  0  0  0  0
 11 16  2  0  0  0  0
 11 12  1  0  0  0  0
 12 13  2  0  0  0  0
 12 35  1  0  0  0  0
 13 14  1  0  0  0  0
 13 36  1  0  0  0  0
 14 15  2  0  0  0  0
 14 17  1  0  0  0  0
 15 16  1  0  0  0  0
 15 37  1  0  0  0  0
 16 38  1  0  0  0  0
 17 18  2  0  0  0  0
 17 19  2  0  0  0  0
 20 21  2  0  0  0  0
 20 23  1  0  0  0  0
 22 39  1  0  0  0  0
 22 40  1  0  0  0  0
M  END
> <Name>
ZINC10315608

> <reference>
BDB5013

> <quality>
0.756

> <status>
decoy

> <atoms in reference ligand area>
10

> <score>
-14.747

$$$$
ZINC16298324
      BALL 1.4.0 (Jan  4 2012, 23:22:29)

 53 55  0999  0  0  0  0  0  0999 V2000
  -34.7855    8.7853  -25.8856 C   0  0  0  0  0  0  0  0  0  0  0  0
  -34.6533    7.2848  -25.8440 C   0  0  0  0  0  0  0  0  0  0  0  0
  -35.5666    6.5299  -25.1319 C   0  0  0  0  0  0  0  0  0  0  0  0
  -35.4452    5.1534  -25.0938 C   0  0  0  0  0  0  0  0  0  0  0  0
  -34.4111    4.5317  -25.7684 C   0  0  0  0  0  0  0  0  0  0  0  0
  -33.4951    5.2869  -26.4765 C   0  0  0  0  0  0  0  0  0  0  0  0
  -33.6189    6.6631  -26.5183 C   0  0  0  0  0  0  0  0  0  0  0  0
  -34.2565    2.7771  -25.7199 S   0  0  0  0  0  0  0  0  0  0  0  0
  -32.9394    2.4732  -26.1583 O   0  0  0  0  0  0  0  0  0  0  0  0
  -35.4121    2.2499  -26.3569 O   0  0  0  0  0  0  0  0  0  0  0  0
  -34.3431    2.3218  -24.1301 N   0  0  0  0  0  0  0  0  0  0  0  0
  -34.8397    3.2640  -23.1242 C   0  0  0  0  0  0  0  0  0  0  0  0
  -33.7821    4.2992  -22.8401 C   0  0  0  0  0  0  0  0  0  0  0  0
  -32.6602    4.1559  -23.2778 O   0  0  0  0  0  0  0  0  0  0  0  0
  -34.0831    5.3844  -22.0996 N   0  0  0  0  0  0  0  0  0  0  0  0
  -33.0550    6.3909  -21.8235 C   0  0  0  0  0  0  0  0  0  0  0  0
  -33.6945    7.6037  -21.1982 C   0  0  0  0  0  0  0  0  0  0  0  0
  -33.4909    7.8628  -20.0309 O   0  0  0  0  0  0  0  0  0  0  0  0
  -34.4926    8.4006  -21.9361 N   0  0  0  0  0  0  0  0  0  0  0  0
  -35.1144    9.5796  -21.3283 C   0  0  0  0  0  0  0  0  0  0  0  0
  -34.0569   10.6150  -21.0442 C   0  0  0  0  0  0  0  0  0  0  0  0
  -34.1710   11.6350  -20.1724 C   0  0  0  0  0  0  0  0  0  0  0  0
  -32.9593   12.3553  -20.2187 C   0  0  0  0  0  0  0  0  0  0  0  0
  -32.1652   11.7276  -21.1260 C   0  0  0  0  0  0  0  0  0  0  0  0
  -32.8412   10.6704  -21.6147 O   0  0  0  0  0  0  0  0  0  0  0  0
  -30.7947   12.1317  -21.5056 C   0  0  0  0  0  0  0  0  0  0  0  0
  -30.1987   13.2304  -20.9417 C   0  0  0  0  0  0  0  0  0  0  0  0
  -28.6138   13.2043  -21.7663 S   0  0  0  0  0  0  0  0  0  0  0  0
  -28.8887   11.7988  -22.7475 C   0  0  0  0  0  0  0  0  0  0  0  0
  -30.1040   11.4472  -22.4056 N   0  0  0  0  0  0  0  0  0  0  0  0
  -27.9631   11.1473  -23.7423 C   0  0  0  0  0  0  0  0  0  0  0  0
  -35.2022    9.0081  -26.8790 H   0  0  0  0  0  0  0  0  0  0  0  0
  -33.7527    9.1637  -25.8741 H   0  0  0  0  0  0  0  0  0  0  0  0
  -35.3955    9.2012  -25.0702 H   0  0  0  0  0  0  0  0  0  0  0  0
  -36.3899    7.0245  -24.5956 H   0  0  0  0  0  0  0  0  0  0  0  0
  -36.1716    4.5528  -24.5267 H   0  0  0  0  0  0  0  0  0  0  0  0
  -32.6677    4.7928  -27.0069 H   0  0  0  0  0  0  0  0  0  0  0  0
  -32.8943    7.2635  -27.0879 H   0  0  0  0  0  0  0  0  0  0  0  0
  -34.0477    1.3760  -23.8485 H   0  0  0  0  0  0  0  0  0  0  0  0
  -35.0784    2.7210  -22.1978 H   0  0  0  0  0  0  0  0  0  0  0  0
  -35.7457    3.7602  -23.5022 H   0  0  0  0  0  0  0  0  0  0  0  0
  -35.0359    5.5061  -21.7278 H   0  0  0  0  0  0  0  0  0  0  0  0
  -32.5622    6.6807  -22.7633 H   0  0  0  0  0  0  0  0  0  0  0  0
  -32.3087    5.9728  -21.1318 H   0  0  0  0  0  0  0  0  0  0  0  0
  -34.6654    8.1806  -22.9273 H   0  0  0  0  0  0  0  0  0  0  0  0
  -35.8604    9.9984  -22.0197 H   0  0  0  0  0  0  0  0  0  0  0  0
  -35.6070    9.2920  -20.3877 H   0  0  0  0  0  0  0  0  0  0  0  0
  -35.0440   11.8633  -19.5433 H   0  0  0  0  0  0  0  0  0  0  0  0
  -32.7058   13.2517  -19.6336 H   0  0  0  0  0  0  0  0  0  0  0  0
  -30.5883   13.9328  -20.1902 H   0  0  0  0  0  0  0  0  0  0  0  0
  -27.2430   11.9641  -23.8985 H   0  0  0  0  0  0  0  0  0  0  0  0
  -28.5928   11.1842  -24.6435 H   0  0  0  0  0  0  0  0  0  0  0  0
  -27.5193   10.1659  -23.5189 H   0  0  0  0  0  0  0  0  0  0  0  0
  1  2  1  0  0  0  0
  1 32  1  0  0  0  0
  1 33  1  0  0  0  0
  1 34  1  0  0  0  0
  2  7  2  0  0  0  0
  2  3  1  0  0  0  0
  3  4  2  0  0  0  0
  3 35  1  0  0  0  0
  4  5  1  0  0  0  0
  4 36  1  0  0  0  0
  5  6  2  0  0  0  0
  5  8  1  0  0  0  0
  6  7  1  0  0  0  0
  6 37  1  0  0  0  0
  7 38  1  0  0  0  0
  8  9  2  0  0  0  0
  8 10  2  0  0  0  0
  8 11  1  0  0  0  0
 11 12  1  0  0  0  0
 11 39  1  0  0  0  0
 12 13  1  0  0  0  0
 12 40  1  0  0  0  0
 12 41  1  0  0  0  0
 13 14  2  0  0  0  0
 13 15  1  0  0  0  0
 15 16  1  0  0  0  0
 15 42  1  0  0  0  0
 16 17  1  0  0  0  0
 16 43  1  0  0  0  0
 16 44  1  0  0  0  0
 17 18  2  0  0  0  0
 17 19  1  0  0  0  0
 19 20  1  0  0  0  0
 19 45  1  0  0  0  0
 20 21  1  0  0  0  0
 20 46  1  0  0  0  0
 20 47  1  0  0  0  0
 21 25  1  0  0  0  0
 21 22  2  0  0  0  0
 22 23  1  0  0  0  0
 22 48  1  0  0  0  0
 23 24  2  0  0  0  0
 23 49  1  0  0  0  0
 24 25  1  0  0  0  0
 24 26  1  0  0  0  0
 26 30  1  0  0  0  0
 26 27  2  0  0  0  0
 27 28  1  0  0  0  0
 27 50  1  0  0  0  0
 28 29  1  0  0  0  0
 29 30  2  0  0  0  0
 29 31  1  0  0  0  0
 31 51  1  0  0  0  0
 31 52  1  0  0  0  0
 31 53  1  0  0  0  0
M  END
> <Name>
ZINC16298324

> <reference>
BDB4972

> <quality>
0.665

> <status>
decoy

> <atoms in reference ligand area>
16

> <score>
-13.3615

$$$$
ZINC17255921
      BALL 1.4.0 (Jan  4 2012, 23:22:29)

 54 56  0999  0  0  0  0  0  0999 V2000
  -35.3864    2.1768  -31.4916 C   0  0  0  0  0  0  0  0  0  0  0  0
  -35.5018    0.9758  -30.5507 C   0  0  0  0  0  0  0  0  0  0  0  0
  -35.1498    1.3865  -29.1893 N   0  0  0  0  0  0  0  0  0  0  0  0
  -34.1786    0.6075  -28.4171 C   0  0  0  0  0  0  0  0  0  0  0  0
  -32.7611    0.9812  -28.8552 C   0  0  0  0  0  0  0  0  0  0  0  0
  -35.7263    2.4941  -28.6404 C   0  0  0  0  0  0  0  0  0  0  0  0
  -36.9295    2.9858  -28.8887 N   0  0  0  0  0  0  0  0  0  0  0  0
  -37.4173    4.0574  -28.3215 C   0  0  0  0  0  0  0  0  0  0  0  0
  -38.5268    4.4892  -28.5670 O   0  0  0  0  0  0  0  0  0  0  0  0
  -36.4723    4.7179  -27.3248 C   0  5  0  0  0  0  0  0  0  0  0  0
  -35.0439    3.5708  -27.4615 S   0  0  0  0  0  0  0  0  0  0  0  0
  -37.0589    4.7141  -25.9117 C   0  0  0  0  0  0  0  0  0  0  0  0
  -36.0554    5.2964  -24.9498 C   0  0  0  0  0  0  0  0  0  0  0  0
  -34.9774    5.6770  -25.3547 O   0  0  0  0  0  0  0  0  0  0  0  0
  -36.3540    5.3891  -23.6388 N   0  0  0  0  0  0  0  0  0  0  0  0
  -35.3865    5.8340  -22.7306 C   0  0  0  0  0  0  0  0  0  0  0  0
  -35.3433    5.3042  -21.4464 C   0  0  0  0  0  0  0  0  0  0  0  0
  -34.3862    5.7360  -20.5475 C   0  0  0  0  0  0  0  0  0  0  0  0
  -33.4742    6.7045  -20.9156 C   0  0  0  0  0  0  0  0  0  0  0  0
  -33.5130    7.2470  -22.2010 C   0  0  0  0  0  0  0  0  0  0  0  0
  -34.4753    6.8069  -23.1100 C   0  0  0  0  0  0  0  0  0  0  0  0
  -32.5376    8.2850  -22.5979 C   0  0  0  0  0  0  0  0  0  0  0  0
  -32.0472    8.2648  -23.7098 O   0  0  0  0  0  0  0  0  0  0  0  0
  -32.1922    9.2535  -21.7266 N   0  0  0  0  0  0  0  0  0  0  0  0
  -31.1220   10.1092  -22.0184 N   0  0  0  0  0  0  0  0  0  0  0  0
  -31.0174   11.2963  -21.3890 C   0  0  0  0  0  0  0  0  0  0  0  0
  -29.9208   11.7850  -21.1899 O   0  0  0  0  0  0  0  0  0  0  0  0
  -32.2252   11.9994  -20.9441 C   0  0  0  0  0  0  0  0  0  0  0  0
  -33.5104   11.6690  -21.2658 C   0  0  0  0  0  0  0  0  0  0  0  0
  -34.3395   12.6036  -20.6260 C   0  0  0  0  0  0  0  0  0  0  0  0
  -33.5343   13.4528  -19.9505 C   0  0  0  0  0  0  0  0  0  0  0  0
  -32.2613   13.0825  -20.1405 O   0  0  0  0  0  0  0  0  0  0  0  0
  -36.0714    2.9710  -31.1599 H   0  0  0  0  0  0  0  0  0  0  0  0
  -35.6503    1.8695  -32.5143 H   0  0  0  0  0  0  0  0  0  0  0  0
  -34.3537    2.5557  -31.4787 H   0  0  0  0  0  0  0  0  0  0  0  0
  -36.5346    0.5977  -30.5636 H   0  0  0  0  0  0  0  0  0  0  0  0
  -34.8164    0.1818  -30.8822 H   0  0  0  0  0  0  0  0  0  0  0  0
  -34.3006    0.8270  -27.3462 H   0  0  0  0  0  0  0  0  0  0  0  0
  -34.3449   -0.4656  -28.5929 H   0  0  0  0  0  0  0  0  0  0  0  0
  -32.3116    0.1399  -29.4031 H   0  0  0  0  0  0  0  0  0  0  0  0
  -32.1504    1.2091  -27.9692 H   0  0  0  0  0  0  0  0  0  0  0  0
  -32.7998    1.8646  -29.5095 H   0  0  0  0  0  0  0  0  0  0  0  0
  -37.2945    3.6816  -25.6142 H   0  0  0  0  0  0  0  0  0  0  0  0
  -37.9771    5.3195  -25.8941 H   0  0  0  0  0  0  0  0  0  0  0  0
  -37.2941    5.1325  -23.3053 H   0  0  0  0  0  0  0  0  0  0  0  0
  -36.0732    4.5387  -21.1444 H   0  0  0  0  0  0  0  0  0  0  0  0
  -34.3512    5.3064  -19.5355 H   0  0  0  0  0  0  0  0  0  0  0  0
  -32.7169    7.0487  -20.1960 H   0  0  0  0  0  0  0  0  0  0  0  0
  -34.5109    7.2307  -24.1244 H   0  0  0  0  0  0  0  0  0  0  0  0
  -32.7150    9.3645  -20.8461 H   0  0  0  0  0  0  0  0  0  0  0  0
  -30.4152    9.8310  -22.7140 H   0  0  0  0  0  0  0  0  0  0  0  0
  -33.8334   10.8324  -21.9028 H   0  0  0  0  0  0  0  0  0  0  0  0
  -35.4382   12.6382  -20.6669 H   0  0  0  0  0  0  0  0  0  0  0  0
  -33.8692   14.3075  -19.3444 H   0  0  0  0  0  0  0  0  0  0  0  0
  1  2  1  0  0  0  0
  1 33  1  0  0  0  0
  1 34  1  0  0  0  0
  1 35  1  0  0  0  0
  2  3  1  0  0  0  0
  2 36  1  0  0  0  0
  2 37  1  0  0  0  0
  3  4  1  0  0  0  0
  3  6  1  0  0  0  0
  4  5  1  0  0  0  0
  4 38  1  0  0  0  0
  4 39  1  0  0  0  0
  5 40  1  0  0  0  0
  5 41  1  0  0  0  0
  5 42  1  0  0  0  0
  6 11  1  0  0  0  0
  6  7  2  0  0  0  0
  7  8  1  0  0  0  0
  8  9  2  0  0  0  0
  8 10  1  0  0  0  0
 10 11  1  0  0  0  0
 10 12  1  0  0  0  0
 12 13  1  0  0  0  0
 12 43  1  0  0  0  0
 12 44  1  0  0  0  0
 13 14  2  0  0  0  0
 13 15  1  0  0  0  0
 15 16  1  0  0  0  0
 15 45  1  0  0  0  0
 16 21  2  0  0  0  0
 16 17  1  0  0  0  0
 17 18  2  0  0  0  0
 17 46  1  0  0  0  0
 18 19  1  0  0  0  0
 18 47  1  0  0  0  0
 19 20  2  0  0  0  0
 19 48  1  0  0  0  0
 20 21  1  0  0  0  0
 20 22  1  0  0  0  0
 21 49  1  0  0  0  0
 22 23  2  0  0  0  0
 22 24  1  0  0  0  0
 24 25  1  0  0  0  0
 24 50  1  0  0  0  0
 25 26  1  0  0  0  0
 25 51  1  0  0  0  0
 26 27  2  0  0  0  0
 26 28  1  0  0  0  0
 28 32  1  0  0  0  0
 28 29  2  0  0  0  0
 29 30  1  0  0  0  0
 29 52  1  0  0  0  0
 30 31  2  0  0  0  0
 30 53  1  0  0  0  0
 31 32  1  0  0  0  0
 31 54  1  0  0  0  0
M  END
> <Name>
ZINC17255921

> <reference>
BDB4972

> <quality>
0.751

> <status>
decoy

> <atoms in reference ligand area>
10

> <score>
-13.2118

$$$$
ZINC29491643
      BALL 1.4.0 (Jan  4 2012, 23:22:29)

 46 47  0999  0  0  0  0  0  0999 V2000
  -38.0529    5.1243  -12.6570 C   0  0  0  0  0  0  0  0  0  0  0  0
  -37.7695    6.1509  -13.6629 N   0  0  0  0  0  0  0  0  0  0  0  0
  -38.1309    7.5473  -13.4063 C   0  0  0  0  0  0  0  0  0  0  0  0
  -38.6579    8.1932  -14.6984 C   0  0  0  0  0  0  0  0  0  0  0  0
  -38.7376    9.7292  -14.5261 C   0  0  0  0  0  0  0  0  0  0  0  0
  -37.4194   10.0658  -13.2885 S   0  0  0  0  0  0  0  0  0  0  0  0
  -38.0134   10.6038  -12.1151 O   0  0  0  0  0  0  0  0  0  0  0  0
  -36.3593   10.7688  -13.9218 O   0  0  0  0  0  0  0  0  0  0  0  0
  -36.8738    8.3395  -12.9466 C   0  0  0  0  0  0  0  0  0  0  0  0
  -37.1761    5.8109  -14.8243 C   0  0  0  0  0  0  0  0  0  0  0  0
  -37.2010    4.6593  -15.2036 O   0  0  0  0  0  0  0  0  0  0  0  0
  -36.4815    6.8619  -15.6514 C   0  0  0  0  0  0  0  0  0  0  0  0
  -35.7899    6.0986  -17.1397 S   0  0  0  0  0  0  0  0  0  0  0  0
  -35.0591    7.5117  -17.8970 C   0  0  0  0  0  0  0  0  0  0  0  0
  -33.8159    7.8341  -17.6233 N   0  0  0  0  0  0  0  0  0  0  0  0
  -33.3453    9.0819  -17.9416 C   0  0  0  0  0  0  0  0  0  0  0  0
  -34.2373   10.1022  -18.2756 C   0  0  0  0  0  0  0  0  0  0  0  0
  -33.7594   11.3563  -18.5949 C   0  0  0  0  0  0  0  0  0  0  0  0
  -32.3941   11.6043  -18.5841 C   0  0  0  0  0  0  0  0  0  0  0  0
  -31.5033   10.5913  -18.2582 C   0  0  0  0  0  0  0  0  0  0  0  0
  -31.9727    9.3357  -17.9321 C   0  0  0  0  0  0  0  0  0  0  0  0
  -31.9272   12.8421  -18.8996 O   0  0  0  0  0  0  0  0  0  0  0  0
  -32.8506   13.9282  -18.8013 C   0  0  0  0  0  0  0  0  0  0  0  0
  -35.7901    8.2765  -18.7740 N   0  3  0  0  0  0  0  0  0  0  0  0
  -37.9249    4.1684  -13.1861 H   0  0  0  0  0  0  0  0  0  0  0  0
  -39.1264    5.2299  -12.4412 H   0  0  0  0  0  0  0  0  0  0  0  0
  -37.4314    5.1925  -11.7520 H   0  0  0  0  0  0  0  0  0  0  0  0
  -38.9044    7.5731  -12.6246 H   0  0  0  0  0  0  0  0  0  0  0  0
  -39.6598    7.7989  -14.9232 H   0  0  0  0  0  0  0  0  0  0  0  0
  -37.9788    7.9540  -15.5301 H   0  0  0  0  0  0  0  0  0  0  0  0
  -38.4998   10.2368  -15.4726 H   0  0  0  0  0  0  0  0  0  0  0  0
  -39.7163   10.0228  -14.1185 H   0  0  0  0  0  0  0  0  0  0  0  0
  -36.7007    8.2072  -11.8684 H   0  0  0  0  0  0  0  0  0  0  0  0
  -36.0033    8.0906  -13.5715 H   0  0  0  0  0  0  0  0  0  0  0  0
  -37.2050    7.6384  -15.9406 H   0  0  0  0  0  0  0  0  0  0  0  0
  -35.6709    7.3166  -15.0630 H   0  0  0  0  0  0  0  0  0  0  0  0
  -33.1943    7.1496  -17.1694 H   0  0  0  0  0  0  0  0  0  0  0  0
  -35.3197    9.9065  -18.2843 H   0  0  0  0  0  0  0  0  0  0  0  0
  -34.4618   12.1609  -18.8584 H   0  0  0  0  0  0  0  0  0  0  0  0
  -30.4213   10.7897  -18.2598 H   0  0  0  0  0  0  0  0  0  0  0  0
  -31.2665    8.5359  -17.6650 H   0  0  0  0  0  0  0  0  0  0  0  0
  -32.6230   14.6044  -19.6385 H   0  0  0  0  0  0  0  0  0  0  0  0
  -32.6095   14.4555  -17.8665 H   0  0  0  0  0  0  0  0  0  0  0  0
  -33.8997   13.5980  -18.8210 H   0  0  0  0  0  0  0  0  0  0  0  0
  -36.7652    8.0236  -18.9888 H   0  0  0  0  0  0  0  0  0  0  0  0
  -35.3628    9.1026  -19.2168 H   0  0  0  0  0  0  0  0  0  0  0  0
  1  2  1  0  0  0  0
  1 25  1  0  0  0  0
  1 26  1  0  0  0  0
  1 27  1  0  0  0  0
  2  3  1  0  0  0  0
  2 10  1  0  0  0  0
  3  9  1  0  0  0  0
  3  4  1  0  0  0  0
  3 28  1  0  0  0  0
  4  5  1  0  0  0  0
  4 29  1  0  0  0  0
  4 30  1  0  0  0  0
  5  6  1  0  0  0  0
  5 31  1  0  0  0  0
  5 32  1  0  0  0  0
  6  7  2  0  0  0  0
  6  8  2  0  0  0  0
  6  9  1  0  0  0  0
  9 33  1  0  0  0  0
  9 34  1  0  0  0  0
 10 11  2  0  0  0  0
 10 12  1  0  0  0  0
 12 13  1  0  0  0  0
 12 35  1  0  0  0  0
 12 36  1  0  0  0  0
 13 14  1  0  0  0  0
 14 15  1  0  0  0  0
 14 24  2  0  0  0  0
 15 16  1  0  0  0  0
 15 37  1  0  0  0  0
 16 21  2  0  0  0  0
 16 17  1  0  0  0  0
 17 18  2  0  0  0  0
 17 38  1  0  0  0  0
 18 19  1  0  0  0  0
 18 39  1  0  0  0  0
 19 20  2  0  0  0  0
 19 22  1  0  0  0  0
 20 21  1  0  0  0  0
 20 40  1  0  0  0  0
 21 41  1  0  0  0  0
 22 23  1  0  0  0  0
 23 42  1  0  0  0  0
 23 43  1  0  0  0  0
 23 44  1  0  0  0  0
 24 45  1  0  0  0  0
 24 46  1  0  0  0  0
M  END
> <Name>
ZINC29491643

> <reference>
BDB4952

> <quality>
0.782

> <status>
decoy

> <atoms in reference ligand area>
10

> <score>
-12.827

$$$$
ZINC06382444
      BALL 1.4.0 (Jan  4 2012, 23:22:29)

 40 41  0999  0  0  0  0  0  0999 V2000
  -29.1673   12.3501  -18.8058 C   0  0  0  0  0  0  0  0  0  0  0  0
  -30.5980   11.8173  -18.9069 C   0  0  0  0  0  0  0  0  0  0  0  0
  -32.1129   11.5363  -17.0390 C   0  0  0  0  0  0  0  0  0  0  0  0
  -31.7437   12.8867  -16.4217 C   0  0  0  0  0  0  0  0  0  0  0  0
  -31.1862    9.5942  -18.1490 C   0  0  0  0  0  0  0  0  0  0  0  0
  -32.5433    9.5394  -18.8535 C   0  0  0  0  0  0  0  0  0  0  0  0
  -33.1827    8.1687  -18.6229 C   0  0  0  0  0  0  0  0  0  0  0  0
  -34.5718    8.1935  -19.0878 N   0  0  0  0  0  0  0  0  0  0  0  0
  -35.5320    7.5688  -18.3764 C   0  0  0  0  0  0  0  0  0  0  0  0
  -35.2905    7.0914  -17.1687 N   0  0  0  0  0  0  0  0  0  0  0  0
  -36.2127    6.5292  -16.3946 C   0  0  0  0  0  0  0  0  0  0  0  0
  -37.5145    6.6597  -16.6230 N   0  0  0  0  0  0  0  0  0  0  0  0
  -37.8441    7.3403  -17.7201 C   0  0  0  0  0  0  0  0  0  0  0  0
  -38.7913    8.1925  -17.9805 N   0  0  0  0  0  0  0  0  0  0  0  0
  -38.5204    8.9029  -19.0831 C   0  0  0  0  0  0  0  0  0  0  0  0
  -37.4256    8.5274  -19.6823 N   0  0  0  0  0  0  0  0  0  0  0  0
  -36.9195    7.3828  -18.9301 C   0  0  0  0  0  0  0  0  0  0  0  0
  -32.3612    9.7505  -20.2551 O   0  0  0  0  0  0  0  0  0  0  0  0
  -30.9265   10.9872  -17.7288 N   0  3  0  0  0  0  0  0  0  0  0  0
  -28.7165   11.9934  -17.8680 H   0  0  0  0  0  0  0  0  0  0  0  0
  -29.1931   13.4498  -18.7995 H   0  0  0  0  0  0  0  0  0  0  0  0
  -28.5736   11.9969  -19.6618 H   0  0  0  0  0  0  0  0  0  0  0  0
  -31.2988   12.6634  -18.9619 H   0  0  0  0  0  0  0  0  0  0  0  0
  -30.6979   11.2097  -19.8184 H   0  0  0  0  0  0  0  0  0  0  0  0
  -32.4308   10.8435  -16.2460 H   0  0  0  0  0  0  0  0  0  0  0  0
  -32.9292   11.6723  -17.7636 H   0  0  0  0  0  0  0  0  0  0  0  0
  -31.7090   12.7987  -15.3258 H   0  0  0  0  0  0  0  0  0  0  0  0
  -32.4892   13.6435  -16.7072 H   0  0  0  0  0  0  0  0  0  0  0  0
  -30.7549   13.1958  -16.7913 H   0  0  0  0  0  0  0  0  0  0  0  0
  -30.3970    9.2654  -18.8412 H   0  0  0  0  0  0  0  0  0  0  0  0
  -31.2033    8.9399  -17.2649 H   0  0  0  0  0  0  0  0  0  0  0  0
  -33.1995   10.3231  -18.4470 H   0  0  0  0  0  0  0  0  0  0  0  0
  -32.6231    7.4043  -19.1819 H   0  0  0  0  0  0  0  0  0  0  0  0
  -33.1602    7.9283  -17.5497 H   0  0  0  0  0  0  0  0  0  0  0  0
  -34.8150    8.6881  -19.9579 H   0  0  0  0  0  0  0  0  0  0  0  0
  -35.8850    5.9322  -15.5308 H   0  0  0  0  0  0  0  0  0  0  0  0
  -39.1585    9.7218  -19.4468 H   0  0  0  0  0  0  0  0  0  0  0  0
  -36.8875    6.4970  -19.5817 H   0  0  0  0  0  0  0  0  0  0  0  0
  -32.8670   10.5533  -20.5374 H   0  0  0  0  0  0  0  0  0  0  0  0
  -30.1273   10.9972  -17.0791 H   0  0  0  0  0  0  0  0  0  0  0  0
  1  2  1  0  0  0  0
  1 20  1  0  0  0  0
  1 21  1  0  0  0  0
  1 22  1  0  0  0  0
  2 19  1  0  0  0  0
  2 23  1  0  0  0  0
  2 24  1  0  0  0  0
  3  4  1  0  0  0  0
  3 19  1  0  0  0  0
  3 25  1  0  0  0  0
  3 26  1  0  0  0  0
  4 27  1  0  0  0  0
  4 28  1  0  0  0  0
  4 29  1  0  0  0  0
  5  6  1  0  0  0  0
  5 19  1  0  0  0  0
  5 30  1  0  0  0  0
  5 31  1  0  0  0  0
  6  7  1  0  0  0  0
  6 18  1  0  0  0  0
  6 32  1  0  0  0  0
  7  8  1  0  0  0  0
  7 33  1  0  0  0  0
  7 34  1  0  0  0  0
  8  9  1  0  0  0  0
  8 35  1  0  0  0  0
  9 17  1  0  0  0  0
  9 10  2  0  0  0  0
 10 11  1  0  0  0  0
 11 12  2  0  0  0  0
 11 36  1  0  0  0  0
 12 13  1  0  0  0  0
 13 17  1  0  0  0  0
 13 14  2  0  0  0  0
 14 15  1  0  0  0  0
 15 16  2  0  0  0  0
 15 37  1  0  0  0  0
 16 17  1  0  0  0  0
 17 38  1  0  0  0  0
 18 39  1  0  0  0  0
 19 40  1  0  0  0  0
M  END
> <Name>
ZINC06382444

> <reference>
BDB5009

> <quality>
0.769

> <status>
decoy

> <atoms in reference ligand area>
11

> <score>
-12.7642

$$$$
ZINC26654237
      BALL 1.4.0 (Jan  4 2012, 23:22:29)

 47 48  0999  0  0  0  0  0  0999 V2000
  -28.8607    5.6723  -15.2798 C   0  0  0  0  0  0  0  0  0  0  0  0
  -29.0341    6.5581  -16.5152 C   0  0  0  0  0  0  0  0  0  0  0  0
  -27.6798    6.7466  -17.2016 C   0  0  0  0  0  0  0  0  0  0  0  0
  -30.0103    5.8925  -17.4872 C   0  0  0  0  0  0  0  0  0  0  0  0
  -30.4603    6.8770  -18.4802 N   0  3  0  0  0  0  0  0  0  0  0  0
  -31.5523    7.7018  -17.9464 C   0  0  0  0  0  0  0  0  0  0  0  0
  -31.6939    8.9489  -18.7805 C   0  0  0  0  0  0  0  0  0  0  0  0
  -30.6470    9.8504  -18.8547 C   0  0  0  0  0  0  0  0  0  0  0  0
  -30.7683   10.9916  -19.6204 C   0  0  0  0  0  0  0  0  0  0  0  0
  -31.9544   11.2409  -20.3126 C   0  0  0  0  0  0  0  0  0  0  0  0
  -33.0087   10.3301  -20.2291 C   0  0  0  0  0  0  0  0  0  0  0  0
  -32.8724    9.1901  -19.4641 C   0  0  0  0  0  0  0  0  0  0  0  0
  -32.0934   12.4644  -21.1309 C   0  0  0  0  0  0  0  0  0  0  0  0
  -33.0691   13.1769  -20.9981 O   0  0  0  0  0  0  0  0  0  0  0  0
  -31.1380   12.7896  -22.0244 N   0  0  0  0  0  0  0  0  0  0  0  0
  -30.8610    6.2181  -19.7306 C   0  0  0  0  0  0  0  0  0  0  0  0
  -31.0090    7.2745  -20.8381 C   0  0  0  0  0  0  0  0  0  0  0  0
  -31.1203    6.5345  -22.2016 C   0  0  0  0  0  0  0  0  0  0  0  0
  -29.8622    5.2085  -21.9692 S   0  0  0  0  0  0  0  0  0  0  0  0
  -28.6145    5.6610  -22.4771 O   0  0  0  0  0  0  0  0  0  0  0  0
  -30.3994    3.9758  -22.4287 O   0  0  0  0  0  0  0  0  0  0  0  0
  -29.7854    5.1800  -20.1319 C   0  0  0  0  0  0  0  0  0  0  0  0
  -27.7890    5.5302  -15.0766 H   0  0  0  0  0  0  0  0  0  0  0  0
  -29.3320    4.6947  -15.4592 H   0  0  0  0  0  0  0  0  0  0  0  0
  -29.3365    6.1538  -14.4128 H   0  0  0  0  0  0  0  0  0  0  0  0
  -29.4305    7.5381  -16.2111 H   0  0  0  0  0  0  0  0  0  0  0  0
  -27.1027    7.5180  -16.6708 H   0  0  0  0  0  0  0  0  0  0  0  0
  -27.8365    7.0595  -18.2444 H   0  0  0  0  0  0  0  0  0  0  0  0
  -27.1240    5.7975  -17.1844 H   0  0  0  0  0  0  0  0  0  0  0  0
  -29.5068    5.0595  -17.9996 H   0  0  0  0  0  0  0  0  0  0  0  0
  -30.8790    5.5098  -16.9315 H   0  0  0  0  0  0  0  0  0  0  0  0
  -29.6672    7.4996  -18.6906 H   0  0  0  0  0  0  0  0  0  0  0  0
  -31.3279    7.9808  -16.9063 H   0  0  0  0  0  0  0  0  0  0  0  0
  -32.4923    7.1313  -17.9784 H   0  0  0  0  0  0  0  0  0  0  0  0
  -29.7159    9.6568  -18.3020 H   0  0  0  0  0  0  0  0  0  0  0  0
  -29.9322   11.7034  -19.6853 H   0  0  0  0  0  0  0  0  0  0  0  0
  -33.9461   10.5207  -20.7721 H   0  0  0  0  0  0  0  0  0  0  0  0
  -33.7025    8.4715  -19.3975 H   0  0  0  0  0  0  0  0  0  0  0  0
  -30.9591   13.7785  -22.2502 H   0  0  0  0  0  0  0  0  0  0  0  0
  -30.5868   12.0492  -22.4814 H   0  0  0  0  0  0  0  0  0  0  0  0
  -31.8234    5.7047  -19.5889 H   0  0  0  0  0  0  0  0  0  0  0  0
  -31.9189    7.8677  -20.6644 H   0  0  0  0  0  0  0  0  0  0  0  0
  -30.1261    7.9307  -20.8454 H   0  0  0  0  0  0  0  0  0  0  0  0
  -32.1181    6.0877  -22.3238 H   0  0  0  0  0  0  0  0  0  0  0  0
  -30.8224    7.1930  -23.0308 H   0  0  0  0  0  0  0  0  0  0  0  0
  -30.0557    4.1799  -19.7624 H   0  0  0  0  0  0  0  0  0  0  0  0
  -28.7901    5.5051  -19.7945 H   0  0  0  0  0  0  0  0  0  0  0  0
  1  2  1  0  0  0  0
  1 23  1  0  0  0  0
  1 24  1  0  0  0  0
  1 25  1  0  0  0  0
  2  3  1  0  0  0  0
  2  4  1  0  0  0  0
  2 26  1  0  0  0  0
  3 27  1  0  0  0  0
  3 28  1  0  0  0  0
  3 29  1  0  0  0  0
  4  5  1  0  0  0  0
  4 30  1  0  0  0  0
  4 31  1  0  0  0  0
  5  6  1  0  0  0  0
  5 16  1  0  0  0  0
  5 32  1  0  0  0  0
  6  7  1  0  0  0  0
  6 33  1  0  0  0  0
  6 34  1  0  0  0  0
  7 12  2  0  0  0  0
  7  8  1  0  0  0  0
  8  9  2  0  0  0  0
  8 35  1  0  0  0  0
  9 10  1  0  0  0  0
  9 36  1  0  0  0  0
 10 11  2  0  0  0  0
 10 13  1  0  0  0  0
 11 12  1  0  0  0  0
 11 37  1  0  0  0  0
 12 38  1  0  0  0  0
 13 14  2  0  0  0  0
 13 15  1  0  0  0  0
 15 39  1  0  0  0  0
 15 40  1  0  0  0  0
 16 22  1  0  0  0  0
 16 17  1  0  0  0  0
 16 41  1  0  0  0  0
 17 18  1  0  0  0  0
 17 42  1  0  0  0  0
 17 43  1  0  0  0  0
 18 19  1  0  0  0  0
 18 44  1  0  0  0  0
 18 45  1  0  0  0  0
 19 20  2  0  0  0  0
 19 21  2  0  0  0  0
 19 22  1  0  0  0  0
 22 46  1  0  0  0  0
 22 47  1  0  0  0  0
M  END
> <Name>
ZINC26654237

> <reference>
BDB5228

> <quality>
0.678

> <status>
decoy

> <atoms in reference ligand area>
10

> <score>
-12.3454

$$$$
ZINC21195156
      BALL 1.4.0 (Jan  4 2012, 23:22:29)

 58 60  0999  0  0  0  0  0  0999 V2000
  -33.3796    6.9800  -28.5481 C   0  0  0  0  0  0  0  0  0  0  0  0
  -32.9296    7.2911  -27.2279 O   0  0  0  0  0  0  0  0  0  0  0  0
  -33.6878    6.8376  -26.1942 C   0  0  0  0  0  0  0  0  0  0  0  0
  -33.4360    5.5892  -25.6449 C   0  0  0  0  0  0  0  0  0  0  0  0
  -34.2060    5.1287  -24.5946 C   0  0  0  0  0  0  0  0  0  0  0  0
  -35.2307    5.9149  -24.0892 C   0  0  0  0  0  0  0  0  0  0  0  0
  -35.4829    7.1631  -24.6388 C   0  0  0  0  0  0  0  0  0  0  0  0
  -34.7129    7.6235  -25.6891 C   0  0  0  0  0  0  0  0  0  0  0  0
  -35.9888    5.4616  -23.0552 O   0  0  0  0  0  0  0  0  0  0  0  0
  -35.6681    5.9520  -21.7519 C   0  0  0  0  0  0  0  0  0  0  0  0
  -34.8506    4.9226  -21.0149 C   0  0  0  0  0  0  0  0  0  0  0  0
  -34.8687    3.7635  -21.3734 O   0  0  0  0  0  0  0  0  0  0  0  0
  -34.0342    5.3213  -19.8659 C   0  0  0  0  0  0  0  0  0  0  0  0
  -34.1256    4.6158  -18.6581 C   0  0  0  0  0  0  0  0  0  0  0  0
  -33.3607    4.9860  -17.5908 C   0  0  0  0  0  0  0  0  0  0  0  0
  -32.4929    6.0710  -17.6880 C   0  0  0  0  0  0  0  0  0  0  0  0
  -32.3932    6.7843  -18.8738 C   0  0  0  0  0  0  0  0  0  0  0  0
  -33.1589    6.4176  -19.9672 C   0  0  0  0  0  0  0  0  0  0  0  0
  -33.0652    7.1107  -21.1289 O   0  0  0  0  0  0  0  0  0  0  0  0
  -31.4516    7.9570  -18.9717 C   0  0  0  0  0  0  0  0  0  0  0  0
  -32.1564    9.1848  -18.5797 N   0  3  0  0  0  0  0  0  0  0  0  0
  -33.3610    9.3846  -19.3975 C   0  0  0  0  0  0  0  0  0  0  0  0
  -34.1074   10.6273  -18.9066 C   0  0  0  0  0  0  0  0  0  0  0  0
  -33.2183   11.7944  -18.9899 N   0  0  0  0  0  0  0  0  0  0  0  0
  -32.0137   11.5946  -18.1722 C   0  0  0  0  0  0  0  0  0  0  0  0
  -31.2673   10.3519  -18.6630 C   0  0  0  0  0  0  0  0  0  0  0  0
  -33.9231   13.0222  -18.5980 C   0  0  0  0  0  0  0  0  0  0  0  0
  -33.0499   14.2365  -18.9204 C   0  0  0  0  0  0  0  0  0  0  0  0
  -33.0591   14.4690  -20.3303 O   0  0  0  0  0  0  0  0  0  0  0  0
  -31.7412    6.4321  -16.6179 O   0  5  0  0  0  0  0  0  0  0  0  0
  -33.9268    7.8650  -28.9047 H   0  0  0  0  0  0  0  0  0  0  0  0
  -34.1015    6.1568  -28.4426 H   0  0  0  0  0  0  0  0  0  0  0  0
  -32.5560    6.7124  -29.2263 H   0  0  0  0  0  0  0  0  0  0  0  0
  -32.6232    4.9657  -26.0457 H   0  0  0  0  0  0  0  0  0  0  0  0
  -34.0064    4.1386  -24.1590 H   0  0  0  0  0  0  0  0  0  0  0  0
  -36.2960    7.7865  -24.2383 H   0  0  0  0  0  0  0  0  0  0  0  0
  -34.9128    8.6135  -26.1250 H   0  0  0  0  0  0  0  0  0  0  0  0
  -36.5957    6.1498  -21.1947 H   0  0  0  0  0  0  0  0  0  0  0  0
  -35.0891    6.8829  -21.8424 H   0  0  0  0  0  0  0  0  0  0  0  0
  -34.8147    3.7629  -18.5707 H   0  0  0  0  0  0  0  0  0  0  0  0
  -33.4297    4.4240  -16.6477 H   0  0  0  0  0  0  0  0  0  0  0  0
  -33.8815    7.6702  -21.1558 H   0  0  0  0  0  0  0  0  0  0  0  0
  -31.0932    8.0554  -20.0069 H   0  0  0  0  0  0  0  0  0  0  0  0
  -30.5949    7.7965  -18.3006 H   0  0  0  0  0  0  0  0  0  0  0  0
  -32.4521    9.0796  -17.5987 H   0  0  0  0  0  0  0  0  0  0  0  0
  -34.0159    8.5053  -19.3090 H   0  0  0  0  0  0  0  0  0  0  0  0
  -33.0716    9.5229  -20.4497 H   0  0  0  0  0  0  0  0  0  0  0  0
  -34.9934   10.7960  -19.5364 H   0  0  0  0  0  0  0  0  0  0  0  0
  -34.4212   10.4798  -17.8627 H   0  0  0  0  0  0  0  0  0  0  0  0
  -31.3592   12.4742  -18.2616 H   0  0  0  0  0  0  0  0  0  0  0  0
  -32.3020   11.4566  -17.1197 H   0  0  0  0  0  0  0  0  0  0  0  0
  -30.3812   10.1841  -18.0331 H   0  0  0  0  0  0  0  0  0  0  0  0
  -30.9534   10.5018  -19.7065 H   0  0  0  0  0  0  0  0  0  0  0  0
  -34.1316   12.9978  -17.5182 H   0  0  0  0  0  0  0  0  0  0  0  0
  -34.8701   13.0946  -19.1529 H   0  0  0  0  0  0  0  0  0  0  0  0
  -33.4459   15.1214  -18.4008 H   0  0  0  0  0  0  0  0  0  0  0  0
  -32.0188   14.0468  -18.5875 H   0  0  0  0  0  0  0  0  0  0  0  0
  -33.9514   14.7977  -20.6057 H   0  0  0  0  0  0  0  0  0  0  0  0
  1  2  1  0  0  0  0
  1 31  1  0  0  0  0
  1 32  1  0  0  0  0
  1 33  1  0  0  0  0
  2  3  1  0  0  0  0
  3  8  2  0  0  0  0
  3  4  1  0  0  0  0
  4  5  2  0  0  0  0
  4 34  1  0  0  0  0
  5  6  1  0  0  0  0
  5 35  1  0  0  0  0
  6  7  2  0  0  0  0
  6  9  1  0  0  0  0
  7  8  1  0  0  0  0
  7 36  1  0  0  0  0
  8 37  1  0  0  0  0
  9 10  1  0  0  0  0
 10 11  1  0  0  0  0
 10 38  1  0  0  0  0
 10 39  1  0  0  0  0
 11 12  2  0  0  0  0
 11 13  1  0  0  0  0
 13 18  2  0  0  0  0
 13 14  1  0  0  0  0
 14 15  2  0  0  0  0
 14 40  1  0  0  0  0
 15 16  1  0  0  0  0
 15 41  1  0  0  0  0
 16 17  2  0  0  0  0
 16 30  1  0  0  0  0
 17 18  1  0  0  0  0
 17 20  1  0  0  0  0
 18 19  1  0  0  0  0
 19 42  1  0  0  0  0
 20 21  1  0  0  0  0
 20 43  1  0  0  0  0
 20 44  1  0  0  0  0
 21 26  1  0  0  0  0
 21 22  1  0  0  0  0
 21 45  1  0  0  0  0
 22 23  1  0  0  0  0
 22 46  1  0  0  0  0
 22 47  1  0  0  0  0
 23 24  1  0  0  0  0
 23 48  1  0  0  0  0
 23 49  1  0  0  0  0
 24 25  1  0  0  0  0
 24 27  1  0  0  0  0
 25 26  1  0  0  0  0
 25 50  1  0  0  0  0
 25 51  1  0  0  0  0
 26 52  1  0  0  0  0
 26 53  1  0  0  0  0
 27 28  1  0  0  0  0
 27 54  1  0  0  0  0
 27 55  1  0  0  0  0
 28 29  1  0  0  0  0
 28 56  1  0  0  0  0
 28 57  1  0  0  0  0
 29 58  1  0  0  0  0
M  END
> <Name>
ZINC21195156

> <reference>
BDB4965

> <quality>
0.813

> <status>
decoy

> <atoms in reference ligand area>
11

> <score>
-12.1131

$$$$
ZINC06368275
      BALL 1.4.0 (Jan  4 2012, 23:22:29)

 43 44  0999  0  0  0  0  0  0999 V2000
  -32.8771   13.4871  -21.7238 C   0  0  0  0  0  0  0  0  0  0  0  0
  -31.7742   12.6666  -21.2564 O   0  0  0  0  0  0  0  0  0  0  0  0
  -31.7055   11.4118  -21.7281 C   0  0  0  0  0  0  0  0  0  0  0  0
  -31.5990   11.2179  -22.9159 O   0  0  0  0  0  0  0  0  0  0  0  0
  -31.7613   10.2448  -20.7761 C   0  0  0  0  0  0  0  0  0  0  0  0
  -32.1626    8.9818  -21.5406 C   0  0  0  0  0  0  0  0  0  0  0  0
  -32.4573    7.8744  -20.5618 C   0  0  0  0  0  0  0  0  0  0  0  0
  -33.7340    7.7384  -20.0304 C   0  0  0  0  0  0  0  0  0  0  0  0
  -34.7133    8.7270  -20.2955 C   0  0  0  0  0  0  0  0  0  0  0  0
  -34.4315    9.6871  -20.9827 O   0  0  0  0  0  0  0  0  0  0  0  0
  -36.1043    8.5904  -19.7330 C   0  0  0  0  0  0  0  0  0  0  0  0
  -36.0412    7.8314  -18.4054 C   0  0  0  0  0  0  0  0  0  0  0  0
  -35.4224    6.4517  -18.6422 C   0  0  0  0  0  0  0  0  0  0  0  0
  -34.0423    6.6153  -19.2238 C   0  0  0  0  0  0  0  0  0  0  0  0
  -33.1899    5.7802  -19.0005 O   0  0  0  0  0  0  0  0  0  0  0  0
  -31.4841    7.0175  -20.2025 N   0  0  0  0  0  0  0  0  0  0  0  0
  -31.1171    6.8997  -18.8573 C   0  0  0  0  0  0  0  0  0  0  0  0
  -30.9788    5.6426  -18.2828 C   0  0  0  0  0  0  0  0  0  0  0  0
  -30.6163    5.5263  -16.9559 C   0  0  0  0  0  0  0  0  0  0  0  0
  -30.3900    6.6665  -16.1952 C   0  0  0  0  0  0  0  0  0  0  0  0
  -30.5284    7.9237  -16.7699 C   0  0  0  0  0  0  0  0  0  0  0  0
  -30.8909    8.0399  -18.0968 C   0  0  0  0  0  0  0  0  0  0  0  0
  -30.0227    6.5487  -14.8512 N   0  0  0  0  0  0  0  0  0  0  0  0
  -32.7477   13.5902  -22.8113 H   0  0  0  0  0  0  0  0  0  0  0  0
  -32.7384   14.4800  -21.2711 H   0  0  0  0  0  0  0  0  0  0  0  0
  -33.8591   13.0604  -21.4714 H   0  0  0  0  0  0  0  0  0  0  0  0
  -30.7719   10.0970  -20.3187 H   0  0  0  0  0  0  0  0  0  0  0  0
  -32.5027   10.4472  -19.9891 H   0  0  0  0  0  0  0  0  0  0  0  0
  -31.3393    8.6754  -22.2027 H   0  0  0  0  0  0  0  0  0  0  0  0
  -33.0603    9.1869  -22.1425 H   0  0  0  0  0  0  0  0  0  0  0  0
  -36.5317    9.5897  -19.5639 H   0  0  0  0  0  0  0  0  0  0  0  0
  -36.7356    8.0355  -20.4426 H   0  0  0  0  0  0  0  0  0  0  0  0
  -37.0570    7.7127  -18.0002 H   0  0  0  0  0  0  0  0  0  0  0  0
  -35.4224    8.3930  -17.6901 H   0  0  0  0  0  0  0  0  0  0  0  0
  -35.3555    5.9106  -17.6869 H   0  0  0  0  0  0  0  0  0  0  0  0
  -36.0500    5.8823  -19.3435 H   0  0  0  0  0  0  0  0  0  0  0  0
  -31.0092    6.4483  -20.9176 H   0  0  0  0  0  0  0  0  0  0  0  0
  -31.1580    4.7399  -18.8851 H   0  0  0  0  0  0  0  0  0  0  0  0
  -30.5067    4.5309  -16.5009 H   0  0  0  0  0  0  0  0  0  0  0  0
  -30.3492    8.8265  -16.1676 H   0  0  0  0  0  0  0  0  0  0  0  0
  -31.0005    9.0354  -18.5519 H   0  0  0  0  0  0  0  0  0  0  0  0
  -29.7060    7.3784  -14.3293 H   0  0  0  0  0  0  0  0  0  0  0  0
  -30.0689    5.6324  -14.3830 H   0  0  0  0  0  0  0  0  0  0  0  0
  1  2  1  0  0  0  0
  1 24  1  0  0  0  0
  1 25  1  0  0  0  0
  1 26  1  0  0  0  0
  2  3  1  0  0  0  0
  3  4  2  0  0  0  0
  3  5  1  0  0  0  0
  5  6  1  0  0  0  0
  5 27  1  0  0  0  0
  5 28  1  0  0  0  0
  6  7  1  0  0  0  0
  6 29  1  0  0  0  0
  6 30  1  0  0  0  0
  7  8  2  0  0  0  0
  7 16  1  0  0  0  0
  8 14  1  0  0  0  0
  8  9  1  0  0  0  0
  9 10  2  0  0  0  0
  9 11  1  0  0  0  0
 11 12  1  0  0  0  0
 11 31  1  0  0  0  0
 11 32  1  0  0  0  0
 12 13  1  0  0  0  0
 12 33  1  0  0  0  0
 12 34  1  0  0  0  0
 13 14  1  0  0  0  0
 13 35  1  0  0  0  0
 13 36  1  0  0  0  0
 14 15  2  0  0  0  0
 16 17  1  0  0  0  0
 16 37  1  0  0  0  0
 17 22  2  0  0  0  0
 17 18  1  0  0  0  0
 18 19  2  0  0  0  0
 18 38  1  0  0  0  0
 19 20  1  0  0  0  0
 19 39  1  0  0  0  0
 20 21  2  0  0  0  0
 20 23  1  0  0  0  0
 21 22  1  0  0  0  0
 21 40  1  0  0  0  0
 22 41  1  0  0  0  0
 23 42  1  0  0  0  0
 23 43  1  0  0  0  0
M  END
> <Name>
ZINC06368275

> <reference>
BDB5219

> <quality>
0.685

> <status>
decoy

> <atoms in reference ligand area>
10

> <score>
-12.001

$$$$
ZINC14116594
      BALL 1.4.0 (Jan  4 2012, 23:22:29)

 42 43  0999  0  0  0  0  0  0999 V2000
  -33.6350   12.1448  -21.0114 C   0  0  0  0  0  0  0  0  0  0  0  0
  -33.1416   10.8671  -21.6933 C   0  0  0  0  0  0  0  0  0  0  0  0
  -33.5342    9.6715  -20.8642 C   0  0  0  0  0  0  0  0  0  0  0  0
  -34.0839    8.5085  -21.3285 N   0  0  0  0  0  0  0  0  0  0  0  0
  -34.2671    7.7209  -20.2282 C   0  0  0  0  0  0  0  0  0  0  0  0
  -33.8490    8.4073  -19.1901 N   0  0  0  0  0  0  0  0  0  0  0  0
  -33.4179    9.5566  -19.5715 N   0  0  0  0  0  0  0  0  0  0  0  0
  -34.9428    6.0938  -20.2053 S   0  0  0  0  0  0  0  0  0  0  0  0
  -35.8111    6.0918  -21.7934 C   0  0  0  0  0  0  0  0  0  0  0  0
  -34.9761    5.3730  -22.8215 C   0  0  0  0  0  0  0  0  0  0  0  0
  -34.9698    4.1607  -22.8577 O   0  0  0  0  0  0  0  0  0  0  0  0
  -34.2362    6.0773  -23.7007 N   0  0  0  0  0  0  0  0  0  0  0  0
  -33.3035    5.4215  -24.5148 N   0  0  0  0  0  0  0  0  0  0  0  0
  -32.4255    6.1373  -25.2451 C   0  0  0  0  0  0  0  0  0  0  0  0
  -31.5058    5.5796  -25.8054 O   0  0  0  0  0  0  0  0  0  0  0  0
  -32.5866    7.6309  -25.3654 C   0  0  0  0  0  0  0  0  0  0  0  0
  -31.3407    8.3245  -24.8109 C   0  0  0  0  0  0  0  0  0  0  0  0
  -30.8090    7.5446  -23.5969 C   0  0  0  0  0  0  0  0  0  0  0  0
  -29.7598    8.3955  -22.8415 C   0  0  0  0  0  0  0  0  0  0  0  0
  -30.2917   10.1163  -23.2135 S   0  0  0  0  0  0  0  0  0  0  0  0
  -29.2655   10.7687  -23.9486 O   0  0  0  0  0  0  0  0  0  0  0  0
  -30.7883   10.7149  -22.0241 O   0  0  0  0  0  0  0  0  0  0  0  0
  -31.7048    9.7619  -24.3414 C   0  0  0  0  0  0  0  0  0  0  0  0
  -34.3257   12.6765  -21.6824 H   0  0  0  0  0  0  0  0  0  0  0  0
  -32.7770   12.7933  -20.7807 H   0  0  0  0  0  0  0  0  0  0  0  0
  -34.1581   11.8851  -20.0793 H   0  0  0  0  0  0  0  0  0  0  0  0
  -33.5959   10.7853  -22.6918 H   0  0  0  0  0  0  0  0  0  0  0  0
  -32.0464   10.9014  -21.7903 H   0  0  0  0  0  0  0  0  0  0  0  0
  -34.3123    8.2752  -22.3053 H   0  0  0  0  0  0  0  0  0  0  0  0
  -35.9821    7.1280  -22.1204 H   0  0  0  0  0  0  0  0  0  0  0  0
  -36.7775    5.5781  -21.6824 H   0  0  0  0  0  0  0  0  0  0  0  0
  -34.3566    7.0976  -23.7742 H   0  0  0  0  0  0  0  0  0  0  0  0
  -33.2887    4.3924  -24.5552 H   0  0  0  0  0  0  0  0  0  0  0  0
  -33.4696    7.9528  -24.7939 H   0  0  0  0  0  0  0  0  0  0  0  0
  -32.7160    7.9017  -26.4237 H   0  0  0  0  0  0  0  0  0  0  0  0
  -30.5778    8.3639  -25.6023 H   0  0  0  0  0  0  0  0  0  0  0  0
  -30.3424    6.6088  -23.9381 H   0  0  0  0  0  0  0  0  0  0  0  0
  -31.6432    7.3085  -22.9200 H   0  0  0  0  0  0  0  0  0  0  0  0
  -29.8206    8.2114  -21.7587 H   0  0  0  0  0  0  0  0  0  0  0  0
  -28.7531    8.2196  -23.2484 H   0  0  0  0  0  0  0  0  0  0  0  0
  -31.6945   10.4643  -25.1879 H   0  0  0  0  0  0  0  0  0  0  0  0
  -32.6470    9.7622  -23.7737 H   0  0  0  0  0  0  0  0  0  0  0  0
  1  2  1  0  0  0  0
  1 24  1  0  0  0  0
  1 25  1  0  0  0  0
  1 26  1  0  0  0  0
  2  3  1  0  0  0  0
  2 27  1  0  0  0  0
  2 28  1  0  0  0  0
  3  7  2  0  0  0  0
  3  4  1  0  0  0  0
  4  5  1  0  0  0  0
  4 29  1  0  0  0  0
  5  6  2  0  0  0  0
  5  8  1  0  0  0  0
  6  7  1  0  0  0  0
  8  9  1  0  0  0  0
  9 10  1  0  0  0  0
  9 30  1  0  0  0  0
  9 31  1  0  0  0  0
 10 11  2  0  0  0  0
 10 12  1  0  0  0  0
 12 13  1  0  0  0  0
 12 32  1  0  0  0  0
 13 14  1  0  0  0  0
 13 33  1  0  0  0  0
 14 15  2  0  0  0  0
 14 16  1  0  0  0  0
 16 17  1  0  0  0  0
 16 34  1  0  0  0  0
 16 35  1  0  0  0  0
 17 23  1  0  0  0  0
 17 18  1  0  0  0  0
 17 36  1  0  0  0  0
 18 19  1  0  0  0  0
 18 37  1  0  0  0  0
 18 38  1  0  0  0  0
 19 20  1  0  0  0  0
 19 39  1  0  0  0  0
 19 40  1  0  0  0  0
 20 21  2  0  0  0  0
 20 22  2  0  0  0  0
 20 23  1  0  0  0  0
 23 41  1  0  0  0  0
 23 42  1  0  0  0  0
M  END
> <Name>
ZINC14116594

> <reference>
BDB4942

> <quality>
0.630

> <status>
decoy

> <atoms in reference ligand area>
10

> <score>
-11.8888

$$$$
ZINC13216929
      BALL 1.4.0 (Jan  4 2012, 23:22:29)

 47 48  0999  0  0  0  0  0  0999 V2000
  -30.4366    9.0409  -22.0268 C   0  0  0  0  0  0  0  0  0  0  0  0
  -31.1411   10.1597  -21.3957 N   0  0  0  0  0  0  0  0  0  0  0  0
  -31.4396   11.3489  -21.9702 C   0  0  0  0  0  0  0  0  0  0  0  0
  -32.0908   12.0901  -21.0404 C   0  0  0  0  0  0  0  0  0  0  0  0
  -32.1923   11.3696  -19.9260 N   0  0  0  0  0  0  0  0  0  0  0  0
  -31.6200   10.1994  -20.1162 C   0  0  0  0  0  0  0  0  0  0  0  0
  -31.5187    9.1162  -19.1224 C   0  0  0  0  0  0  0  0  0  0  0  0
  -31.8552    7.9857  -19.4187 O   0  0  0  0  0  0  0  0  0  0  0  0
  -31.0530    9.3783  -17.8851 N   0  0  0  0  0  0  0  0  0  0  0  0
  -30.8534    8.3372  -16.9810 C   0  0  0  0  0  0  0  0  0  0  0  0
  -31.8352    8.0348  -16.0423 C   0  0  0  0  0  0  0  0  0  0  0  0
  -31.6410    7.0068  -15.1478 C   0  0  0  0  0  0  0  0  0  0  0  0
  -30.4560    6.2667  -15.1826 C   0  0  0  0  0  0  0  0  0  0  0  0
  -29.4693    6.5768  -16.1226 C   0  0  0  0  0  0  0  0  0  0  0  0
  -29.6724    7.6021  -17.0185 C   0  0  0  0  0  0  0  0  0  0  0  0
  -30.2445    5.1638  -14.2251 C   0  0  0  0  0  0  0  0  0  0  0  0
  -31.1641    4.4209  -13.9405 O   0  0  0  0  0  0  0  0  0  0  0  0
  -29.0306    4.9765  -13.6702 N   0  0  0  0  0  0  0  0  0  0  0  0
  -28.8191    3.8780  -12.7243 C   0  0  0  0  0  0  0  0  0  0  0  0
  -27.3240    3.5674  -12.6293 C   0  0  0  0  0  0  0  0  0  0  0  0
  -26.5775    3.5677  -14.9326 C   0  0  0  0  0  0  0  0  0  0  0  0
  -25.7981    1.8562  -13.4076 C   0  0  0  0  0  0  0  0  0  0  0  0
  -32.6059   13.4644  -21.2334 N   0  0  0  0  0  0  0  0  0  0  0  0
  -33.1777   14.0341  -20.3213 O   0  0  0  0  0  0  0  0  0  0  0  0
  -32.4580   14.0254  -22.3044 O   0  0  0  0  0  0  0  0  0  0  0  0
  -26.9392    2.7196  -13.7773 N   0  3  0  0  0  0  0  0  0  0  0  0
  -30.0023    9.5113  -22.9213 H   0  0  0  0  0  0  0  0  0  0  0  0
  -31.2658    8.4170  -22.3917 H   0  0  0  0  0  0  0  0  0  0  0  0
  -29.7075    8.4997  -21.4060 H   0  0  0  0  0  0  0  0  0  0  0  0
  -31.1989   11.6561  -22.9986 H   0  0  0  0  0  0  0  0  0  0  0  0
  -30.8448   10.3481  -17.6079 H   0  0  0  0  0  0  0  0  0  0  0  0
  -32.7676    8.6180  -16.0151 H   0  0  0  0  0  0  0  0  0  0  0  0
  -32.4176    6.7682  -14.4063 H   0  0  0  0  0  0  0  0  0  0  0  0
  -28.5316    6.0023  -16.1466 H   0  0  0  0  0  0  0  0  0  0  0  0
  -28.9003    7.8405  -17.7648 H   0  0  0  0  0  0  0  0  0  0  0  0
  -28.2516    5.6057  -13.9113 H   0  0  0  0  0  0  0  0  0  0  0  0
  -29.3572    2.9840  -13.0726 H   0  0  0  0  0  0  0  0  0  0  0  0
  -29.1962    4.1698  -11.7330 H   0  0  0  0  0  0  0  0  0  0  0  0
  -27.1170    3.0319  -11.6910 H   0  0  0  0  0  0  0  0  0  0  0  0
  -26.7505    4.5057  -12.6563 H   0  0  0  0  0  0  0  0  0  0  0  0
  -25.5017    3.7940  -14.8949 H   0  0  0  0  0  0  0  0  0  0  0  0
  -27.1488    4.5067  -14.8875 H   0  0  0  0  0  0  0  0  0  0  0  0
  -26.8105    3.0392  -15.8687 H   0  0  0  0  0  0  0  0  0  0  0  0
  -26.0856    1.2168  -12.5599 H   0  0  0  0  0  0  0  0  0  0  0  0
  -24.9451    2.4863  -13.1153 H   0  0  0  0  0  0  0  0  0  0  0  0
  -25.5152    1.2272  -14.2645 H   0  0  0  0  0  0  0  0  0  0  0  0
  -27.7388    2.1243  -14.0365 H   0  0  0  0  0  0  0  0  0  0  0  0
  1  2  1  0  0  0  0
  1 27  1  0  0  0  0
  1 28  1  0  0  0  0
  1 29  1  0  0  0  0
  2  6  1  0  0  0  0
  2  3  1  0  0  0  0
  3  4  2  0  0  0  0
  3 30  1  0  0  0  0
  4  5  1  0  0  0  0
  4 23  1  0  0  0  0
  5  6  2  0  0  0  0
  6  7  1  0  0  0  0
  7  8  2  0  0  0  0
  7  9  1  0  0  0  0
  9 10  1  0  0  0  0
  9 31  1  0  0  0  0
 10 15  2  0  0  0  0
 10 11  1  0  0  0  0
 11 12  2  0  0  0  0
 11 32  1  0  0  0  0
 12 13  1  0  0  0  0
 12 33  1  0  0  0  0
 13 14  2  0  0  0  0
 13 16  1  0  0  0  0
 14 15  1  0  0  0  0
 14 34  1  0  0  0  0
 15 35  1  0  0  0  0
 16 17  2  0  0  0  0
 16 18  1  0  0  0  0
 18 19  1  0  0  0  0
 18 36  1  0  0  0  0
 19 20  1  0  0  0  0
 19 37  1  0  0  0  0
 19 38  1  0  0  0  0
 20 26  1  0  0  0  0
 20 39  1  0  0  0  0
 20 40  1  0  0  0  0
 21 26  1  0  0  0  0
 21 41  1  0  0  0  0
 21 42  1  0  0  0  0
 21 43  1  0  0  0  0
 22 26  1  0  0  0  0
 22 44  1  0  0  0  0
 22 45  1  0  0  0  0
 22 46  1  0  0  0  0
 23 24  2  0  0  0  0
 23 25  2  0  0  0  0
 26 47  1  0  0  0  0
M  END
> <Name>
ZINC13216929

> <reference>
BDB5244

> <quality>
0.664

> <status>
decoy

> <atoms in reference ligand area>
10

> <score>
-11.4949

$$$$
ZINC22754895
      BALL 1.4.0 (Jan  4 2012, 23:22:29)

 54 55  0999  0  0  0  0  0  0999 V2000
  -31.6483    7.6998  -10.9065 C   0  0  0  0  0  0  0  0  0  0  0  0
  -32.8770    7.1229  -11.6124 C   0  0  0  0  0  0  0  0  0  0  0  0
  -33.9440    8.2108  -11.7495 C   0  0  0  0  0  0  0  0  0  0  0  0
  -32.4784    6.6215  -13.0018 C   0  0  0  0  0  0  0  0  0  0  0  0
  -33.7373    6.3754  -13.8358 C   0  0  0  0  0  0  0  0  0  0  0  0
  -33.5513    6.9341  -15.1773 N   0  0  0  0  0  0  0  0  0  0  0  0
  -34.5688    7.5725  -15.7885 C   0  0  0  0  0  0  0  0  0  0  0  0
  -35.6409    7.6848  -15.2265 O   0  0  0  0  0  0  0  0  0  0  0  0
  -34.3811    8.1363  -17.1422 C   0  0  0  0  0  0  0  0  0  0  0  0
  -33.5602    9.2494  -17.3303 C   0  0  0  0  0  0  0  0  0  0  0  0
  -33.3890    9.7704  -18.5962 C   0  0  0  0  0  0  0  0  0  0  0  0
  -34.0287    9.1918  -19.6780 C   0  0  0  0  0  0  0  0  0  0  0  0
  -34.8478    8.0914  -19.4978 C   0  0  0  0  0  0  0  0  0  0  0  0
  -35.0235    7.5574  -18.2378 C   0  0  0  0  0  0  0  0  0  0  0  0
  -33.8048    9.8637  -21.2914 S   0  0  0  0  0  0  0  0  0  0  0  0
  -35.0961    9.9488  -21.8786 O   0  0  0  0  0  0  0  0  0  0  0  0
  -32.7419    9.1354  -21.8908 O   0  0  0  0  0  0  0  0  0  0  0  0
  -33.2667   11.4185  -21.1041 N   0  5  0  0  0  0  0  0  0  0  0  0
  -31.9535   11.7506  -21.4516 C   0  0  0  0  0  0  0  0  0  0  0  0
  -31.0738   10.7623  -21.8718 C   0  0  0  0  0  0  0  0  0  0  0  0
  -29.7771   11.0933  -22.2149 C   0  0  0  0  0  0  0  0  0  0  0  0
  -29.3541   12.4077  -22.1409 C   0  0  0  0  0  0  0  0  0  0  0  0
  -30.2264   13.3959  -21.7225 C   0  0  0  0  0  0  0  0  0  0  0  0
  -31.5257   13.0719  -21.3775 C   0  0  0  0  0  0  0  0  0  0  0  0
  -32.3796   14.0380  -20.9744 F   0  0  0  0  0  0  0  0  0  0  0  0
  -31.6413    7.6302  -13.6648 N   0  3  0  0  0  0  0  0  0  0  0  0
  -31.0755    7.1057  -14.9149 C   0  0  0  0  0  0  0  0  0  0  0  0
  -32.3981    8.8657  -13.9072 C   0  0  0  0  0  0  0  0  0  0  0  0
  -31.4593    8.7199  -11.2720 H   0  0  0  0  0  0  0  0  0  0  0  0
  -30.7729    7.0676  -11.1165 H   0  0  0  0  0  0  0  0  0  0  0  0
  -31.8273    7.7276   -9.8215 H   0  0  0  0  0  0  0  0  0  0  0  0
  -33.2800    6.2866  -11.0224 H   0  0  0  0  0  0  0  0  0  0  0  0
  -33.7467    9.0130  -11.0232 H   0  0  0  0  0  0  0  0  0  0  0  0
  -34.9370    7.7784  -11.5567 H   0  0  0  0  0  0  0  0  0  0  0  0
  -33.9172    8.6253  -12.7681 H   0  0  0  0  0  0  0  0  0  0  0  0
  -31.9136    5.6826  -12.9047 H   0  0  0  0  0  0  0  0  0  0  0  0
  -33.9211    5.2936  -13.9120 H   0  0  0  0  0  0  0  0  0  0  0  0
  -34.5986    6.8606  -13.3536 H   0  0  0  0  0  0  0  0  0  0  0  0
  -32.6429    6.8390  -15.6535 H   0  0  0  0  0  0  0  0  0  0  0  0
  -33.0510    9.7102  -16.4710 H   0  0  0  0  0  0  0  0  0  0  0  0
  -32.7424   10.6476  -18.7458 H   0  0  0  0  0  0  0  0  0  0  0  0
  -35.3602    7.6414  -20.3609 H   0  0  0  0  0  0  0  0  0  0  0  0
  -35.6684    6.6775  -18.0971 H   0  0  0  0  0  0  0  0  0  0  0  0
  -31.4089    9.7163  -21.9315 H   0  0  0  0  0  0  0  0  0  0  0  0
  -29.0802   10.3100  -22.5475 H   0  0  0  0  0  0  0  0  0  0  0  0
  -28.3213   12.6679  -22.4155 H   0  0  0  0  0  0  0  0  0  0  0  0
  -29.8863   14.4403  -21.6640 H   0  0  0  0  0  0  0  0  0  0  0  0
  -30.8592    7.8567  -13.0340 H   0  0  0  0  0  0  0  0  0  0  0  0
  -30.2082    7.7202  -15.1979 H   0  0  0  0  0  0  0  0  0  0  0  0
  -31.8373    7.1725  -15.7055 H   0  0  0  0  0  0  0  0  0  0  0  0
  -30.7651    6.0588  -14.7814 H   0  0  0  0  0  0  0  0  0  0  0  0
  -33.2530    8.6365  -14.5604 H   0  0  0  0  0  0  0  0  0  0  0  0
  -31.7429    9.5904  -14.4128 H   0  0  0  0  0  0  0  0  0  0  0  0
  -32.7558    9.2848  -12.9552 H   0  0  0  0  0  0  0  0  0  0  0  0
  1  2  1  0  0  0  0
  1 29  1  0  0  0  0
  1 30  1  0  0  0  0
  1 31  1  0  0  0  0
  2  3  1  0  0  0  0
  2  4  1  0  0  0  0
  2 32  1  0  0  0  0
  3 33  1  0  0  0  0
  3 34  1  0  0  0  0
  3 35  1  0  0  0  0
  4  5  1  0  0  0  0
  4 26  1  0  0  0  0
  4 36  1  0  0  0  0
  5  6  1  0  0  0  0
  5 37  1  0  0  0  0
  5 38  1  0  0  0  0
  6  7  1  0  0  0  0
  6 39  1  0  0  0  0
  7  8  2  0  0  0  0
  7  9  1  0  0  0  0
  9 14  2  0  0  0  0
  9 10  1  0  0  0  0
 10 11  2  0  0  0  0
 10 40  1  0  0  0  0
 11 12  1  0  0  0  0
 11 41  1  0  0  0  0
 12 13  2  0  0  0  0
 12 15  1  0  0  0  0
 13 14  1  0  0  0  0
 13 42  1  0  0  0  0
 14 43  1  0  0  0  0
 15 16  2  0  0  0  0
 15 17  2  0  0  0  0
 15 18  1  0  0  0  0
 18 19  1  0  0  0  0
 19 24  2  0  0  0  0
 19 20  1  0  0  0  0
 20 21  2  0  0  0  0
 20 44  1  0  0  0  0
 21 22  1  0  0  0  0
 21 45  1  0  0  0  0
 22 23  2  0  0  0  0
 22 46  1  0  0  0  0
 23 24  1  0  0  0  0
 23 47  1  0  0  0  0
 24 25  1  0  0  0  0
 26 27  1  0  0  0  0
 26 28  1  0  0  0  0
 26 48  1  0  0  0  0
 27 49  1  0  0  0  0
 27 50  1  0  0  0  0
 27 51  1  0  0  0  0
 28 52  1  0  0  0  0
 28 53  1  0  0  0  0
 28 54  1  0  0  0  0
M  END
> <Name>
ZINC22754895

> <reference>
BDB5007

> <quality>
0.801

> <status>
decoy

> <atoms in reference ligand area>
12

> <score>
-10.9665

$$$$
ZINC05679876
      BALL 1.4.0 (Jan  4 2012, 23:22:29)

 48 50  0999  0  0  0  0  0  0999 V2000
  -31.4932    8.5510  -11.8628 C   0  0  0  0  0  0  0  0  0  0  0  0
  -33.4182    7.3771  -12.7451 C   0  0  0  0  0  0  0  0  0  0  0  0
  -31.4710    7.7296  -14.1403 C   0  0  0  0  0  0  0  0  0  0  0  0
  -31.8857    9.1457  -14.5451 C   0  0  0  0  0  0  0  0  0  0  0  0
  -31.0017    9.6262  -15.6977 C   0  0  0  0  0  0  0  0  0  0  0  0
  -31.1571   10.5809  -17.9185 C   0  0  0  0  0  0  0  0  0  0  0  0
  -31.8655   10.4482  -19.2415 C   0  0  0  0  0  0  0  0  0  0  0  0
  -31.6357   11.4139  -20.2375 C   0  0  0  0  0  0  0  0  0  0  0  0
  -30.8756   12.3431  -20.0254 O   0  0  0  0  0  0  0  0  0  0  0  0
  -32.2587   11.3080  -21.4268 N   0  0  0  0  0  0  0  0  0  0  0  0
  -33.0949   10.2818  -21.6675 C   0  0  0  0  0  0  0  0  0  0  0  0
  -33.6460   10.1992  -22.7481 O   0  0  0  0  0  0  0  0  0  0  0  0
  -33.3305    9.3470  -20.7311 N   0  0  0  0  0  0  0  0  0  0  0  0
  -32.7198    9.4193  -19.4968 C   0  0  0  0  0  0  0  0  0  0  0  0
  -33.0066    8.4540  -18.5705 N   0  0  0  0  0  0  0  0  0  0  0  0
  -31.9955    8.3647  -17.5137 C   0  0  0  0  0  0  0  0  0  0  0  0
  -34.2445    8.2404  -21.0246 C   0  0  0  0  0  0  0  0  0  0  0  0
  -34.2029    7.9321  -22.4992 C   0  0  0  0  0  0  0  0  0  0  0  0
  -34.9927    8.4800  -23.4400 C   0  0  0  0  0  0  0  0  0  0  0  0
  -34.6126    7.9101  -24.6768 C   0  0  0  0  0  0  0  0  0  0  0  0
  -33.6187    7.0418  -24.4166 C   0  0  0  0  0  0  0  0  0  0  0  0
  -33.3748    7.0592  -23.0960 O   0  0  0  0  0  0  0  0  0  0  0  0
  -31.9432    7.4694  -12.7641 N   0  3  0  0  0  0  0  0  0  0  0  0
  -31.8179    9.7087  -16.9321 N   0  0  0  0  0  0  0  0  0  0  0  0
  -30.6575    9.0910  -12.3318 H   0  0  0  0  0  0  0  0  0  0  0  0
  -31.1562    8.1145  -10.9110 H   0  0  0  0  0  0  0  0  0  0  0  0
  -32.3235    9.2478  -11.6752 H   0  0  0  0  0  0  0  0  0  0  0  0
  -33.7897    7.6925  -11.7589 H   0  0  0  0  0  0  0  0  0  0  0  0
  -33.7198    6.3359  -12.9319 H   0  0  0  0  0  0  0  0  0  0  0  0
  -33.8412    8.0287  -13.5240 H   0  0  0  0  0  0  0  0  0  0  0  0
  -30.3751    7.6413  -14.1759 H   0  0  0  0  0  0  0  0  0  0  0  0
  -31.9252    7.0018  -14.8288 H   0  0  0  0  0  0  0  0  0  0  0  0
  -32.9375    9.1419  -14.8672 H   0  0  0  0  0  0  0  0  0  0  0  0
  -31.7677    9.8230  -13.6864 H   0  0  0  0  0  0  0  0  0  0  0  0
  -30.1762    8.9154  -15.8503 H   0  0  0  0  0  0  0  0  0  0  0  0
  -30.5949   10.6200  -15.4594 H   0  0  0  0  0  0  0  0  0  0  0  0
  -31.2065   11.6253  -17.5767 H   0  0  0  0  0  0  0  0  0  0  0  0
  -30.1061   10.2771  -18.0318 H   0  0  0  0  0  0  0  0  0  0  0  0
  -32.0940   12.0164  -22.1560 H   0  0  0  0  0  0  0  0  0  0  0  0
  -33.8432    7.8545  -18.6116 H   0  0  0  0  0  0  0  0  0  0  0  0
  -31.0426    8.0182  -17.9402 H   0  0  0  0  0  0  0  0  0  0  0  0
  -32.3355    7.6670  -16.7343 H   0  0  0  0  0  0  0  0  0  0  0  0
  -33.9377    7.3504  -20.4557 H   0  0  0  0  0  0  0  0  0  0  0  0
  -35.2684    8.5233  -20.7388 H   0  0  0  0  0  0  0  0  0  0  0  0
  -35.7827    9.2281  -23.2783 H   0  0  0  0  0  0  0  0  0  0  0  0
  -35.0463    8.1337  -25.6626 H   0  0  0  0  0  0  0  0  0  0  0  0
  -33.0946    6.4225  -25.1594 H   0  0  0  0  0  0  0  0  0  0  0  0
  -31.5479    6.5759  -12.4380 H   0  0  0  0  0  0  0  0  0  0  0  0
  1 23  1  0  0  0  0
  1 25  1  0  0  0  0
  1 26  1  0  0  0  0
  1 27  1  0  0  0  0
  2 23  1  0  0  0  0
  2 28  1  0  0  0  0
  2 29  1  0  0  0  0
  2 30  1  0  0  0  0
  3  4  1  0  0  0  0
  3 23  1  0  0  0  0
  3 31  1  0  0  0  0
  3 32  1  0  0  0  0
  4  5  1  0  0  0  0
  4 33  1  0  0  0  0
  4 34  1  0  0  0  0
  5 24  1  0  0  0  0
  5 35  1  0  0  0  0
  5 36  1  0  0  0  0
  6  7  1  0  0  0  0
  6 24  1  0  0  0  0
  6 37  1  0  0  0  0
  6 38  1  0  0  0  0
  7 14  2  0  0  0  0
  7  8  1  0  0  0  0
  8  9  2  0  0  0  0
  8 10  1  0  0  0  0
 10 11  1  0  0  0  0
 10 39  1  0  0  0  0
 11 12  2  0  0  0  0
 11 13  1  0  0  0  0
 13 14  1  0  0  0  0
 13 17  1  0  0  0  0
 14 15  1  0  0  0  0
 15 16  1  0  0  0  0
 15 40  1  0  0  0  0
 16 24  1  0  0  0  0
 16 41  1  0  0  0  0
 16 42  1  0  0  0  0
 17 18  1  0  0  0  0
 17 43  1  0  0  0  0
 17 44  1  0  0  0  0
 18 22  1  0  0  0  0
 18 19  2  0  0  0  0
 19 20  1  0  0  0  0
 19 45  1  0  0  0  0
 20 21  2  0  0  0  0
 20 46  1  0  0  0  0
 21 22  1  0  0  0  0
 21 47  1  0  0  0  0
 23 48  1  0  0  0  0
M  END
> <Name>
ZINC05679876

> <reference>
BDB5198

> <quality>
0.739

> <status>
decoy

> <atoms in reference ligand area>
10

> <score>
23.9539

$$$$
ZINC31229550
      BALL 1.4.0 (Jan  4 2012, 23:22:29)

 60 63  0999  0  0  0  0  0  0999 V2000
  -34.4953   -0.7961  -29.6044 C   0  0  0  0  0  0  0  0  0  0  0  0
  -34.3959   -0.9877  -28.0897 C   0  0  0  0  0  0  0  0  0  0  0  0
  -34.6564    0.3470  -27.3886 C   0  0  0  0  0  0  0  0  0  0  0  0
  -33.9321    0.3653  -26.0411 C   0  0  0  0  0  0  0  0  0  0  0  0
  -34.2977    1.5789  -25.3065 N   0  0  0  0  0  0  0  0  0  0  0  0
  -34.8015    1.4859  -24.0599 C   0  0  0  0  0  0  0  0  0  0  0  0
  -34.9525    0.3948  -23.5449 O   0  0  0  0  0  0  0  0  0  0  0  0
  -35.1697    2.7081  -23.3201 C   0  0  0  0  0  0  0  0  0  0  0  0
  -35.6924    2.6134  -22.0270 C   0  0  0  0  0  0  0  0  0  0  0  0
  -36.0345    3.7552  -21.3394 C   0  0  0  0  0  0  0  0  0  0  0  0
  -35.8606    5.0037  -21.9302 C   0  0  0  0  0  0  0  0  0  0  0  0
  -35.3456    5.1011  -23.2200 C   0  0  0  0  0  0  0  0  0  0  0  0
  -34.9963    3.9633  -23.9106 C   0  0  0  0  0  0  0  0  0  0  0  0
  -36.2072    6.1556  -21.2328 N   0  0  0  0  0  0  0  0  0  0  0  0
  -35.2374    6.7057  -20.0085 S   0  0  0  0  0  0  0  0  0  0  0  0
  -34.1456    5.8006  -19.9173 O   0  0  0  0  0  0  0  0  0  0  0  0
  -36.0914    6.9825  -18.9070 O   0  0  0  0  0  0  0  0  0  0  0  0
  -34.5685    8.2508  -20.5279 C   0  0  0  0  0  0  0  0  0  0  0  0
  -34.6342    8.6170  -21.8614 C   0  0  0  0  0  0  0  0  0  0  0  0
  -34.1128    9.8260  -22.2782 C   0  0  0  0  0  0  0  0  0  0  0  0
  -33.5208   10.6767  -21.3570 C   0  0  0  0  0  0  0  0  0  0  0  0
  -33.4542   10.3072  -20.0121 C   0  0  0  0  0  0  0  0  0  0  0  0
  -33.9805    9.0913  -19.6031 C   0  0  0  0  0  0  0  0  0  0  0  0
  -32.8151   11.3466  -19.3403 N   0  0  0  0  0  0  0  0  0  0  0  0
  -32.5065   12.3039  -20.2354 C   0  0  0  0  0  0  0  0  0  0  0  0
  -31.9403   13.3493  -19.9763 O   0  0  0  0  0  0  0  0  0  0  0  0
  -32.9196   11.9288  -21.4608 N   0  0  0  0  0  0  0  0  0  0  0  0
  -34.1587    1.4459  -28.2270 N   0  3  0  0  0  0  0  0  0  0  0  0
  -34.0690    2.7090  -27.4508 C   0  0  0  0  0  0  0  0  0  0  0  0
  -33.0762    3.5637  -28.2780 C   0  0  0  0  0  0  0  0  0  0  0  0
  -32.0505    2.5189  -28.7740 C   0  0  0  0  0  0  0  0  0  0  0  0
  -32.7869    1.1682  -28.7051 C   0  0  0  0  0  0  0  0  0  0  0  0
  -34.7301    0.2552  -29.8274 H   0  0  0  0  0  0  0  0  0  0  0  0
  -35.2906   -1.4418  -30.0053 H   0  0  0  0  0  0  0  0  0  0  0  0
  -33.5365   -1.0638  -30.0723 H   0  0  0  0  0  0  0  0  0  0  0  0
  -33.3893   -1.3472  -27.8298 H   0  0  0  0  0  0  0  0  0  0  0  0
  -35.1442   -1.7250  -27.7633 H   0  0  0  0  0  0  0  0  0  0  0  0
  -35.7373    0.4707  -27.2257 H   0  0  0  0  0  0  0  0  0  0  0  0
  -32.8448    0.3520  -26.2078 H   0  0  0  0  0  0  0  0  0  0  0  0
  -34.2241   -0.5190  -25.4557 H   0  0  0  0  0  0  0  0  0  0  0  0
  -34.1698    2.5031  -25.7427 H   0  0  0  0  0  0  0  0  0  0  0  0
  -35.8300    1.6272  -21.5596 H   0  0  0  0  0  0  0  0  0  0  0  0
  -36.4457    3.6813  -20.3219 H   0  0  0  0  0  0  0  0  0  0  0  0
  -35.2179    6.0886  -23.6875 H   0  0  0  0  0  0  0  0  0  0  0  0
  -34.5809    4.0413  -24.9262 H   0  0  0  0  0  0  0  0  0  0  0  0
  -37.0671    6.6668  -21.4778 H   0  0  0  0  0  0  0  0  0  0  0  0
  -35.1037    7.9420  -22.5922 H   0  0  0  0  0  0  0  0  0  0  0  0
  -34.1670   10.1135  -23.3386 H   0  0  0  0  0  0  0  0  0  0  0  0
  -33.9297    8.7968  -18.5444 H   0  0  0  0  0  0  0  0  0  0  0  0
  -32.6130   11.3775  -18.3308 H   0  0  0  0  0  0  0  0  0  0  0  0
  -32.8097   12.4747  -22.3272 H   0  0  0  0  0  0  0  0  0  0  0  0
  -34.8201    1.5329  -29.0117 H   0  0  0  0  0  0  0  0  0  0  0  0
  -35.0511    3.2028  -27.4097 H   0  0  0  0  0  0  0  0  0  0  0  0
  -33.6580    2.5147  -26.4491 H   0  0  0  0  0  0  0  0  0  0  0  0
  -32.5819    4.3056  -27.6336 H   0  0  0  0  0  0  0  0  0  0  0  0
  -33.5918    4.0262  -29.1325 H   0  0  0  0  0  0  0  0  0  0  0  0
  -31.1748    2.5039  -28.1085 H   0  0  0  0  0  0  0  0  0  0  0  0
  -31.7625    2.7376  -29.8128 H   0  0  0  0  0  0  0  0  0  0  0  0
  -32.8244    0.7142  -29.7063 H   0  0  0  0  0  0  0  0  0  0  0  0
  -32.2732    0.5007  -27.9975 H   0  0  0  0  0  0  0  0  0  0  0  0
  1  2  1  0  0  0  0
  1 33  1  0  0  0  0
  1 34  1  0  0  0  0
  1 35  1  0  0  0  0
  2  3  1  0  0  0  0
  2 36  1  0  0  0  0
  2 37  1  0  0  0  0
  3  4  1  0  0  0  0
  3 28  1  0  0  0  0
  3 38  1  0  0  0  0
  4  5  1  0  0  0  0
  4 39  1  0  0  0  0
  4 40  1  0  0  0  0
  5  6  1  0  0  0  0
  5 41  1  0  0  0  0
  6  7  2  0  0  0  0
  6  8  1  0  0  0  0
  8 13  2  0  0  0  0
  8  9  1  0  0  0  0
  9 10  2  0  0  0  0
  9 42  1  0  0  0  0
 10 11  1  0  0  0  0
 10 43  1  0  0  0  0
 11 12  2  0  0  0  0
 11 14  1  0  0  0  0
 12 13  1  0  0  0  0
 12 44  1  0  0  0  0
 13 45  1  0  0  0  0
 14 15  1  0  0  0  0
 14 46  1  0  0  0  0
 15 16  2  0  0  0  0
 15 17  2  0  0  0  0
 15 18  1  0  0  0  0
 18 23  2  0  0  0  0
 18 19  1  0  0  0  0
 19 20  2  0  0  0  0
 19 47  1  0  0  0  0
 20 21  1  0  0  0  0
 20 48  1  0  0  0  0
 21 27  1  0  0  0  0
 21 22  2  0  0  0  0
 22 23  1  0  0  0  0
 22 24  1  0  0  0  0
 23 49  1  0  0  0  0
 24 25  1  0  0  0  0
 24 50  1  0  0  0  0
 25 26  2  0  0  0  0
 25 27  1  0  0  0  0
 27 51  1  0  0  0  0
 28 32  1  0  0  0  0
 28 29  1  0  0  0  0
 28 52  1  0  0  0  0
 29 30  1  0  0  0  0
 29 53  1  0  0  0  0
 29 54  1  0  0  0  0
 30 31  1  0  0  0  0
 30 55  1  0  0  0  0
 30 56  1  0  0  0  0
 31 32  1  0  0  0  0
 31 57  1  0  0  0  0
 31 58  1  0  0  0  0
 32 59  1  0  0  0  0
 32 60  1  0  0  0  0
M  END
> <Name>
ZINC31229550

> <reference>
BDB4968

> <quality>
0.860

> <status>
decoy

> <atoms in reference ligand area>
9

> <score>
1e+10

$$$$
ZINC02905111
      BALL 1.4.0 (Jan  4 2012, 23:22:29)

 47 48  0999  0  0  0  0  0  0999 V2000
  -24.5058    6.2791   -9.8686 C   0  0  0  0  0  0  0  0  0  0  0  0
  -26.3881    7.2531  -11.0329 C   0  0  0  0  0  0  0  0  0  0  0  0
  -27.2793    7.0507  -12.2610 C   0  0  0  0  0  0  0  0  0  0  0  0
  -27.9861    5.7277  -12.1620 C   0  0  0  0  0  0  0  0  0  0  0  0
  -27.6067    4.7819  -11.3409 C   0  0  0  0  0  0  0  0  0  0  0  0
  -26.4359    4.9226  -10.4112 C   0  0  0  0  0  0  0  0  0  0  0  0
  -29.0878    5.4993  -12.9766 N   0  0  0  0  0  0  0  0  0  0  0  0
  -29.4576    6.4496  -13.9373 N   0  0  0  0  0  0  0  0  0  0  0  0
  -30.7602    6.6518  -14.2185 C   0  0  0  0  0  0  0  0  0  0  0  0
  -31.6126    6.0107  -13.6396 O   0  0  0  0  0  0  0  0  0  0  0  0
  -31.1544    7.6648  -15.2425 C   0  0  0  0  0  0  0  0  0  0  0  0
  -30.9242    7.4621  -16.4169 O   0  0  0  0  0  0  0  0  0  0  0  0
  -31.7660    8.8043  -14.8625 N   0  0  0  0  0  0  0  0  0  0  0  0
  -32.2188    9.7101  -15.8272 C   0  0  0  0  0  0  0  0  0  0  0  0
  -31.5071    9.8843  -17.0058 C   0  0  0  0  0  0  0  0  0  0  0  0
  -31.9611   10.7792  -17.9617 C   0  0  0  0  0  0  0  0  0  0  0  0
  -33.1200   11.5082  -17.7366 C   0  0  0  0  0  0  0  0  0  0  0  0
  -33.8281   11.3405  -16.5613 C   0  0  0  0  0  0  0  0  0  0  0  0
  -33.3823   10.4438  -15.6043 C   0  0  0  0  0  0  0  0  0  0  0  0
  -34.0801   10.2792  -14.4482 O   0  0  0  0  0  0  0  0  0  0  0  0
  -34.9772   11.3277  -14.0769 C   0  0  0  0  0  0  0  0  0  0  0  0
  -31.2672   10.9468  -19.1190 O   0  0  0  0  0  0  0  0  0  0  0  0
  -29.8618   11.1795  -19.0050 C   0  0  0  0  0  0  0  0  0  0  0  0
  -25.5754    6.0348  -10.8593 N   0  3  0  0  0  0  0  0  0  0  0  0
  -24.0909    7.2863  -10.0219 H   0  0  0  0  0  0  0  0  0  0  0  0
  -23.7087    5.5328  -10.0020 H   0  0  0  0  0  0  0  0  0  0  0  0
  -24.9171    6.2010   -8.8514 H   0  0  0  0  0  0  0  0  0  0  0  0
  -27.0137    7.4110  -10.1420 H   0  0  0  0  0  0  0  0  0  0  0  0
  -25.7286    8.1189  -11.1923 H   0  0  0  0  0  0  0  0  0  0  0  0
  -28.0231    7.8596  -12.3111 H   0  0  0  0  0  0  0  0  0  0  0  0
  -26.6605    7.0672  -13.1703 H   0  0  0  0  0  0  0  0  0  0  0  0
  -28.1725    3.8387  -11.3313 H   0  0  0  0  0  0  0  0  0  0  0  0
  -25.8544    3.9889  -10.4090 H   0  0  0  0  0  0  0  0  0  0  0  0
  -26.7990    5.1286   -9.3936 H   0  0  0  0  0  0  0  0  0  0  0  0
  -29.6328    4.6313  -12.8744 H   0  0  0  0  0  0  0  0  0  0  0  0
  -28.7341    6.9937  -14.4287 H   0  0  0  0  0  0  0  0  0  0  0  0
  -31.8998    9.0079  -13.8617 H   0  0  0  0  0  0  0  0  0  0  0  0
  -30.5838    9.3128  -17.1811 H   0  0  0  0  0  0  0  0  0  0  0  0
  -33.4761   12.2210  -18.4950 H   0  0  0  0  0  0  0  0  0  0  0  0
  -34.7465   11.9199  -16.3859 H   0  0  0  0  0  0  0  0  0  0  0  0
  -34.7384   12.1832  -14.7258 H   0  0  0  0  0  0  0  0  0  0  0  0
  -34.7186   11.6048  -13.0443 H   0  0  0  0  0  0  0  0  0  0  0  0
  -36.0339   11.0348  -14.1653 H   0  0  0  0  0  0  0  0  0  0  0  0
  -29.3735   10.2061  -19.1602 H   0  0  0  0  0  0  0  0  0  0  0  0
  -29.6824   11.4848  -17.9634 H   0  0  0  0  0  0  0  0  0  0  0  0
  -29.4963   11.9341  -19.7169 H   0  0  0  0  0  0  0  0  0  0  0  0
  -25.1432    5.7845  -11.7602 H   0  0  0  0  0  0  0  0  0  0  0  0
  1 24  1  0  0  0  0
  1 25  1  0  0  0  0
  1 26  1  0  0  0  0
  1 27  1  0  0  0  0
  2  3  1  0  0  0  0
  2 24  1  0  0  0  0
  2 28  1  0  0  0  0
  2 29  1  0  0  0  0
  3  4  1  0  0  0  0
  3 30  1  0  0  0  0
  3 31  1  0  0  0  0
  4  5  2  0  0  0  0
  4  7  1  0  0  0  0
  5  6  1  0  0  0  0
  5 32  1  0  0  0  0
  6 24  1  0  0  0  0
  6 33  1  0  0  0  0
  6 34  1  0  0  0  0
  7  8  1  0  0  0  0
  7 35  1  0  0  0  0
  8  9  1  0  0  0  0
  8 36  1  0  0  0  0
  9 10  2  0  0  0  0
  9 11  1  0  0  0  0
 11 12  2  0  0  0  0
 11 13  1  0  0  0  0
 13 14  1  0  0  0  0
 13 37  1  0  0  0  0
 14 19  2  0  0  0  0
 14 15  1  0  0  0  0
 15 16  2  0  0  0  0
 15 38  1  0  0  0  0
 16 17  1  0  0  0  0
 16 22  1  0  0  0  0
 17 18  2  0  0  0  0
 17 39  1  0  0  0  0
 18 19  1  0  0  0  0
 18 40  1  0  0  0  0
 19 20  1  0  0  0  0
 20 21  1  0  0  0  0
 21 41  1  0  0  0  0
 21 42  1  0  0  0  0
 21 43  1  0  0  0  0
 22 23  1  0  0  0  0
 23 44  1  0  0  0  0
 23 45  1  0  0  0  0
 23 46  1  0  0  0  0
 24 47  1  0  0  0  0
M  END
> <Name>
ZINC02905111

> <reference>
BDB5200

> <quality>
0.785

> <status>
decoy

> <atoms in reference ligand area>
8

> <score>
2e+10

$$$$
ZINC29823259
      BALL 1.4.0 (Jan  4 2012, 23:22:29)

 42 43  0999  0  0  0  0  0  0999 V2000
  -31.3629   10.9268  -22.7151 C   0  0  0  0  0  0  0  0  0  0  0  0
  -31.0724   10.3834  -21.3859 N   0  0  0  0  0  0  0  0  0  0  0  0
  -30.4553   11.0358  -20.3620 C   0  0  0  0  0  0  0  0  0  0  0  0
  -30.3705   10.2273  -19.3425 N   0  0  0  0  0  0  0  0  0  0  0  0
  -30.9239    9.0468  -19.6623 C   0  0  0  0  0  0  0  0  0  0  0  0
  -31.3729    9.1242  -20.9375 C   0  0  0  0  0  0  0  0  0  0  0  0
  -32.0127    8.1143  -21.6578 N   0  0  0  0  0  0  0  0  0  0  0  0
  -31.2127    6.8815  -21.6603 C   0  0  0  0  0  0  0  0  0  0  0  0
  -31.9084    5.8268  -22.5241 C   0  0  0  0  0  0  0  0  0  0  0  0
  -33.2562    5.5755  -21.9950 N   0  0  0  0  0  0  0  0  0  0  0  0
  -34.0562    6.8082  -21.9924 C   0  0  0  0  0  0  0  0  0  0  0  0
  -33.3605    7.8629  -21.1287 C   0  0  0  0  0  0  0  0  0  0  0  0
  -33.9296    4.5125  -22.7531 C   0  0  0  0  0  0  0  0  0  0  0  0
  -33.6966    4.7277  -24.2499 C   0  0  0  0  0  0  0  0  0  0  0  0
  -34.6453    5.7820  -24.7594 C   0  0  0  0  0  0  0  0  0  0  0  0
  -35.7360    5.4630  -25.1815 O   0  0  0  0  0  0  0  0  0  0  0  0
  -34.2811    7.0796  -24.7457 N   0  0  0  0  0  0  0  0  0  0  0  0
  -35.1295    8.0225  -25.2015 C   0  0  0  0  0  0  0  0  0  0  0  0
  -35.3754    8.0956  -26.3894 O   0  0  0  0  0  0  0  0  0  0  0  0
  -35.7053    8.8841  -24.3398 N   0  0  0  0  0  0  0  0  0  0  0  0
  -31.0262    7.8659  -18.7747 N   0  0  0  0  0  0  0  0  0  0  0  0
  -30.8168    7.9818  -17.5804 O   0  0  0  0  0  0  0  0  0  0  0  0
  -31.3195    6.7787  -19.2388 O   0  0  0  0  0  0  0  0  0  0  0  0
  -30.4974   11.5813  -22.8950 H   0  0  0  0  0  0  0  0  0  0  0  0
  -32.2084   11.6010  -22.5131 H   0  0  0  0  0  0  0  0  0  0  0  0
  -31.5508   10.1999  -23.5191 H   0  0  0  0  0  0  0  0  0  0  0  0
  -30.0890   12.0727  -20.3904 H   0  0  0  0  0  0  0  0  0  0  0  0
  -30.2148    7.0924  -22.0723 H   0  0  0  0  0  0  0  0  0  0  0  0
  -31.1135    6.5050  -20.6315 H   0  0  0  0  0  0  0  0  0  0  0  0
  -31.3272    4.8931  -22.5043 H   0  0  0  0  0  0  0  0  0  0  0  0
  -31.9832    6.1913  -23.5593 H   0  0  0  0  0  0  0  0  0  0  0  0
  -35.0545    6.5983  -21.5809 H   0  0  0  0  0  0  0  0  0  0  0  0
  -34.1545    7.1841  -23.0215 H   0  0  0  0  0  0  0  0  0  0  0  0
  -33.9437    8.7953  -21.1488 H   0  0  0  0  0  0  0  0  0  0  0  0
  -33.2863    7.4980  -20.0936 H   0  0  0  0  0  0  0  0  0  0  0  0
  -33.5215    3.5352  -22.4558 H   0  0  0  0  0  0  0  0  0  0  0  0
  -35.0090    4.5384  -22.5433 H   0  0  0  0  0  0  0  0  0  0  0  0
  -33.8734    3.7852  -24.7888 H   0  0  0  0  0  0  0  0  0  0  0  0
  -32.6602    5.0565  -24.4162 H   0  0  0  0  0  0  0  0  0  0  0  0
  -33.3544    7.3506  -24.3869 H   0  0  0  0  0  0  0  0  0  0  0  0
  -35.3268    9.8360  -24.2332 H   0  0  0  0  0  0  0  0  0  0  0  0
  -36.5239    8.5905  -23.7879 H   0  0  0  0  0  0  0  0  0  0  0  0
  1  2  1  0  0  0  0
  1 24  1  0  0  0  0
  1 25  1  0  0  0  0
  1 26  1  0  0  0  0
  2  6  1  0  0  0  0
  2  3  1  0  0  0  0
  3  4  2  0  0  0  0
  3 27  1  0  0  0  0
  4  5  1  0  0  0  0
  5  6  2  0  0  0  0
  5 21  1  0  0  0  0
  6  7  1  0  0  0  0
  7 12  1  0  0  0  0
  7  8  1  0  0  0  0
  8  9  1  0  0  0  0
  8 28  1  0  0  0  0
  8 29  1  0  0  0  0
  9 10  1  0  0  0  0
  9 30  1  0  0  0  0
  9 31  1  0  0  0  0
 10 11  1  0  0  0  0
 10 13  1  0  0  0  0
 11 12  1  0  0  0  0
 11 32  1  0  0  0  0
 11 33  1  0  0  0  0
 12 34  1  0  0  0  0
 12 35  1  0  0  0  0
 13 14  1  0  0  0  0
 13 36  1  0  0  0  0
 13 37  1  0  0  0  0
 14 15  1  0  0  0  0
 14 38  1  0  0  0  0
 14 39  1  0  0  0  0
 15 16  2  0  0  0  0
 15 17  1  0  0  0  0
 17 18  1  0  0  0  0
 17 40  1  0  0  0  0
 18 19  2  0  0  0  0
 18 20  1  0  0  0  0
 20 41  1  0  0  0  0
 20 42  1  0  0  0  0
 21 22  2  0  0  0  0
 21 23  2  0  0  0  0
M  END
> <Name>
ZINC29823259

> <reference>
BDB4932

> <quality>
0.687

> <status>
decoy

> <atoms in reference ligand area>
8

> <score>
2e+10

$$$$
ZINC25187303
      BALL 1.4.0 (Jan  4 2012, 23:22:29)

 58 59  0999  0  0  0  0  0  0999 V2000
  -27.1005    6.5682  -13.6068 C   0  0  0  0  0  0  0  0  0  0  0  0
  -27.1105    5.3731  -12.6514 C   0  0  0  0  0  0  0  0  0  0  0  0
  -28.5326    5.0342  -12.2856 C   0  0  0  0  0  0  0  0  0  0  0  0
  -28.7576    4.1929  -11.4416 O   0  0  0  0  0  0  0  0  0  0  0  0
  -29.5544    5.6661  -12.8965 N   0  0  0  0  0  0  0  0  0  0  0  0
  -30.0487    6.9535  -12.3896 C   0  0  0  0  0  0  0  0  0  0  0  0
  -31.5598    6.8463  -12.1619 C   0  0  0  0  0  0  0  0  0  0  0  0
  -32.2351    6.3789  -13.4533 C   0  0  0  0  0  0  0  0  0  0  0  0
  -31.7041    4.9947  -13.8357 C   0  0  0  0  0  0  0  0  0  0  0  0
  -30.1947    5.0810  -14.0824 C   0  0  0  0  0  0  0  0  0  0  0  0
  -29.6427    3.6998  -14.3248 C   0  0  0  0  0  0  0  0  0  0  0  0
  -29.6313    2.8850  -13.4265 O   0  0  0  0  0  0  0  0  0  0  0  0
  -29.1618    3.3700  -15.5399 N   0  0  0  0  0  0  0  0  0  0  0  0
  -28.6251    2.0273  -15.7755 C   0  0  0  0  0  0  0  0  0  0  0  0
  -27.2483    2.1367  -16.4338 C   0  0  0  0  0  0  0  0  0  0  0  0
  -26.1712    1.6995  -15.4390 C   0  0  0  0  0  0  0  0  0  0  0  0
  -24.8151    1.8072  -16.0874 C   0  0  0  0  0  0  0  0  0  0  0  0
  -23.8211    1.8645  -15.4030 O   0  0  0  0  0  0  0  0  0  0  0  0
  -24.7115    1.8393  -17.4253 O   0  0  0  0  0  0  0  0  0  0  0  0
  -23.3740    1.9439  -17.9807 C   0  0  0  0  0  0  0  0  0  0  0  0
  -31.9409    7.3286  -14.5292 N   0  0  0  0  0  0  0  0  0  0  0  0
  -32.9484    7.8958  -15.2218 C   0  0  0  0  0  0  0  0  0  0  0  0
  -34.1010    7.6194  -14.9537 O   0  0  0  0  0  0  0  0  0  0  0  0
  -32.6508    8.8561  -16.3099 C   0  0  0  0  0  0  0  0  0  0  0  0
  -33.6562    9.2923  -17.1781 C   0  0  0  0  0  0  0  0  0  0  0  0
  -33.3356   10.1924  -18.1759 C   0  0  0  0  0  0  0  0  0  0  0  0
  -32.1009   10.6303  -18.3211 N   0  0  0  0  0  0  0  0  0  0  0  0
  -31.1227   10.2405  -17.5283 C   0  0  0  0  0  0  0  0  0  0  0  0
  -31.3556    9.3469  -16.5008 C   0  0  0  0  0  0  0  0  0  0  0  0
  -26.3800    5.7028  -11.4684 O   0  0  0  0  0  0  0  0  0  0  0  0
  -27.1524    6.2092  -14.6453 H   0  0  0  0  0  0  0  0  0  0  0  0
  -26.1746    7.1448  -13.4646 H   0  0  0  0  0  0  0  0  0  0  0  0
  -27.9678    7.2121  -13.3987 H   0  0  0  0  0  0  0  0  0  0  0  0
  -26.6419    4.5075  -13.1424 H   0  0  0  0  0  0  0  0  0  0  0  0
  -29.5495    7.1916  -11.4388 H   0  0  0  0  0  0  0  0  0  0  0  0
  -29.8433    7.7443  -13.1262 H   0  0  0  0  0  0  0  0  0  0  0  0
  -31.9596    7.8301  -11.8750 H   0  0  0  0  0  0  0  0  0  0  0  0
  -31.7596    6.1201  -11.3602 H   0  0  0  0  0  0  0  0  0  0  0  0
  -33.3228    6.3242  -13.2989 H   0  0  0  0  0  0  0  0  0  0  0  0
  -32.2056    4.6481  -14.7513 H   0  0  0  0  0  0  0  0  0  0  0  0
  -31.9018    4.2867  -13.0173 H   0  0  0  0  0  0  0  0  0  0  0  0
  -29.9946    5.7081  -14.9636 H   0  0  0  0  0  0  0  0  0  0  0  0
  -29.1715    4.0619  -16.3028 H   0  0  0  0  0  0  0  0  0  0  0  0
  -28.5314    1.4962  -14.8168 H   0  0  0  0  0  0  0  0  0  0  0  0
  -29.3043    1.4708  -16.4381 H   0  0  0  0  0  0  0  0  0  0  0  0
  -27.2131    1.4869  -17.3207 H   0  0  0  0  0  0  0  0  0  0  0  0
  -27.0665    3.1788  -16.7353 H   0  0  0  0  0  0  0  0  0  0  0  0
  -26.3508    0.6571  -15.1371 H   0  0  0  0  0  0  0  0  0  0  0  0
  -26.2057    2.3493  -14.5520 H   0  0  0  0  0  0  0  0  0  0  0  0
  -23.4330    1.5525  -19.0070 H   0  0  0  0  0  0  0  0  0  0  0  0
  -22.7408    1.2617  -17.3945 H   0  0  0  0  0  0  0  0  0  0  0  0
  -22.9867    2.9732  -17.9613 H   0  0  0  0  0  0  0  0  0  0  0  0
  -30.9640    7.5629  -14.7564 H   0  0  0  0  0  0  0  0  0  0  0  0
  -34.6870    8.9242  -17.0683 H   0  0  0  0  0  0  0  0  0  0  0  0
  -34.1214   10.5483  -18.8585 H   0  0  0  0  0  0  0  0  0  0  0  0
  -30.1070   10.6320  -17.6870 H   0  0  0  0  0  0  0  0  0  0  0  0
  -30.5345    9.0264  -15.8428 H   0  0  0  0  0  0  0  0  0  0  0  0
  -25.4456    5.9257  -11.7077 H   0  0  0  0  0  0  0  0  0  0  0  0
  1  2  1  0  0  0  0
  1 31  1  0  0  0  0
  1 32  1  0  0  0  0
  1 33  1  0  0  0  0
  2  3  1  0  0  0  0
  2 30  1  0  0  0  0
  2 34  1  0  0  0  0
  3  4  2  0  0  0  0
  3  5  1  0  0  0  0
  5 10  1  0  0  0  0
  5  6  1  0  0  0  0
  6  7  1  0  0  0  0
  6 35  1  0  0  0  0
  6 36  1  0  0  0  0
  7  8  1  0  0  0  0
  7 37  1  0  0  0  0
  7 38  1  0  0  0  0
  8  9  1  0  0  0  0
  8 21  1  0  0  0  0
  8 39  1  0  0  0  0
  9 10  1  0  0  0  0
  9 40  1  0  0  0  0
  9 41  1  0  0  0  0
 10 11  1  0  0  0  0
 10 42  1  0  0  0  0
 11 12  2  0  0  0  0
 11 13  1  0  0  0  0
 13 14  1  0  0  0  0
 13 43  1  0  0  0  0
 14 15  1  0  0  0  0
 14 44  1  0  0  0  0
 14 45  1  0  0  0  0
 15 16  1  0  0  0  0
 15 46  1  0  0  0  0
 15 47  1  0  0  0  0
 16 17  1  0  0  0  0
 16 48  1  0  0  0  0
 16 49  1  0  0  0  0
 17 18  2  0  0  0  0
 17 19  1  0  0  0  0
 19 20  1  0  0  0  0
 20 50  1  0  0  0  0
 20 51  1  0  0  0  0
 20 52  1  0  0  0  0
 21 22  1  0  0  0  0
 21 53  1  0  0  0  0
 22 23  2  0  0  0  0
 22 24  1  0  0  0  0
 24 29  2  0  0  0  0
 24 25  1  0  0  0  0
 25 26  2  0  0  0  0
 25 54  1  0  0  0  0
 26 27  1  0  0  0  0
 26 55  1  0  0  0  0
 27 28  2  0  0  0  0
 28 29  1  0  0  0  0
 28 56  1  0  0  0  0
 29 57  1  0  0  0  0
 30 58  1  0  0  0  0
M  END
> <Name>
ZINC25187303

> <reference>
BDB4965

> <quality>
0.663

> <status>
decoy

> <atoms in reference ligand area>
5

> <score>
6e+10

$$$$
