ZINC05677679
 OpenBabel01081721503D

 26 27  0  0  1  0  0  0  0  0999 V2000
  -28.4170   13.2800  -22.4220 N   0  0  0  0  0  0  0  0  0  0  0  0
  -28.8950   13.8140  -23.0980 H   0  0  0  0  0  0  0  0  0  0  0  0
  -27.8110   13.8900  -21.3850 C   0  0  0  0  0  0  0  0  0  0  0  0
  -26.4660   13.1520  -20.6240 S   0  0  0  0  0  0  0  0  0  0  0  0
  -28.2620   15.0820  -20.9470 N   0  0  0  0  0  0  0  0  0  0  0  0
  -28.0610   15.9020  -21.4540 H   0  0  0  0  0  0  0  0  0  0  0  0
  -30.0650   16.2980  -19.8560 C   0  0  0  0  0  0  0  0  0  0  0  0
  -29.0540   15.1580  -19.7160 C   0  0  2  0  0  0  0  0  0  0  0  0
  -28.1190   15.4750  -18.5510 C   0  0  0  0  0  0  0  0  0  0  0  0
  -28.6840   14.8960  -17.2280 C   0  0  0  0  0  0  0  0  0  0  0  0
  -29.3350   13.2840  -17.8530 S   0  0  0  0  0  0  0  0  0  0  0  0
  -28.2640   12.3550  -17.9560 O   0  0  0  0  0  0  0  0  0  0  0  0
  -30.5000   12.9350  -17.1200 O   0  0  0  0  0  0  0  0  0  0  0  0
  -29.8230   13.8340  -19.5400 C   0  0  0  0  0  0  0  0  0  0  0  0
  -28.3660   11.8210  -22.5460 C   0  0  0  0  0  0  0  0  0  0  0  0
  -29.6410   11.2140  -21.9570 C   0  0  0  0  0  0  0  0  0  0  0  0
  -30.8120   11.9300  -22.4970 N   0  0  0  0  0  0  0  0  0  0  0  0
  -30.6090   12.9290  -22.5200 H   0  0  0  0  0  0  0  0  0  0  0  0
  -31.0070   11.5910  -23.4400 H   0  0  0  0  0  0  0  0  0  0  0  0
  -31.9920   11.6980  -21.6440 C   0  0  1  0  0  0  0  0  0  0  0  0
  -31.5670   10.9230  -20.3850 C   0  0  0  0  0  0  0  0  0  0  0  0
  -32.7050   10.9520  -19.3370 C   0  0  0  0  0  0  0  0  0  0  0  0
  -33.5690   12.5290  -19.7250 S   0  0  0  0  0  0  0  0  0  0  0  0
  -33.3480   13.4490  -18.6640 O   0  0  0  0  0  0  0  0  0  0  0  0
  -34.8990   12.2390  -20.1340 O   0  0  0  0  0  0  0  0  0  0  0  0
  -32.5920   13.0600  -21.1930 C   0  0  0  0  0  0  0  0  0  0  0  0
  1  3  1  0  0  0  0
  2  1  1  0  0  0  0
  3  5  1  0  0  0  0
  3  4  2  0  0  0  0
  6  5  1  0  0  0  0
  7  8  1  0  0  0  0
  8  5  1  6  0  0  0
  8 14  1  0  0  0  0
  8  9  1  0  0  0  0
  9 10  1  0  0  0  0
 11 10  1  0  0  0  0
 11 13  2  0  0  0  0
 12 11  2  0  0  0  0
 14 11  1  0  0  0  0
 15  1  1  0  0  0  0
 15 16  1  0  0  0  0
 17 16  1  0  0  0  0
 18 17  1  0  0  0  0
 19 17  1  0  0  0  0
 20 17  1  6  0  0  0
 20 26  1  0  0  0  0
 20 21  1  0  0  0  0
 21 22  1  0  0  0  0
 23 22  1  0  0  0  0
 23 24  2  0  0  0  0
 25 23  2  0  0  0  0
 26 23  1  0  0  0  0
M  END
>  <MODEL>
1

>  <REMARK>
 VINA RESULT:      -7.4      0.000      0.000
  Name = ZINC05677679
                            x       y       z     vdW  Elec       q    Type
                         _______ _______ _______ _____ _____    ______ ____

>  <TORSDO>
F 7

>  <vina_score>
-7.4

$$$$
ZINC05426335
 OpenBabel01081721533D

 23 25  0  0  1  0  0  0  0  0999 V2000
  -30.8070   13.2170  -18.0250 N   0  0  0  0  0  0  0  0  0  0  0  0
  -31.2360   12.7880  -19.2540 C   0  0  0  0  0  0  0  0  0  0  0  0
  -30.6790   12.4330  -20.3910 N   0  0  0  0  0  0  0  0  0  0  0  0
  -31.4130   12.0540  -21.4340 C   0  0  0  0  0  0  0  0  0  0  0  0
  -32.7330   11.9970  -21.4300 N   0  0  0  0  0  0  0  0  0  0  0  0
  -33.4490   12.3200  -20.3430 C   0  0  0  0  0  0  0  0  0  0  0  0
  -34.6680   12.2680  -20.3470 O   0  0  0  0  0  0  0  0  0  0  0  0
  -32.7050   12.7550  -19.1490 C   0  0  0  0  0  0  0  0  0  0  0  0
  -33.0170   13.1520  -17.9400 N   0  0  0  0  0  0  0  0  0  0  0  0
  -31.9630   13.4280  -17.2570 N   0  0  0  0  0  0  0  0  0  0  0  0
  -29.0310   14.9020  -17.7680 C   0  0  0  0  0  0  0  0  0  0  0  0
  -27.8150   14.8690  -18.7270 C   0  0  1  0  0  0  0  0  0  0  0  0
  -27.3150   13.4110  -18.5670 C   0  0  1  0  0  0  0  0  0  0  0  0
  -28.5340   12.6490  -18.4300 O   0  0  0  0  0  0  0  0  0  0  0  0
  -29.4200   13.4200  -17.6000 C   0  0  2  0  0  0  0  0  0  0  0  0
  -28.2200   15.1240  -20.0730 O   0  0  0  0  0  0  0  0  0  0  0  0
  -28.9770   14.5590  -20.2960 H   0  0  0  0  0  0  0  0  0  0  0  0
  -26.5400   12.9680  -19.8090 C   0  0  0  0  0  0  0  0  0  0  0  0
  -27.4560   12.5010  -20.8020 O   0  0  0  0  0  0  0  0  0  0  0  0
  -28.3380   12.4110  -20.4100 H   0  0  0  0  0  0  0  0  0  0  0  0
  -30.7560   11.6970  -22.5890 N   0  0  0  0  0  0  0  0  0  0  0  0
  -29.8050   11.4440  -22.5560 H   0  0  0  0  0  0  0  0  0  0  0  0
  -31.2360   11.6950  -23.4480 H   0  0  0  0  0  0  0  0  0  0  0  0
  1 10  1  0  0  0  0
  2  8  2  0  0  0  0
  2  1  1  0  0  0  0
  3  2  1  0  0  0  0
  4  5  2  0  0  0  0
  4  3  1  0  0  0  0
  5  6  1  0  0  0  0
  6  8  1  0  0  0  0
  7  6  2  0  0  0  0
  8  9  1  0  0  0  0
  9 10  2  0  0  0  0
 11 15  1  0  0  0  0
 12 16  1  6  0  0  0
 12 13  1  0  0  0  0
 12 11  1  0  0  0  0
 13 18  1  6  0  0  0
 13 14  1  0  0  0  0
 14 15  1  0  0  0  0
 15  1  1  6  0  0  0
 17 16  1  0  0  0  0
 19 20  1  0  0  0  0
 19 18  1  0  0  0  0
 21 22  1  0  0  0  0
 21  4  1  0  0  0  0
 23 21  1  0  0  0  0
M  END
>  <MODEL>
1

>  <REMARK>
 VINA RESULT:      -7.3      0.000      0.000
  Name = ZINC05426335
                            x       y       z     vdW  Elec       q    Type
                         _______ _______ _______ _____ _____    ______ ____

>  <TORSDO>
F 5

>  <vina_score>
-7.3

$$$$
ZINC20188385
 OpenBabel01081721493D

 26 27  0  0  0  0  0  0  0  0999 V2000
  -30.8740   12.2860  -21.3620 S   0  0  0  0  0  0  0  0  0  0  0  0
  -31.8840   12.7680  -22.2380 O   0  0  0  0  0  0  0  0  0  0  0  0
  -30.1320   11.1050  -21.6340 O   0  0  0  0  0  0  0  0  0  0  0  0
  -32.8390   11.6800  -17.3290 C   0  0  0  0  0  0  0  0  0  0  0  0
  -31.8490   10.8140  -17.7530 C   0  0  0  0  0  0  0  0  0  0  0  0
  -31.2520   10.9960  -18.9870 C   0  0  0  0  0  0  0  0  0  0  0  0
  -31.6380   12.0510  -19.7920 C   0  0  0  0  0  0  0  0  0  0  0  0
  -32.6250   12.9210  -19.3660 C   0  0  0  0  0  0  0  0  0  0  0  0
  -33.2250   12.7360  -18.1350 C   0  0  0  0  0  0  0  0  0  0  0  0
  -33.4930   11.4790  -15.9870 C   0  0  0  0  0  0  0  0  0  0  0  0
  -34.9630   12.5080  -14.3610 C   0  0  0  0  0  0  0  0  0  0  0  0
  -34.1860   12.7120  -15.5910 N   0  0  0  0  0  0  0  0  0  0  0  0
  -34.8260   12.9810  -16.3390 H   0  0  0  0  0  0  0  0  0  0  0  0
  -33.4960   13.4460  -15.4310 H   0  0  0  0  0  0  0  0  0  0  0  0
  -29.7720   13.5100  -21.1920 N   0  0  0  0  0  0  0  0  0  0  0  0
  -29.1990   13.7610  -19.9510 C   0  0  0  0  0  0  0  0  0  0  0  0
  -28.4040   12.7980  -19.3410 C   0  0  0  0  0  0  0  0  0  0  0  0
  -27.8330   13.0530  -18.1120 C   0  0  0  0  0  0  0  0  0  0  0  0
  -28.0540   14.2620  -17.4710 C   0  0  0  0  0  0  0  0  0  0  0  0
  -28.8450   15.2260  -18.0580 C   0  0  0  0  0  0  0  0  0  0  0  0
  -29.4260   14.9860  -19.3050 C   0  0  0  0  0  0  0  0  0  0  0  0
  -30.2730   16.0130  -19.9390 C   0  0  0  0  0  0  0  0  0  0  0  0
  -29.7150   17.1360  -20.4320 N   0  0  0  0  0  0  0  0  0  0  0  0
  -30.2800   17.8230  -20.8540 H   0  0  0  0  0  0  0  0  0  0  0  0
  -28.7420   17.2710  -20.3690 H   0  0  0  0  0  0  0  0  0  0  0  0
  -31.4760   15.8470  -20.0170 O   0  0  0  0  0  0  0  0  0  0  0  0
  1 15  1  0  0  0  0
  1  7  1  0  0  0  0
  2  1  2  0  0  0  0
  3  1  2  0  0  0  0
  4 10  1  0  0  0  0
  5  4  1  0  0  0  0
  6  5  2  0  0  0  0
  7  8  2  0  0  0  0
  7  6  1  0  0  0  0
  8  9  1  0  0  0  0
  9  4  2  0  0  0  0
 10 12  1  0  0  0  0
 12 14  1  0  0  0  0
 12 11  1  0  0  0  0
 13 12  1  0  0  0  0
 15 16  1  0  0  0  0
 16 17  2  0  0  0  0
 16 21  1  0  0  0  0
 17 18  1  0  0  0  0
 18 19  2  0  0  0  0
 20 19  1  0  0  0  0
 21 20  2  0  0  0  0
 22 21  1  0  0  0  0
 23 25  1  0  0  0  0
 23 22  1  0  0  0  0
 24 23  1  0  0  0  0
 26 22  2  0  0  0  0
M  END
>  <MODEL>
1

>  <REMARK>
 VINA RESULT:      -7.2      0.000      0.000
  Name = ZINC20188385
                            x       y       z     vdW  Elec       q    Type
                         _______ _______ _______ _____ _____    ______ ____

>  <TORSDO>
F 6

>  <vina_score>
-7.2

$$$$
ZINC31259784
 OpenBabel01081721553D

 26 28  0  0  1  0  0  0  0  0999 V2000
  -29.1920   15.1190  -19.3500 C   0  0  0  0  0  0  0  0  0  0  0  0
  -30.5950   14.5700  -19.3760 C   0  0  0  0  0  0  0  0  0  0  0  0
  -31.1140   13.6310  -18.5470 C   0  0  0  0  0  0  0  0  0  0  0  0
  -32.5210   13.4310  -18.9720 C   0  0  0  0  0  0  0  0  0  0  0  0
  -32.7460   14.2630  -20.0390 N   0  0  0  0  0  0  0  0  0  0  0  0
  -33.2430   12.5620  -18.3130 N   0  0  0  0  0  0  0  0  0  0  0  0
  -32.7350   11.8650  -17.2690 C   0  0  0  0  0  0  0  0  0  0  0  0
  -31.5060   11.9840  -16.8250 N   0  0  0  0  0  0  0  0  0  0  0  0
  -30.6300   12.8410  -17.4000 C   0  0  0  0  0  0  0  0  0  0  0  0
  -29.4900   12.9520  -16.9890 O   0  0  0  0  0  0  0  0  0  0  0  0
  -31.6750   14.9430  -20.3180 C   0  0  0  0  0  0  0  0  0  0  0  0
  -33.5600   10.9750  -16.6340 N   0  0  0  0  0  0  0  0  0  0  0  0
  -33.1750   10.2400  -16.1030 H   0  0  0  0  0  0  0  0  0  0  0  0
  -34.5360   11.0690  -16.7080 H   0  0  0  0  0  0  0  0  0  0  0  0
  -28.5680   14.9330  -20.6660 N   0  0  0  0  0  0  0  0  0  0  0  0
  -27.9630   15.7320  -20.8550 H   0  0  0  0  0  0  0  0  0  0  0  0
  -29.2980   14.8610  -21.3750 H   0  0  0  0  0  0  0  0  0  0  0  0
  -27.6480   13.1170  -19.3080 C   0  0  0  0  0  0  0  0  0  0  0  0
  -26.4210   12.7590  -19.0400 C   0  0  0  0  0  0  0  0  0  0  0  0
  -25.5020   13.0560  -20.2020 C   0  0  2  0  0  0  0  0  0  0  0  0
  -26.2940   14.0470  -21.0850 C   0  0  1  0  0  0  0  0  0  0  0  0
  -27.7510   13.7120  -20.6930 C   0  0  2  0  0  0  0  0  0  0  0  0
  -25.2160   11.8600  -20.9290 O   0  0  0  0  0  0  0  0  0  0  0  0
  -24.3610   11.9510  -21.3770 H   0  0  0  0  0  0  0  0  0  0  0  0
  -25.9710   15.4000  -20.7540 O   0  0  0  0  0  0  0  0  0  0  0  0
  -26.1540   15.5550  -19.8140 H   0  0  0  0  0  0  0  0  0  0  0  0
  2  1  1  0  0  0  0
  2  3  1  0  0  0  0
  3  9  1  0  0  0  0
  4  3  2  0  0  0  0
  4  6  1  0  0  0  0
  5  4  1  0  0  0  0
  6  7  1  0  0  0  0
  7  8  2  0  0  0  0
  7 12  1  0  0  0  0
  9 10  2  0  0  0  0
  9  8  1  0  0  0  0
 11  5  1  0  0  0  0
 11  2  2  0  0  0  0
 12 13  1  0  0  0  0
 14 12  1  0  0  0  0
 15  1  1  0  0  0  0
 16 15  1  0  0  0  0
 17 15  1  0  0  0  0
 18 19  1  0  0  0  0
 20 23  1  6  0  0  0
 20 19  1  0  0  0  0
 21 25  1  1  0  0  0
 21 22  1  0  0  0  0
 21 20  1  0  0  0  0
 22 15  1  1  0  0  0
 22 18  1  0  0  0  0
 24 23  1  0  0  0  0
 25 26  1  0  0  0  0
M  END
>  <MODEL>
1

>  <REMARK>
 VINA RESULT:      -7.2      0.000      0.000
  Name = ZINC31259784
                            x       y       z     vdW  Elec       q    Type
                         _______ _______ _______ _____ _____    ______ ____

>  <TORSDO>
F 6

>  <vina_score>
-7.2

$$$$
ZINC05192440
 OpenBabel01081721453D

 28 29  0  0  1  0  0  0  0  0999 V2000
  -31.3990   12.1920  -21.8680 C   0  0  0  0  0  0  0  0  0  0  0  0
  -30.2110   11.8920  -20.9520 C   0  0  0  0  0  0  0  0  0  0  0  0
  -28.9640   12.6040  -21.4860 C   0  0  0  0  0  0  0  0  0  0  0  0
  -27.9140   13.8280  -17.7140 C   0  0  0  0  0  0  0  0  0  0  0  0
  -27.6800   14.9290  -18.7710 C   0  0  1  0  0  0  0  0  0  0  0  0
  -27.7360   14.4180  -20.2130 C   0  0  2  0  0  0  0  0  0  0  0  0
  -28.8580   15.1580  -20.8120 N   0  0  0  0  0  0  0  0  0  0  0  0
  -29.1710   15.0680  -21.7410 H   0  0  0  0  0  0  0  0  0  0  0  0
  -29.3850   15.9730  -19.8880 C   0  0  0  0  0  0  0  0  0  0  0  0
  -30.3300   16.7060  -20.1120 O   0  0  0  0  0  0  0  0  0  0  0  0
  -28.0130   12.9030  -20.3250 C   0  0  1  0  0  0  0  0  0  0  0  0
  -28.7770   15.9080  -18.6960 N   0  0  0  0  0  0  0  0  0  0  0  0
  -29.0230   16.4300  -17.8990 H   0  0  0  0  0  0  0  0  0  0  0  0
  -28.8210   12.5600  -18.7010 S   0  0  0  0  0  0  0  0  0  0  0  0
  -32.1730   13.3940  -21.3210 C   0  0  0  0  0  0  0  0  0  0  0  0
  -33.0940   12.9390  -20.2190 C   0  0  0  0  0  0  0  0  0  0  0  0
  -32.9810   13.4680  -18.9850 N   0  0  0  0  0  0  0  0  0  0  0  0
  -32.2970   14.1510  -18.8030 H   0  0  0  0  0  0  0  0  0  0  0  0
  -33.9380   12.0970  -20.4430 O   0  0  0  0  0  0  0  0  0  0  0  0
  -33.8380   13.0450  -17.9610 N   0  0  0  0  0  0  0  0  0  0  0  0
  -34.8130   13.0800  -18.0880 H   0  0  0  0  0  0  0  0  0  0  0  0
  -33.3270   12.5890  -16.7990 C   0  0  0  0  0  0  0  0  0  0  0  0
  -32.1250   12.5460  -16.6420 O   0  0  0  0  0  0  0  0  0  0  0  0
  -34.2490   12.1340  -15.6980 C   0  0  0  0  0  0  0  0  0  0  0  0
  -34.8920   13.2690  -15.1150 O   0  0  0  0  0  0  0  0  0  0  0  0
  -34.6550   13.4160  -13.6800 N   0  0  0  0  0  0  0  0  0  0  0  0
  -35.1840   12.7050  -13.1730 H   0  0  0  0  0  0  0  0  0  0  0  0
  -33.6610   13.3020  -13.4860 H   0  0  0  0  0  0  0  0  0  0  0  0
  1 15  1  0  0  0  0
  1  2  1  0  0  0  0
  3  2  1  0  0  0  0
  5 12  1  6  0  0  0
  5  4  1  0  0  0  0
  6  7  1  6  0  0  0
  6  5  1  0  0  0  0
  7  9  1  0  0  0  0
  8  7  1  0  0  0  0
  9 12  1  0  0  0  0
 10  9  2  0  0  0  0
 11  3  1  6  0  0  0
 11  6  1  0  0  0  0
 11 14  1  0  0  0  0
 12 13  1  0  0  0  0
 14  4  1  0  0  0  0
 15 16  1  0  0  0  0
 16 17  1  0  0  0  0
 17 18  1  0  0  0  0
 17 20  1  0  0  0  0
 19 16  2  0  0  0  0
 20 22  1  0  0  0  0
 21 20  1  0  0  0  0
 22 23  2  0  0  0  0
 22 24  1  0  0  0  0
 24 25  1  0  0  0  0
 25 26  1  0  0  0  0
 26 28  1  0  0  0  0
 26 27  1  0  0  0  0
M  END
>  <MODEL>
1

>  <REMARK>
 VINA RESULT:      -7.2      0.000      0.000
  Name = ZINC05192440
                            x       y       z     vdW  Elec       q    Type
                         _______ _______ _______ _____ _____    ______ ____

>  <TORSDO>
F 9

>  <vina_score>
-7.2

$$$$
ZINC19752740
 OpenBabel01081721513D

 26 28  0  0  1  0  0  0  0  0999 V2000
  -31.9060   12.7440  -18.9170 N   0  0  0  0  0  0  0  0  0  0  0  0
  -30.5580   12.9090  -19.1720 C   0  0  0  0  0  0  0  0  0  0  0  0
  -29.8290   13.3120  -20.2820 C   0  0  0  0  0  0  0  0  0  0  0  0
  -28.4500   13.3860  -20.2150 C   0  0  0  0  0  0  0  0  0  0  0  0
  -27.7860   13.0630  -19.0300 C   0  0  0  0  0  0  0  0  0  0  0  0
  -26.4280   13.1400  -18.9510 O   0  0  0  0  0  0  0  0  0  0  0  0
  -25.7120   13.1840  -20.1910 C   0  0  0  0  0  0  0  0  0  0  0  0
  -26.4020   14.2030  -21.1080 C   0  0  0  0  0  0  0  0  0  0  0  0
  -28.5010   12.6650  -17.9180 C   0  0  0  0  0  0  0  0  0  0  0  0
  -27.7530   13.7760  -21.3180 O   0  0  0  0  0  0  0  0  0  0  0  0
  -29.8950   12.5860  -17.9760 C   0  0  0  0  0  0  0  0  0  0  0  0
  -30.8510   12.2390  -17.0750 N   0  0  0  0  0  0  0  0  0  0  0  0
  -32.0260   12.3310  -17.6250 C   0  0  0  0  0  0  0  0  0  0  0  0
  -33.0030   12.9640  -19.8630 C   0  0  1  0  0  0  0  0  0  0  0  0
  -32.7450   14.2280  -20.6440 C   0  0  0  0  0  0  0  0  0  0  0  0
  -32.5460   15.3870  -19.9960 O   0  0  0  0  0  0  0  0  0  0  0  0
  -32.7220   14.1980  -21.8510 O   0  0  0  0  0  0  0  0  0  0  0  0
  -34.1640   10.8030  -20.3360 C   0  0  0  0  0  0  0  0  0  0  0  0
  -33.0920   11.7790  -20.8260 C   0  0  0  0  0  0  0  0  0  0  0  0
  -33.3300   12.0250  -16.9340 C   0  0  0  0  0  0  0  0  0  0  0  0
  -33.5170   12.9820  -15.7530 C   0  0  0  0  0  0  0  0  0  0  0  0
  -34.6750   12.4930  -14.8810 C   0  0  0  0  0  0  0  0  0  0  0  0
  -34.7350   13.2960  -13.6520 N   0  0  0  0  0  0  0  0  0  0  0  0
  -34.3950   12.7420  -12.8670 H   0  0  0  0  0  0  0  0  0  0  0  0
  -34.1510   14.1260  -13.7600 H   0  0  0  0  0  0  0  0  0  0  0  0
  -35.6990   13.5790  -13.4770 H   0  0  0  0  0  0  0  0  0  0  0  0
  1 13  1  0  0  0  0
  2  1  1  0  0  0  0
  2 11  2  0  0  0  0
  3  4  2  0  0  0  0
  3  2  1  0  0  0  0
  4  5  1  0  0  0  0
  5  6  1  0  0  0  0
  5  9  2  0  0  0  0
  7  6  1  0  0  0  0
  8  7  1  0  0  0  0
 10  8  1  0  0  0  0
 10  4  1  0  0  0  0
 11  9  1  0  0  0  0
 11 12  1  0  0  0  0
 13 12  2  0  0  0  0
 13 20  1  0  0  0  0
 14 19  1  6  0  0  0
 14  1  1  0  0  0  0
 15 16  1  0  0  0  0
 15 14  1  0  0  0  0
 17 15  2  0  0  0  0
 19 18  1  0  0  0  0
 20 21  1  0  0  0  0
 21 22  1  0  0  0  0
 22 23  1  0  0  0  0
 23 26  1  0  0  0  0
 23 24  1  0  0  0  0
 25 23  1  0  0  0  0
M  END
>  <MODEL>
1

>  <REMARK>
 VINA RESULT:      -7.0      0.000      0.000
  Name = ZINC19752740
                            x       y       z     vdW  Elec       q    Type
                         _______ _______ _______ _____ _____    ______ ____

>  <TORSDO>
F 7

>  <vina_score>
-7.0

$$$$
ZINC17107909
 OpenBabel01081721523D

 23 25  0  0  1  0  0  0  0  0999 V2000
  -32.0570   11.8760  -18.4470 C   0  0  1  0  0  0  0  0  0  0  0  0
  -32.5950   11.4520  -19.8500 C   0  0  2  0  0  0  0  0  0  0  0  0
  -31.5260   11.7380  -20.8020 O   0  0  0  0  0  0  0  0  0  0  0  0
  -30.3310   11.5460  -20.0310 C   0  0  1  0  0  0  0  0  0  0  0  0
  -29.1240   12.2860  -20.3550 N   0  0  1  0  0  0  0  0  0  0  0  0
  -28.4960   12.6560  -21.6140 C   0  0  0  0  0  0  0  0  0  0  0  0
  -27.0550   12.8070  -21.3650 N   0  0  0  0  0  0  0  0  0  0  0  0
  -26.4320   12.7630  -22.1280 H   0  0  0  0  0  0  0  0  0  0  0  0
  -26.5720   12.9960  -20.1720 C   0  0  0  0  0  0  0  0  0  0  0  0
  -27.3150   13.0020  -19.0450 N   0  0  0  0  0  0  0  0  0  0  0  0
  -28.5800   12.6460  -19.1240 C   0  0  2  0  0  0  0  0  0  0  0  0
  -29.5060   12.5640  -18.1300 O   0  0  0  0  0  0  0  0  0  0  0  0
  -30.7370   12.4710  -18.8020 C   0  0  2  0  0  0  0  0  0  0  0  0
  -25.2130   13.2040  -20.0500 N   0  0  0  0  0  0  0  0  0  0  0  0
  -24.7740   13.0890  -19.1760 H   0  0  0  0  0  0  0  0  0  0  0  0
  -24.6820   13.4660  -20.8370 H   0  0  0  0  0  0  0  0  0  0  0  0
  -32.9250   12.8640  -17.8330 O   0  0  0  0  0  0  0  0  0  0  0  0
  -33.4770   11.1350  -16.1590 C   0  0  0  0  0  0  0  0  0  0  0  0
  -33.4220   12.5690  -16.6210 C   0  0  0  0  0  0  0  0  0  0  0  0
  -33.8250   13.4520  -15.9010 O   0  0  0  0  0  0  0  0  0  0  0  0
  -33.8430   12.2650  -20.2020 C   0  0  0  0  0  0  0  0  0  0  0  0
  -33.4640   13.4210  -20.9520 O   0  0  0  0  0  0  0  0  0  0  0  0
  -32.5640   13.6860  -20.7040 H   0  0  0  0  0  0  0  0  0  0  0  0
  1 17  1  6  0  0  0
  2 21  1  6  0  0  0
  2  1  1  0  0  0  0
  3  2  1  0  0  0  0
  4  3  1  6  0  0  0
  4 13  1  0  0  0  0
  5  6  1  6  0  0  0
  5  4  1  0  0  0  0
  5 11  1  0  0  0  0
  6  7  1  0  0  0  0
  7  9  1  0  0  0  0
  8  7  1  0  0  0  0
  9 14  1  0  0  0  0
  9 10  2  0  0  0  0
 11 10  1  1  0  0  0
 11 12  1  0  0  0  0
 13  1  1  0  0  0  0
 13 12  1  1  0  0  0
 14 15  1  0  0  0  0
 16 14  1  0  0  0  0
 17 19  1  0  0  0  0
 19 18  1  0  0  0  0
 19 20  2  0  0  0  0
 22 23  1  0  0  0  0
 22 21  1  0  0  0  0
M  END
>  <MODEL>
1

>  <REMARK>
 VINA RESULT:      -7.0      0.000      0.000
  Name = ZINC17107909
                            x       y       z     vdW  Elec       q    Type
                         _______ _______ _______ _____ _____    ______ ____

>  <TORSDO>
F 5

>  <vina_score>
-7.0

$$$$
ZINC01646936
 OpenBabel01081721583D

 26 27  0  0  1  0  0  0  0  0999 V2000
  -29.2480   11.8990  -22.1060 C   0  0  0  0  0  0  0  0  0  0  0  0
  -28.1730   12.5980  -22.3640 N   0  0  0  0  0  0  0  0  0  0  0  0
  -28.0270   13.5610  -21.4460 C   0  0  0  0  0  0  0  0  0  0  0  0
  -29.0920   13.4560  -20.5640 C   0  0  0  0  0  0  0  0  0  0  0  0
  -29.8540   12.3870  -21.0100 N   0  0  0  0  0  0  0  0  0  0  0  0
  -31.0880   11.8850  -20.4000 C   0  0  2  0  0  0  0  0  0  0  0  0
  -32.2960   12.4350  -21.1640 C   0  0  1  0  0  0  0  0  0  0  0  0
  -33.5810   11.9530  -20.4840 C   0  0  1  0  0  0  0  0  0  0  0  0
  -33.5680   12.3990  -19.0190 C   0  0  1  0  0  0  0  0  0  0  0  0
  -32.3100   11.8500  -18.3380 C   0  0  0  0  0  0  0  0  0  0  0  0
  -31.1530   12.3100  -19.0380 O   0  0  0  0  0  0  0  0  0  0  0  0
  -32.2570   13.8620  -21.1560 O   0  0  0  0  0  0  0  0  0  0  0  0
  -32.0120   14.1730  -20.2700 H   0  0  0  0  0  0  0  0  0  0  0  0
  -34.7130   12.5210  -21.1460 O   0  0  0  0  0  0  0  0  0  0  0  0
  -35.2420   13.0250  -20.5080 H   0  0  0  0  0  0  0  0  0  0  0  0
  -33.5620   13.8260  -18.9530 O   0  0  0  0  0  0  0  0  0  0  0  0
  -33.7430   14.1090  -18.0440 H   0  0  0  0  0  0  0  0  0  0  0  0
  -29.3560   14.3020  -19.4020 C   0  0  0  0  0  0  0  0  0  0  0  0
  -30.4670   15.0630  -19.3600 N   0  0  0  0  0  0  0  0  0  0  0  0
  -30.6450   15.6320  -18.5770 H   0  0  0  0  0  0  0  0  0  0  0  0
  -31.1000   15.0500  -20.1140 H   0  0  0  0  0  0  0  0  0  0  0  0
  -28.5720   14.3180  -18.4700 O   0  0  0  0  0  0  0  0  0  0  0  0
  -27.0000   14.4990  -21.3910 N   0  0  0  0  0  0  0  0  0  0  0  0
  -27.1210   15.3860  -21.8000 H   0  0  0  0  0  0  0  0  0  0  0  0
  -25.8380   14.1900  -20.7810 C   0  0  0  0  0  0  0  0  0  0  0  0
  -25.6870   13.0950  -20.2830 O   0  0  0  0  0  0  0  0  0  0  0  0
  1  5  1  0  0  0  0
  2  1  2  0  0  0  0
  2  3  1  0  0  0  0
  3 23  1  0  0  0  0
  3  4  2  0  0  0  0
  4 18  1  0  0  0  0
  5  4  1  0  0  0  0
  6  5  1  6  0  0  0
  6 11  1  0  0  0  0
  7 12  1  1  0  0  0
  7  8  1  0  0  0  0
  7  6  1  0  0  0  0
  8 14  1  6  0  0  0
  8  9  1  0  0  0  0
  9 16  1  6  0  0  0
  9 10  1  0  0  0  0
 11 10  1  0  0  0  0
 12 13  1  0  0  0  0
 14 15  1  0  0  0  0
 16 17  1  0  0  0  0
 18 19  1  0  0  0  0
 18 22  2  0  0  0  0
 19 20  1  0  0  0  0
 21 19  1  0  0  0  0
 23 25  1  0  0  0  0
 24 23  1  0  0  0  0
 25 26  2  0  0  0  0
M  END
>  <MODEL>
1

>  <REMARK>
 VINA RESULT:      -7.0      0.000      0.000
  Name = ZINC01646936
                            x       y       z     vdW  Elec       q    Type
                         _______ _______ _______ _____ _____    ______ ____

>  <TORSDO>
F 6

>  <vina_score>
-7.0

$$$$
ZINC22047827
 OpenBabel01081721363D

 29 30  0  0  1  0  0  0  0  0999 V2000
  -31.1780   12.3300  -21.2940 N   0  0  0  0  0  0  0  0  0  0  0  0
  -32.3180   12.7690  -20.9130 C   0  0  0  0  0  0  0  0  0  0  0  0
  -30.1660   13.2300  -21.6570 N   0  0  0  0  0  0  0  0  0  0  0  0
  -30.3380   13.9100  -22.3470 H   0  0  0  0  0  0  0  0  0  0  0  0
  -28.2560   14.5760  -17.1660 C   0  0  0  0  0  0  0  0  0  0  0  0
  -29.5290   14.6760  -17.7240 C   0  0  0  0  0  0  0  0  0  0  0  0
  -29.7800   14.2280  -18.9880 C   0  0  0  0  0  0  0  0  0  0  0  0
  -28.7450   13.6520  -19.7310 C   0  0  0  0  0  0  0  0  0  0  0  0
  -27.4490   13.5490  -19.1640 C   0  0  0  0  0  0  0  0  0  0  0  0
  -26.4340   12.9680  -19.9460 C   0  0  0  0  0  0  0  0  0  0  0  0
  -26.7230   12.5470  -21.1560 N   0  0  0  0  0  0  0  0  0  0  0  0
  -27.8910   12.6350  -21.6750 N   0  0  0  0  0  0  0  0  0  0  0  0
  -28.9260   13.1610  -21.0440 C   0  0  0  0  0  0  0  0  0  0  0  0
  -27.2240   14.0240  -17.8640 C   0  0  0  0  0  0  0  0  0  0  0  0
  -33.3650   11.8100  -20.4080 C   0  0  2  0  0  0  0  0  0  0  0  0
  -34.6610   12.3860  -20.5810 O   0  0  0  0  0  0  0  0  0  0  0  0
  -34.7190   13.2110  -20.0730 H   0  0  0  0  0  0  0  0  0  0  0  0
  -33.1260   11.5280  -18.9240 C   0  0  1  0  0  0  0  0  0  0  0  0
  -31.9040   10.8030  -18.7680 O   0  0  0  0  0  0  0  0  0  0  0  0
  -31.3760   11.2060  -18.0600 H   0  0  0  0  0  0  0  0  0  0  0  0
  -33.0350   12.8500  -18.1600 C   0  0  1  0  0  0  0  0  0  0  0  0
  -34.3350   13.4360  -18.0670 O   0  0  0  0  0  0  0  0  0  0  0  0
  -34.9980   12.8040  -18.3870 H   0  0  0  0  0  0  0  0  0  0  0  0
  -32.4900   12.5910  -16.7540 C   0  0  0  0  0  0  0  0  0  0  0  0
  -33.2090   13.3890  -15.8110 O   0  0  0  0  0  0  0  0  0  0  0  0
  -34.1160   13.5240  -16.1270 H   0  0  0  0  0  0  0  0  0  0  0  0
  -32.6140   14.2470  -20.9690 C   0  0  0  0  0  0  0  0  0  0  0  0
  -33.1590   14.5750  -22.2490 O   0  0  0  0  0  0  0  0  0  0  0  0
  -33.6390   15.4150  -22.1900 H   0  0  0  0  0  0  0  0  0  0  0  0
  1  2  2  0  0  0  0
  3  1  1  0  0  0  0
  3 13  1  0  0  0  0
  4  3  1  0  0  0  0
  6  5  1  0  0  0  0
  7  6  2  0  0  0  0
  8  9  1  0  0  0  0
  8  7  1  0  0  0  0
  9 14  1  0  0  0  0
 10  9  2  0  0  0  0
 11 10  1  0  0  0  0
 12 11  2  0  0  0  0
 12 13  1  0  0  0  0
 13  8  2  0  0  0  0
 14  5  2  0  0  0  0
 15  2  1  1  0  0  0
 15 18  1  0  0  0  0
 16 15  1  0  0  0  0
 16 17  1  0  0  0  0
 18 19  1  6  0  0  0
 18 21  1  0  0  0  0
 19 20  1  0  0  0  0
 21 22  1  1  0  0  0
 21 24  1  0  0  0  0
 23 22  1  0  0  0  0
 24 25  1  0  0  0  0
 26 25  1  0  0  0  0
 27  2  1  0  0  0  0
 28 29  1  0  0  0  0
 28 27  1  0  0  0  0
M  END
>  <MODEL>
1

>  <REMARK>
 VINA RESULT:      -7.0      0.000      0.000
  Name = ZINC22047827
                            x       y       z     vdW  Elec       q    Type
                         _______ _______ _______ _____ _____    ______ ____

>  <TORSDO>
F 12

>  <vina_score>
-7.0

$$$$
ZINC16321740
 OpenBabel01081721363D

 24 25  0  0  1  0  0  0  0  0999 V2000
  -32.7630   10.8030  -19.7910 C   0  0  1  0  0  0  0  0  0  0  0  0
  -33.0980   11.9960  -20.7080 C   0  0  2  0  0  0  0  0  0  0  0  0
  -31.7520   12.7450  -20.8630 C   0  0  1  0  0  0  0  0  0  0  0  0
  -30.7240   11.6450  -20.4960 C   0  0  2  0  0  0  0  0  0  0  0  0
  -31.3750   10.9160  -19.4340 O   0  0  0  0  0  0  0  0  0  0  0  0
  -29.4730   12.2400  -20.0210 N   0  0  0  0  0  0  0  0  0  0  0  0
  -29.2120   12.6180  -18.7570 C   0  0  0  0  0  0  0  0  0  0  0  0
  -27.9960   13.1020  -18.7300 N   0  0  0  0  0  0  0  0  0  0  0  0
  -27.5060   13.0210  -19.9810 C   0  0  0  0  0  0  0  0  0  0  0  0
  -28.4340   12.4850  -20.7430 N   0  0  0  0  0  0  0  0  0  0  0  0
  -26.1630   13.4540  -20.4180 C   0  0  0  0  0  0  0  0  0  0  0  0
  -25.9570   14.7280  -20.8050 N   0  0  0  0  0  0  0  0  0  0  0  0
  -25.0630   15.0170  -21.0970 H   0  0  0  0  0  0  0  0  0  0  0  0
  -26.7030   15.3710  -20.7980 H   0  0  0  0  0  0  0  0  0  0  0  0
  -25.2410   12.6600  -20.4280 O   0  0  0  0  0  0  0  0  0  0  0  0
  -34.0750   12.8390  -20.0940 O   0  0  0  0  0  0  0  0  0  0  0  0
  -34.0060   12.7640  -19.1300 H   0  0  0  0  0  0  0  0  0  0  0  0
  -31.5660   13.1880  -22.2090 O   0  0  0  0  0  0  0  0  0  0  0  0
  -31.4220   12.4210  -22.7840 H   0  0  0  0  0  0  0  0  0  0  0  0
  -33.6300   10.8510  -18.5320 C   0  0  0  0  0  0  0  0  0  0  0  0
  -32.8170   11.2590  -17.4000 O   0  0  0  0  0  0  0  0  0  0  0  0
  -33.8990   12.6990  -15.7110 C   0  0  0  0  0  0  0  0  0  0  0  0
  -33.0200   12.4950  -16.9180 C   0  0  0  0  0  0  0  0  0  0  0  0
  -32.4970   13.4450  -17.4510 O   0  0  0  0  0  0  0  0  0  0  0  0
  1  5  1  0  0  0  0
  1 20  1  1  0  0  0
  2 16  1  1  0  0  0
  2  1  1  0  0  0  0
  3 18  1  6  0  0  0
  3  2  1  0  0  0  0
  3  4  1  0  0  0  0
  4  6  1  1  0  0  0
  4  5  1  0  0  0  0
  6  7  1  0  0  0  0
  7  8  2  0  0  0  0
  9  8  1  0  0  0  0
 10  6  1  0  0  0  0
 10  9  2  0  0  0  0
 11  9  1  0  0  0  0
 12 14  1  0  0  0  0
 12 11  1  0  0  0  0
 13 12  1  0  0  0  0
 15 11  2  0  0  0  0
 16 17  1  0  0  0  0
 19 18  1  0  0  0  0
 20 21  1  0  0  0  0
 21 23  1  0  0  0  0
 23 22  1  0  0  0  0
 24 23  2  0  0  0  0
M  END
>  <MODEL>
1

>  <REMARK>
 VINA RESULT:      -6.9      0.000      0.000
  Name = ZINC16321740
                            x       y       z     vdW  Elec       q    Type
                         _______ _______ _______ _____ _____    ______ ____

>  <TORSDO>
F 7

>  <vina_score>
-6.9

$$$$
ZINC31392821
 OpenBabel01081721573D

 33 35  0  0  1  0  0  0  0  0999 V2000
  -33.4770   13.0880  -19.4120 C   0  0  2  0  0  0  0  0  0  0  0  0
  -33.6030   11.9590  -20.4530 C   0  0  2  0  0  0  0  0  0  0  0  0
  -32.1680   11.7920  -21.0090 C   0  0  2  0  0  0  0  0  0  0  0  0
  -31.5210   13.1540  -20.6520 C   0  0  1  0  0  0  0  0  0  0  0  0
  -32.0920   13.4710  -19.3640 O   0  0  0  0  0  0  0  0  0  0  0  0
  -30.0650   13.0250  -20.5530 N   0  0  0  0  0  0  0  0  0  0  0  0
  -29.2340   12.5100  -21.5030 C   0  0  0  0  0  0  0  0  0  0  0  0
  -28.0040   12.5460  -21.0850 N   0  0  0  0  0  0  0  0  0  0  0  0
  -27.9650   13.0860  -19.8420 C   0  0  0  0  0  0  0  0  0  0  0  0
  -26.9450   13.3670  -18.9180 C   0  0  0  0  0  0  0  0  0  0  0  0
  -27.2780   13.9160  -17.7550 N   0  0  0  0  0  0  0  0  0  0  0  0
  -28.5360   14.1930  -17.4640 C   0  0  0  0  0  0  0  0  0  0  0  0
  -29.5250   13.9460  -18.2990 N   0  0  0  0  0  0  0  0  0  0  0  0
  -29.2880   13.3980  -19.4860 C   0  0  0  0  0  0  0  0  0  0  0  0
  -25.6240   13.0810  -19.2130 N   0  0  0  0  0  0  0  0  0  0  0  0
  -25.3750   12.7760  -20.1170 H   0  0  0  0  0  0  0  0  0  0  0  0
  -24.9320   13.1800  -18.5210 H   0  0  0  0  0  0  0  0  0  0  0  0
  -34.5030   12.3370  -21.4960 O   0  0  0  0  0  0  0  0  0  0  0  0
  -34.4470   13.2960  -21.6400 H   0  0  0  0  0  0  0  0  0  0  0  0
  -32.1890   11.5930  -22.4240 O   0  0  0  0  0  0  0  0  0  0  0  0
  -32.1140   12.4490  -22.8720 H   0  0  0  0  0  0  0  0  0  0  0  0
  -33.9260   12.5840  -18.0390 C   0  0  0  0  0  0  0  0  0  0  0  0
  -32.2010   11.1980  -17.0550 C   0  0  0  0  0  0  0  0  0  0  0  0
  -32.7730   12.5490  -17.1290 N   0  0  0  0  0  0  0  0  0  0  0  0
  -32.0580   13.1720  -17.5070 H   0  0  0  0  0  0  0  0  0  0  0  0
  -33.1420   13.0400  -15.7950 C   0  0  0  0  0  0  0  0  0  0  0  0
  -34.3240   12.2300  -15.2620 C   0  0  0  0  0  0  0  0  0  0  0  0
  -34.8210   12.8500  -13.9550 C   0  0  0  0  0  0  0  0  0  0  0  0
  -35.9570   12.0710  -13.4420 N   0  0  0  0  0  0  0  0  0  0  0  0
  -36.8130   12.6120  -13.5630 H   0  0  0  0  0  0  0  0  0  0  0  0
  -36.0870   10.8100  -14.1530 N   0  0  0  0  0  0  0  0  0  0  0  0
  -35.4880   10.1090  -13.7160 H   0  0  0  0  0  0  0  0  0  0  0  0
  -37.0580   10.4980  -14.1170 H   0  0  0  0  0  0  0  0  0  0  0  0
  1  5  1  0  0  0  0
  1 22  1  1  0  0  0
  2 18  1  6  0  0  0
  2  1  1  0  0  0  0
  3 20  1  6  0  0  0
  3  4  1  0  0  0  0
  3  2  1  0  0  0  0
  4  6  1  1  0  0  0
  4  5  1  0  0  0  0
  6 14  1  0  0  0  0
  7  8  2  0  0  0  0
  7  6  1  0  0  0  0
  8  9  1  0  0  0  0
  9 14  2  0  0  0  0
  9 10  1  0  0  0  0
 10 11  2  0  0  0  0
 11 12  1  0  0  0  0
 13 12  2  0  0  0  0
 14 13  1  0  0  0  0
 15 10  1  0  0  0  0
 15 17  1  0  0  0  0
 16 15  1  0  0  0  0
 19 18  1  0  0  0  0
 21 20  1  0  0  0  0
 22 24  1  0  0  0  0
 24 23  1  0  0  0  0
 24 26  1  0  0  0  0
 25 24  1  0  0  0  0
 26 27  1  0  0  0  0
 27 28  1  0  0  0  0
 28 29  1  0  0  0  0
 30 29  1  0  0  0  0
 31 33  1  0  0  0  0
 31 32  1  0  0  0  0
 31 29  1  0  0  0  0
M  END
>  <MODEL>
1

>  <REMARK>
 VINA RESULT:      -6.8      0.000      0.000
  Name = ZINC31392821
                            x       y       z     vdW  Elec       q    Type
                         _______ _______ _______ _____ _____    ______ ____

>  <TORSDO>
F 11

>  <vina_score>
-6.8

$$$$
ZINC06315906
 OpenBabel01081721563D

 28 30  0  0  0  0  0  0  0  0999 V2000
  -31.5010   12.1090  -19.1690 C   0  0  0  0  0  0  0  0  0  0  0  0
  -31.9150   12.0360  -17.8410 C   0  0  0  0  0  0  0  0  0  0  0  0
  -33.1760   11.5390  -17.7380 N   0  0  0  0  0  0  0  0  0  0  0  0
  -33.6610   11.2430  -19.0930 C   0  0  0  0  0  0  0  0  0  0  0  0
  -32.5240   11.6390  -20.0110 C   0  0  0  0  0  0  0  0  0  0  0  0
  -32.4990   11.5640  -21.2250 O   0  0  0  0  0  0  0  0  0  0  0  0
  -26.4600   14.4390  -21.4490 C   0  0  0  0  0  0  0  0  0  0  0  0
  -25.8700   13.6880  -20.4430 C   0  0  0  0  0  0  0  0  0  0  0  0
  -26.6430   12.9290  -19.5930 C   0  0  0  0  0  0  0  0  0  0  0  0
  -28.0320   12.9140  -19.7450 C   0  0  0  0  0  0  0  0  0  0  0  0
  -28.6250   13.6770  -20.7660 C   0  0  0  0  0  0  0  0  0  0  0  0
  -29.9880   13.4600  -20.6710 N   0  0  0  0  0  0  0  0  0  0  0  0
  -30.6830   13.8480  -21.2490 H   0  0  0  0  0  0  0  0  0  0  0  0
  -30.1890   12.6020  -19.6210 C   0  0  0  0  0  0  0  0  0  0  0  0
  -29.0340   12.2830  -19.0830 N   0  0  0  0  0  0  0  0  0  0  0  0
  -27.8290   14.4360  -21.6120 C   0  0  0  0  0  0  0  0  0  0  0  0
  -33.8860   11.3380  -16.5470 N   0  0  0  0  0  0  0  0  0  0  0  0
  -34.1230   10.4250  -16.2640 H   0  0  0  0  0  0  0  0  0  0  0  0
  -34.2470   12.3930  -15.7910 C   0  0  0  0  0  0  0  0  0  0  0  0
  -33.9550   13.5180  -16.1410 O   0  0  0  0  0  0  0  0  0  0  0  0
  -35.0040   12.1790  -14.5210 C   0  0  0  0  0  0  0  0  0  0  0  0
  -34.9570   13.1060  -13.5430 N   0  0  0  0  0  0  0  0  0  0  0  0
  -35.4560   12.9640  -12.7070 H   0  0  0  0  0  0  0  0  0  0  0  0
  -34.4230   13.9240  -13.6660 H   0  0  0  0  0  0  0  0  0  0  0  0
  -35.6620   11.1710  -14.3700 O   0  0  0  0  0  0  0  0  0  0  0  0
  -31.1530   12.4180  -16.7780 N   0  0  0  0  0  0  0  0  0  0  0  0
  -31.1100   13.3650  -16.5170 H   0  0  0  0  0  0  0  0  0  0  0  0
  -30.6440   11.7440  -16.2710 H   0  0  0  0  0  0  0  0  0  0  0  0
  1  2  2  0  0  0  0
  2  3  1  0  0  0  0
  2 26  1  0  0  0  0
  3 17  1  0  0  0  0
  4  3  1  0  0  0  0
  5  1  1  0  0  0  0
  5  4  1  0  0  0  0
  6  5  2  0  0  0  0
  7  8  1  0  0  0  0
  8  9  2  0  0  0  0
 10  9  1  0  0  0  0
 10 15  1  0  0  0  0
 11 12  1  0  0  0  0
 11 10  2  0  0  0  0
 12 14  1  0  0  0  0
 13 12  1  0  0  0  0
 14  1  1  0  0  0  0
 14 15  2  0  0  0  0
 16  7  2  0  0  0  0
 16 11  1  0  0  0  0
 17 18  1  0  0  0  0
 17 19  1  0  0  0  0
 19 21  1  0  0  0  0
 20 19  2  0  0  0  0
 21 25  2  0  0  0  0
 21 22  1  0  0  0  0
 22 23  1  0  0  0  0
 24 22  1  0  0  0  0
 26 27  1  0  0  0  0
 26 28  1  0  0  0  0
M  END
>  <MODEL>
1

>  <REMARK>
 VINA RESULT:      -6.8      0.000      0.000
  Name = ZINC06315906
                            x       y       z     vdW  Elec       q    Type
                         _______ _______ _______ _____ _____    ______ ____

>  <TORSDO>
F 4

>  <vina_score>
-6.8

$$$$
ZINC20190413
 OpenBabel01081721593D

 23 24  0  0  0  0  0  0  0  0999 V2000
  -30.5590   13.5320  -20.5070 C   0  0  0  0  0  0  0  0  0  0  0  0
  -29.3110   12.9870  -20.2740 C   0  0  0  0  0  0  0  0  0  0  0  0
  -28.3870   13.6770  -19.5120 C   0  0  0  0  0  0  0  0  0  0  0  0
  -28.7120   14.9130  -18.9820 C   0  0  0  0  0  0  0  0  0  0  0  0
  -29.9600   15.4580  -19.2130 C   0  0  0  0  0  0  0  0  0  0  0  0
  -30.8860   14.7680  -19.9770 C   0  0  0  0  0  0  0  0  0  0  0  0
  -32.1070   15.3010  -20.2050 F   0  0  0  0  0  0  0  0  0  0  0  0
  -31.7340   12.6550  -21.4860 S   0  0  0  0  0  0  0  0  0  0  0  0
  -30.9930   11.9420  -22.4670 O   0  0  0  0  0  0  0  0  0  0  0  0
  -32.7530   13.5830  -21.8260 O   0  0  0  0  0  0  0  0  0  0  0  0
  -32.4370   11.5190  -20.5050 N   0  0  0  0  0  0  0  0  0  0  0  0
  -32.9510   12.2920  -16.5510 C   0  0  0  0  0  0  0  0  0  0  0  0
  -33.7200   12.9390  -17.5060 C   0  0  0  0  0  0  0  0  0  0  0  0
  -33.5280   12.6650  -18.7850 N   0  0  0  0  0  0  0  0  0  0  0  0
  -32.6120   11.7820  -19.1580 C   0  0  0  0  0  0  0  0  0  0  0  0
  -31.8640   11.1420  -18.2710 N   0  0  0  0  0  0  0  0  0  0  0  0
  -32.0020   11.3750  -16.9760 C   0  0  0  0  0  0  0  0  0  0  0  0
  -27.0250   13.0840  -19.2590 C   0  0  0  0  0  0  0  0  0  0  0  0
  -26.1570   13.2480  -20.5090 C   0  0  0  0  0  0  0  0  0  0  0  0
  -25.8940   14.6740  -20.7380 N   0  0  0  0  0  0  0  0  0  0  0  0
  -24.9940   14.7840  -21.2050 H   0  0  0  0  0  0  0  0  0  0  0  0
  -26.6310   15.0670  -21.3240 H   0  0  0  0  0  0  0  0  0  0  0  0
  -25.8740   15.1650  -19.8420 H   0  0  0  0  0  0  0  0  0  0  0  0
  1  2  2  0  0  0  0
  1  6  1  0  0  0  0
  2  3  1  0  0  0  0
  3 18  1  0  0  0  0
  3  4  2  0  0  0  0
  5  4  1  0  0  0  0
  6  5  2  0  0  0  0
  7  6  1  0  0  0  0
  8  1  1  0  0  0  0
  8 11  1  0  0  0  0
  9  8  2  0  0  0  0
 10  8  2  0  0  0  0
 11 15  1  0  0  0  0
 13 12  2  0  0  0  0
 14 13  1  0  0  0  0
 15 14  2  0  0  0  0
 15 16  1  0  0  0  0
 16 17  2  0  0  0  0
 17 12  1  0  0  0  0
 19 18  1  0  0  0  0
 20 19  1  0  0  0  0
 20 23  1  0  0  0  0
 21 20  1  0  0  0  0
 22 20  1  0  0  0  0
M  END
>  <MODEL>
1

>  <REMARK>
 VINA RESULT:      -6.8      0.000      0.000
  Name = ZINC20190413
                            x       y       z     vdW  Elec       q    Type
                         _______ _______ _______ _____ _____    ______ ____

>  <TORSDO>
F 6

>  <vina_score>
-6.8

$$$$
ZINC13354670
 OpenBabel01081721393D

 27 28  0  0  1  0  0  0  0  0999 V2000
  -30.5540   11.5230  -21.8410 C   0  0  0  0  0  0  0  0  0  0  0  0
  -31.1190   10.8030  -20.8510 N   0  0  0  0  0  0  0  0  0  0  0  0
  -30.5530   10.2720  -20.2440 H   0  0  0  0  0  0  0  0  0  0  0  0
  -31.2520   12.1770  -22.5880 O   0  0  0  0  0  0  0  0  0  0  0  0
  -29.0580   11.5170  -22.0190 C   0  0  0  0  0  0  0  0  0  0  0  0
  -28.8830   13.1920  -17.6450 C   0  0  0  0  0  0  0  0  0  0  0  0
  -28.2280   14.4130  -17.5590 C   0  0  0  0  0  0  0  0  0  0  0  0
  -27.7090   15.0120  -18.6860 C   0  0  0  0  0  0  0  0  0  0  0  0
  -27.8400   14.3900  -19.9230 C   0  0  0  0  0  0  0  0  0  0  0  0
  -28.5050   13.1520  -20.0040 C   0  0  0  0  0  0  0  0  0  0  0  0
  -28.4750   12.7690  -21.4170 C   0  0  0  0  0  0  0  0  0  0  0  0
  -27.8240   13.7420  -22.0750 C   0  0  0  0  0  0  0  0  0  0  0  0
  -27.4430   14.7210  -21.1990 N   0  0  0  0  0  0  0  0  0  0  0  0
  -26.9560   15.5420  -21.4430 H   0  0  0  0  0  0  0  0  0  0  0  0
  -29.0240   12.5620  -18.8490 C   0  0  0  0  0  0  0  0  0  0  0  0
  -32.5730   10.8090  -20.6790 C   0  0  0  0  0  0  0  0  0  0  0  0
  -32.9260   11.4630  -19.3410 C   0  0  0  0  0  0  0  0  0  0  0  0
  -33.4370   12.8830  -19.5850 C   0  0  0  0  0  0  0  0  0  0  0  0
  -32.3550   13.8900  -19.1890 C   0  0  0  0  0  0  0  0  0  0  0  0
  -31.8340   14.5980  -20.4420 C   0  0  1  0  0  0  0  0  0  0  0  0
  -32.7830   14.4330  -21.5580 N   0  0  0  0  0  0  0  0  0  0  0  0
  -33.2260   15.3290  -21.7610 H   0  0  0  0  0  0  0  0  0  0  0  0
  -32.2830   14.1060  -22.3840 H   0  0  0  0  0  0  0  0  0  0  0  0
  -33.4970   13.7520  -21.2990 H   0  0  0  0  0  0  0  0  0  0  0  0
  -31.6660   16.0680  -20.1560 C   0  0  0  0  0  0  0  0  0  0  0  0
  -30.4360   16.5960  -20.0570 O   0  0  0  0  0  0  0  0  0  0  0  0
  -32.6380   16.7700  -20.0090 O   0  0  0  0  0  0  0  0  0  0  0  0
  1  2  1  0  0  0  0
  2 16  1  0  0  0  0
  2  3  1  0  0  0  0
  4  1  2  0  0  0  0
  5  1  1  0  0  0  0
  5 11  1  0  0  0  0
  6  7  1  0  0  0  0
  8  7  2  0  0  0  0
  9  8  1  0  0  0  0
 10  9  2  0  0  0  0
 10 15  1  0  0  0  0
 11 10  1  0  0  0  0
 12 11  2  0  0  0  0
 12 13  1  0  0  0  0
 13  9  1  0  0  0  0
 14 13  1  0  0  0  0
 15  6  2  0  0  0  0
 16 17  1  0  0  0  0
 18 17  1  0  0  0  0
 18 19  1  0  0  0  0
 20 21  1  6  0  0  0
 20 25  1  0  0  0  0
 20 19  1  0  0  0  0
 21 24  1  0  0  0  0
 22 21  1  0  0  0  0
 23 21  1  0  0  0  0
 25 26  2  0  0  0  0
 25 27  1  0  0  0  0
M  END
>  <MODEL>
1

>  <REMARK>
 VINA RESULT:      -6.8      0.000      0.000
  Name = ZINC13354670
                            x       y       z     vdW  Elec       q    Type
                         _______ _______ _______ _____ _____    ______ ____

>  <TORSDO>
F 9

>  <vina_score>
-6.8

$$$$
ZINC05425837
 OpenBabel01081721463D

 23 24  0  0  0  0  0  0  0  0999 V2000
  -31.6770   14.4150  -19.6940 N   0  0  0  0  0  0  0  0  0  0  0  0
  -31.7880   13.1850  -19.2780 C   0  0  0  0  0  0  0  0  0  0  0  0
  -31.0290   12.0550  -19.8790 C   0  0  0  0  0  0  0  0  0  0  0  0
  -30.8640   10.9360  -19.1240 C   0  0  0  0  0  0  0  0  0  0  0  0
  -31.3630   10.8030  -17.8990 N   0  0  0  0  0  0  0  0  0  0  0  0
  -32.2140   11.6280  -17.3540 C   0  0  0  0  0  0  0  0  0  0  0  0
  -32.6940   12.7820  -18.1470 C   0  0  0  0  0  0  0  0  0  0  0  0
  -33.8150   13.4000  -17.8860 N   0  0  0  0  0  0  0  0  0  0  0  0
  -34.0960   14.1630  -18.4400 H   0  0  0  0  0  0  0  0  0  0  0  0
  -30.4400   14.8620  -20.3380 C   0  0  0  0  0  0  0  0  0  0  0  0
  -29.5430   15.5430  -19.3030 C   0  0  0  0  0  0  0  0  0  0  0  0
  -26.2370   12.9390  -20.0600 C   0  0  0  0  0  0  0  0  0  0  0  0
  -26.6370   13.2480  -18.6150 C   0  0  0  0  0  0  0  0  0  0  0  0
  -28.0830   13.7480  -18.5870 C   0  0  0  0  0  0  0  0  0  0  0  0
  -28.1820   14.9770  -19.4050 N   0  0  0  0  0  0  0  0  0  0  0  0
  -27.5110   15.6600  -19.0570 H   0  0  0  0  0  0  0  0  0  0  0  0
  -27.8670   14.6720  -20.8180 C   0  0  0  0  0  0  0  0  0  0  0  0
  -26.4140   14.2000  -20.9120 C   0  0  0  0  0  0  0  0  0  0  0  0
  -30.5080   12.1400  -21.1640 N   0  0  0  0  0  0  0  0  0  0  0  0
  -31.2920   12.6800  -22.2120 O   0  0  0  0  0  0  0  0  0  0  0  0
  -32.0040   13.2220  -21.8370 H   0  0  0  0  0  0  0  0  0  0  0  0
  -29.1930   11.6850  -21.4270 O   0  0  0  0  0  0  0  0  0  0  0  0
  -28.6380   11.8320  -20.6450 H   0  0  0  0  0  0  0  0  0  0  0  0
  1  2  1  0  0  0  0
  2  7  1  0  0  0  0
  3  2  2  0  0  0  0
  3  4  1  0  0  0  0
  4  5  2  0  0  0  0
  5  6  1  0  0  0  0
  7  8  1  0  0  0  0
  7  6  2  0  0  0  0
  9  8  1  0  0  0  0
 10  1  1  0  0  0  0
 10 11  1  0  0  0  0
 12 13  1  0  0  0  0
 13 14  1  0  0  0  0
 15 11  1  0  0  0  0
 15 16  1  0  0  0  0
 15 14  1  0  0  0  0
 17 15  1  0  0  0  0
 18 17  1  0  0  0  0
 18 12  1  0  0  0  0
 19  3  1  0  0  0  0
 20 21  1  0  0  0  0
 20 19  1  0  0  0  0
 22 19  1  0  0  0  0
 22 23  1  0  0  0  0
M  END
>  <MODEL>
1

>  <REMARK>
 VINA RESULT:      -6.7      0.000      0.000
  Name = ZINC05425837
                            x       y       z     vdW  Elec       q    Type
                         _______ _______ _______ _____ _____    ______ ____

>  <TORSDO>
F 6

>  <vina_score>
-6.7

$$$$
ZINC06996143
 OpenBabel01081721493D

 21 22  0  0  1  0  0  0  0  0999 V2000
  -30.3860   13.5970  -19.7770 C   0  0  0  0  0  0  0  0  0  0  0  0
  -30.2820   12.8090  -20.8040 N   0  0  0  0  0  0  0  0  0  0  0  0
  -34.2420   12.5300  -15.7220 C   0  0  0  0  0  0  0  0  0  0  0  0
  -33.2220   12.8110  -16.7950 C   0  0  0  0  0  0  0  0  0  0  0  0
  -33.6450   13.2300  -18.0030 N   0  0  0  0  0  0  0  0  0  0  0  0
  -32.7500   13.5010  -18.9960 C   0  0  0  0  0  0  0  0  0  0  0  0
  -31.3930   13.3250  -18.7400 C   0  0  2  0  0  0  0  0  0  0  0  0
  -31.0090   12.8810  -17.4450 C   0  0  0  0  0  0  0  0  0  0  0  0
  -29.8290   12.7170  -17.1730 O   0  0  0  0  0  0  0  0  0  0  0  0
  -31.9580   12.6430  -16.5220 N   0  0  0  0  0  0  0  0  0  0  0  0
  -33.1720   13.9270  -20.2060 O   0  0  0  0  0  0  0  0  0  0  0  0
  -33.7070   13.3710  -20.7380 H   0  0  0  0  0  0  0  0  0  0  0  0
  -29.3220   13.0690  -21.7910 N   0  0  0  0  0  0  0  0  0  0  0  0
  -29.5700   13.0260  -22.7430 H   0  0  0  0  0  0  0  0  0  0  0  0
  -28.0330   13.3850  -21.4300 C   0  0  2  0  0  0  0  0  0  0  0  0
  -27.1920   12.5010  -20.9910 N   0  0  0  0  0  0  0  0  0  0  0  0
  -27.3850   11.5420  -20.8790 H   0  0  0  0  0  0  0  0  0  0  0  0
  -25.9010   13.1490  -20.6880 C   0  0  0  0  0  0  0  0  0  0  0  0
  -26.1340   14.6300  -21.0400 C   0  0  0  0  0  0  0  0  0  0  0  0
  -27.5320   14.6560  -21.5010 N   0  0  0  0  0  0  0  0  0  0  0  0
  -28.0230   15.4530  -21.8080 H   0  0  0  0  0  0  0  0  0  0  0  0
  2  1  2  0  0  0  0
  4 10  2  0  0  0  0
  4  3  1  0  0  0  0
  5  4  1  0  0  0  0
  6  7  1  0  0  0  0
  6  5  2  0  0  0  0
  7  1  1  1  0  0  0
  7  8  1  0  0  0  0
  8  9  2  0  0  0  0
  8 10  1  0  0  0  0
 11  6  1  0  0  0  0
 12 11  1  0  0  0  0
 13  2  1  0  0  0  0
 14 13  1  0  0  0  0
 15 13  1  1  0  0  0
 15 16  1  0  0  0  0
 16 17  1  0  0  0  0
 16 18  1  0  0  0  0
 19 18  2  0  0  0  0
 20 15  1  0  0  0  0
 20 19  1  0  0  0  0
 21 20  1  0  0  0  0
M  END
>  <MODEL>
1

>  <REMARK>
 VINA RESULT:      -6.7      0.000      0.000
  Name = ZINC06996143
                            x       y       z     vdW  Elec       q    Type
                         _______ _______ _______ _____ _____    ______ ____

>  <TORSDO>
F 4

>  <vina_score>
-6.7

$$$$
ZINC29574719
 OpenBabel01081721583D

 25 25  0  0  1  0  0  0  0  0999 V2000
  -31.5490   15.6790  -20.2300 C   0  0  0  0  0  0  0  0  0  0  0  0
  -31.6980   14.3800  -20.5560 N   0  0  0  0  0  0  0  0  0  0  0  0
  -30.9050   13.8100  -20.6810 H   0  0  0  0  0  0  0  0  0  0  0  0
  -32.5250   16.3820  -20.0770 O   0  0  0  0  0  0  0  0  0  0  0  0
  -32.9820   13.8410  -20.7160 N   0  0  0  0  0  0  0  0  0  0  0  0
  -33.5720   14.1780  -21.4280 H   0  0  0  0  0  0  0  0  0  0  0  0
  -33.4070   12.8590  -19.8970 C   0  0  0  0  0  0  0  0  0  0  0  0
  -33.7440   11.3040  -20.5270 S   0  0  0  0  0  0  0  0  0  0  0  0
  -33.5690   13.1020  -18.5800 N   0  0  0  0  0  0  0  0  0  0  0  0
  -34.4620   13.3190  -18.2260 H   0  0  0  0  0  0  0  0  0  0  0  0
  -32.4170   13.0460  -17.6780 C   0  0  0  0  0  0  0  0  0  0  0  0
  -32.8780   12.5990  -16.2900 C   0  0  2  0  0  0  0  0  0  0  0  0
  -33.4430   11.1570  -16.3400 C   0  0  0  0  0  0  0  0  0  0  0  0
  -34.3890   11.1360  -15.1150 C   0  0  0  0  0  0  0  0  0  0  0  0
  -34.6820   12.6230  -14.8390 C   0  0  0  0  0  0  0  0  0  0  0  0
  -34.0040   13.3900  -15.8480 O   0  0  0  0  0  0  0  0  0  0  0  0
  -30.1690   16.2590  -20.0580 C   0  0  0  0  0  0  0  0  0  0  0  0
  -28.2730   14.7850  -19.6410 C   0  0  0  0  0  0  0  0  0  0  0  0
  -29.1710   15.2880  -20.5120 N   0  0  0  0  0  0  0  0  0  0  0  0
  -29.1560   15.0010  -21.4540 H   0  0  0  0  0  0  0  0  0  0  0  0
  -28.2920   15.1380  -18.4810 O   0  0  0  0  0  0  0  0  0  0  0  0
  -27.9000   12.8020  -21.0810 C   0  0  0  0  0  0  0  0  0  0  0  0
  -27.2470   13.7850  -20.1080 C   0  0  0  0  0  0  0  0  0  0  0  0
  -26.6960   13.0210  -18.9020 C   0  0  0  0  0  0  0  0  0  0  0  0
  -26.1040   14.5170  -20.8130 C   0  0  0  0  0  0  0  0  0  0  0  0
  1  4  2  0  0  0  0
  1 17  1  0  0  0  0
  2  1  1  0  0  0  0
  3  2  1  0  0  0  0
  5  2  1  0  0  0  0
  5  7  1  0  0  0  0
  6  5  1  0  0  0  0
  7  9  1  0  0  0  0
  8  7  2  0  0  0  0
  9 10  1  0  0  0  0
  9 11  1  0  0  0  0
 12 11  1  6  0  0  0
 12 16  1  0  0  0  0
 13 12  1  0  0  0  0
 13 14  1  0  0  0  0
 14 15  1  0  0  0  0
 16 15  1  0  0  0  0
 18 21  2  0  0  0  0
 19 17  1  0  0  0  0
 19 18  1  0  0  0  0
 20 19  1  0  0  0  0
 22 23  1  0  0  0  0
 23 18  1  0  0  0  0
 23 24  1  0  0  0  0
 25 23  1  0  0  0  0
M  END
>  <MODEL>
1

>  <REMARK>
 VINA RESULT:      -6.7      0.000      0.000
  Name = ZINC29574719
                            x       y       z     vdW  Elec       q    Type
                         _______ _______ _______ _____ _____    ______ ____

>  <TORSDO>
F 8

>  <vina_score>
-6.7

$$$$
ZINC04226596
 OpenBabel01081721373D

 23 24  0  0  1  0  0  0  0  0999 V2000
  -30.9090   12.5040  -19.4850 C   0  0  1  0  0  0  0  0  0  0  0  0
  -30.8650   11.7260  -20.6330 C   0  0  0  0  0  0  0  0  0  0  0  0
  -29.6920   11.6550  -21.3690 C   0  0  0  0  0  0  0  0  0  0  0  0
  -28.5430   12.3030  -21.0570 N   0  0  0  0  0  0  0  0  0  0  0  0
  -27.7320   12.2240  -21.6080 H   0  0  0  0  0  0  0  0  0  0  0  0
  -28.5820   13.0780  -19.9220 C   0  0  0  0  0  0  0  0  0  0  0  0
  -27.4040   13.7770  -19.5510 C   0  0  0  0  0  0  0  0  0  0  0  0
  -27.4130   14.5670  -18.4090 C   0  0  0  0  0  0  0  0  0  0  0  0
  -28.5580   14.6780  -17.6340 C   0  0  0  0  0  0  0  0  0  0  0  0
  -29.7030   14.0140  -17.9720 C   0  0  0  0  0  0  0  0  0  0  0  0
  -29.6570   10.8030  -22.6110 C   0  0  0  0  0  0  0  0  0  0  0  0
  -29.7360   13.2060  -19.1160 C   0  0  0  0  0  0  0  0  0  0  0  0
  -26.1850   13.6660  -20.3690 C   0  0  0  0  0  0  0  0  0  0  0  0
  -25.5160   12.4970  -20.4250 O   0  0  0  0  0  0  0  0  0  0  0  0
  -25.7810   14.6270  -20.9940 O   0  0  0  0  0  0  0  0  0  0  0  0
  -32.0660   12.5960  -18.7290 N   0  0  0  0  0  0  0  0  0  0  0  0
  -32.3530   13.4680  -18.3730 H   0  0  0  0  0  0  0  0  0  0  0  0
  -32.8620   11.3960  -18.4580 C   0  0  1  0  0  0  0  0  0  0  0  0
  -33.1000   12.7880  -16.3980 C   0  0  0  0  0  0  0  0  0  0  0  0
  -33.2960   11.3920  -16.9910 C   0  0  0  0  0  0  0  0  0  0  0  0
  -34.0990   11.3920  -19.3570 C   0  0  0  0  0  0  0  0  0  0  0  0
  -34.3950   12.7280  -19.7670 O   0  0  0  0  0  0  0  0  0  0  0  0
  -34.1240   12.8490  -20.6920 H   0  0  0  0  0  0  0  0  0  0  0  0
  1 12  1  0  0  0  0
  1 16  1  6  0  0  0
  2  1  1  0  0  0  0
  3  4  1  0  0  0  0
  3  2  2  0  0  0  0
  4  6  1  0  0  0  0
  5  4  1  0  0  0  0
  6  7  1  0  0  0  0
  6 12  2  0  0  0  0
  7  8  2  0  0  0  0
  8  9  1  0  0  0  0
 10  9  2  0  0  0  0
 11  3  1  0  0  0  0
 12 10  1  0  0  0  0
 13  7  1  0  0  0  0
 14 13  1  0  0  0  0
 15 13  2  0  0  0  0
 16 18  1  0  0  0  0
 16 17  1  0  0  0  0
 18 21  1  6  0  0  0
 18 20  1  0  0  0  0
 20 19  1  0  0  0  0
 22 21  1  0  0  0  0
 23 22  1  0  0  0  0
M  END
>  <MODEL>
1

>  <REMARK>
 VINA RESULT:      -6.7      0.000      0.000
  Name = ZINC04226596
                            x       y       z     vdW  Elec       q    Type
                         _______ _______ _______ _____ _____    ______ ____

>  <TORSDO>
F 6

>  <vina_score>
-6.7

$$$$
ZINC03978077
 OpenBabel01081721443D

 23 24  0  0  1  0  0  0  0  0999 V2000
  -28.8130   12.7370  -20.2540 C   0  0  2  0  0  0  0  0  0  0  0  0
  -27.5440   12.8770  -21.1320 C   0  0  2  0  0  0  0  0  0  0  0  0
  -26.5630   13.5930  -20.1720 C   0  0  1  0  0  0  0  0  0  0  0  0
  -27.1310   13.3050  -18.7690 C   0  0  2  0  0  0  0  0  0  0  0  0
  -28.2840   12.4650  -18.9350 O   0  0  0  0  0  0  0  0  0  0  0  0
  -27.8070   13.6790  -22.2850 O   0  0  0  0  0  0  0  0  0  0  0  0
  -28.7360   13.9570  -22.2810 H   0  0  0  0  0  0  0  0  0  0  0  0
  -25.2480   13.0480  -20.3020 O   0  0  0  0  0  0  0  0  0  0  0  0
  -25.2590   12.3310  -20.9560 H   0  0  0  0  0  0  0  0  0  0  0  0
  -29.6770   11.5700  -20.7380 C   0  0  0  0  0  0  0  0  0  0  0  0
  -31.5560   11.7900  -19.1940 C   0  0  0  0  0  0  0  0  0  0  0  0
  -32.8150   12.0510  -18.9490 N   0  0  0  0  0  0  0  0  0  0  0  0
  -33.6490   12.3780  -19.9470 C   0  0  0  0  0  0  0  0  0  0  0  0
  -33.2070   12.4440  -21.1950 N   0  0  0  0  0  0  0  0  0  0  0  0
  -31.9250   12.1850  -21.4640 C   0  0  0  0  0  0  0  0  0  0  0  0
  -31.5140   12.2440  -22.6110 O   0  0  0  0  0  0  0  0  0  0  0  0
  -31.0870   11.8570  -20.4590 N   0  0  0  0  0  0  0  0  0  0  0  0
  -34.9670   12.6450  -19.6750 N   0  0  0  0  0  0  0  0  0  0  0  0
  -35.2100   13.1670  -18.8760 H   0  0  0  0  0  0  0  0  0  0  0  0
  -35.6710   12.3130  -20.2790 H   0  0  0  0  0  0  0  0  0  0  0  0
  -27.5360   14.6160  -18.0920 C   0  0  0  0  0  0  0  0  0  0  0  0
  -27.1520   15.7180  -18.9180 O   0  0  0  0  0  0  0  0  0  0  0  0
  -26.2470   15.5810  -19.2400 H   0  0  0  0  0  0  0  0  0  0  0  0
  1 10  1  6  0  0  0
  1  5  1  0  0  0  0
  2  6  1  6  0  0  0
  2  1  1  0  0  0  0
  2  3  1  0  0  0  0
  3  8  1  1  0  0  0
  3  4  1  0  0  0  0
  4 21  1  6  0  0  0
  5  4  1  0  0  0  0
  6  7  1  0  0  0  0
  9  8  1  0  0  0  0
 10 17  1  0  0  0  0
 11 12  2  0  0  0  0
 13 18  1  0  0  0  0
 13 12  1  0  0  0  0
 14 13  2  0  0  0  0
 15 14  1  0  0  0  0
 15 17  1  0  0  0  0
 16 15  2  0  0  0  0
 17 11  1  0  0  0  0
 18 19  1  0  0  0  0
 20 18  1  0  0  0  0
 22 21  1  0  0  0  0
 23 22  1  0  0  0  0
M  END
>  <MODEL>
1

>  <REMARK>
 VINA RESULT:      -6.7      0.000      0.000
  Name = ZINC03978077
                            x       y       z     vdW  Elec       q    Type
                         _______ _______ _______ _____ _____    ______ ____

>  <TORSDO>
F 7

>  <vina_score>
-6.7

$$$$
ZINC24331310
 OpenBabel01081721363D

 25 25  0  0  0  0  0  0  0  0999 V2000
  -32.0920   12.5490  -21.5560 C   0  0  0  0  0  0  0  0  0  0  0  0
  -32.4220   13.7080  -21.4640 O   0  0  0  0  0  0  0  0  0  0  0  0
  -32.8790   11.4840  -20.8370 C   0  0  0  0  0  0  0  0  0  0  0  0
  -33.8010   12.1380  -19.8080 C   0  0  0  0  0  0  0  0  0  0  0  0
  -33.1230   12.1300  -18.4360 C   0  0  0  0  0  0  0  0  0  0  0  0
  -30.7940   12.8080  -18.1990 C   0  0  0  0  0  0  0  0  0  0  0  0
  -32.0800   13.1590  -18.4010 N   0  0  0  0  0  0  0  0  0  0  0  0
  -32.3180   14.1050  -18.5250 H   0  0  0  0  0  0  0  0  0  0  0  0
  -30.5010   11.6360  -18.0470 O   0  0  0  0  0  0  0  0  0  0  0  0
  -27.9160   14.9900  -17.6720 C   0  0  0  0  0  0  0  0  0  0  0  0
  -28.6300   13.8160  -17.3840 C   0  0  0  0  0  0  0  0  0  0  0  0
  -29.7500   13.8360  -18.1650 C   0  0  0  0  0  0  0  0  0  0  0  0
  -29.7250   14.9660  -18.9020 O   0  0  0  0  0  0  0  0  0  0  0  0
  -28.6240   15.6670  -18.6040 C   0  0  0  0  0  0  0  0  0  0  0  0
  -31.0260   12.2110  -22.2990 O   0  0  0  0  0  0  0  0  0  0  0  0
  -29.9080   11.5960  -21.6070 C   0  0  0  0  0  0  0  0  0  0  0  0
  -28.7720   12.5810  -21.5130 C   0  0  0  0  0  0  0  0  0  0  0  0
  -27.7260   12.3290  -20.7010 N   0  0  0  0  0  0  0  0  0  0  0  0
  -27.7050   11.5010  -20.1690 H   0  0  0  0  0  0  0  0  0  0  0  0
  -26.7100   13.2090  -20.6170 C   0  0  0  0  0  0  0  0  0  0  0  0
  -25.6650   12.9570  -19.8050 N   0  0  0  0  0  0  0  0  0  0  0  0
  -24.9220   13.6000  -19.7440 H   0  0  0  0  0  0  0  0  0  0  0  0
  -25.6430   12.1290  -19.2720 H   0  0  0  0  0  0  0  0  0  0  0  0
  -26.7360   14.2320  -21.2740 O   0  0  0  0  0  0  0  0  0  0  0  0
  -28.7970   13.6010  -22.1690 O   0  0  0  0  0  0  0  0  0  0  0  0
  1  2  2  0  0  0  0
  1  3  1  0  0  0  0
  3  4  1  0  0  0  0
  4  5  1  0  0  0  0
  5  7  1  0  0  0  0
  6 12  1  0  0  0  0
  6  9  2  0  0  0  0
  7  6  1  0  0  0  0
  8  7  1  0  0  0  0
 10 11  1  0  0  0  0
 12 11  2  0  0  0  0
 13 14  1  0  0  0  0
 13 12  1  0  0  0  0
 14 10  2  0  0  0  0
 15 16  1  0  0  0  0
 15  1  1  0  0  0  0
 16 17  1  0  0  0  0
 17 18  1  0  0  0  0
 18 20  1  0  0  0  0
 18 19  1  0  0  0  0
 20 21  1  0  0  0  0
 21 22  1  0  0  0  0
 21 23  1  0  0  0  0
 24 20  2  0  0  0  0
 25 17  2  0  0  0  0
M  END
>  <MODEL>
1

>  <REMARK>
 VINA RESULT:      -6.6      0.000      0.000
  Name = ZINC24331310
                            x       y       z     vdW  Elec       q    Type
                         _______ _______ _______ _____ _____    ______ ____

>  <TORSDO>
F 8

>  <vina_score>
-6.6

$$$$
ZINC26140662
 OpenBabel01081721573D

 26 28  0  0  0  0  0  0  0  0999 V2000
  -27.2870   14.0640  -18.6000 C   0  0  0  0  0  0  0  0  0  0  0  0
  -27.2280   14.8990  -19.6560 N   0  0  0  0  0  0  0  0  0  0  0  0
  -27.7510   15.7340  -19.6540 H   0  0  0  0  0  0  0  0  0  0  0  0
  -26.6430   13.0350  -18.6040 O   0  0  0  0  0  0  0  0  0  0  0  0
  -28.1530   14.4060  -17.4160 C   0  0  0  0  0  0  0  0  0  0  0  0
  -33.6450   12.0930  -17.8850 C   0  0  0  0  0  0  0  0  0  0  0  0
  -33.7330   13.0300  -18.9360 C   0  0  0  0  0  0  0  0  0  0  0  0
  -32.6900   13.8230  -19.2350 C   0  0  0  0  0  0  0  0  0  0  0  0
  -31.5200   13.7460  -18.5160 N   0  0  0  0  0  0  0  0  0  0  0  0
  -31.4050   12.8370  -17.4810 C   0  0  0  0  0  0  0  0  0  0  0  0
  -30.2060   12.9520  -16.9590 N   0  0  0  0  0  0  0  0  0  0  0  0
  -29.5240   13.9520  -17.6660 N   0  0  0  0  0  0  0  0  0  0  0  0
  -30.3580   14.4210  -18.6160 C   0  0  0  0  0  0  0  0  0  0  0  0
  -30.1040   15.2990  -19.4230 O   0  0  0  0  0  0  0  0  0  0  0  0
  -32.5010   11.9940  -17.1640 C   0  0  0  0  0  0  0  0  0  0  0  0
  -26.3860   14.5660  -20.8080 C   0  0  0  0  0  0  0  0  0  0  0  0
  -27.2520   14.4850  -22.0670 C   0  0  0  0  0  0  0  0  0  0  0  0
  -28.5250   13.8400  -21.7440 N   0  0  0  0  0  0  0  0  0  0  0  0
  -29.2380   14.3520  -21.2970 H   0  0  0  0  0  0  0  0  0  0  0  0
  -28.7240   12.5450  -22.0580 C   0  0  0  0  0  0  0  0  0  0  0  0
  -27.8440   11.9110  -22.6110 O   0  0  0  0  0  0  0  0  0  0  0  0
  -30.0000   11.8980  -21.7350 C   0  0  0  0  0  0  0  0  0  0  0  0
  -30.3070   11.2730  -20.5600 C   0  0  0  0  0  0  0  0  0  0  0  0
  -31.6240   10.8030  -20.6860 C   0  0  0  0  0  0  0  0  0  0  0  0
  -32.0570   11.1580  -21.9150 C   0  0  0  0  0  0  0  0  0  0  0  0
  -31.0770   11.8220  -22.5420 O   0  0  0  0  0  0  0  0  0  0  0  0
  1  5  1  0  0  0  0
  2  3  1  0  0  0  0
  2  1  1  0  0  0  0
  4  1  2  0  0  0  0
  6 15  2  0  0  0  0
  7  6  1  0  0  0  0
  8  7  2  0  0  0  0
  8  9  1  0  0  0  0
  9 10  1  0  0  0  0
 10 15  1  0  0  0  0
 10 11  2  0  0  0  0
 12  5  1  0  0  0  0
 12 11  1  0  0  0  0
 13  9  1  0  0  0  0
 13 12  1  0  0  0  0
 14 13  2  0  0  0  0
 16  2  1  0  0  0  0
 17 18  1  0  0  0  0
 17 16  1  0  0  0  0
 18 19  1  0  0  0  0
 20 18  1  0  0  0  0
 20 22  1  0  0  0  0
 21 20  2  0  0  0  0
 22 23  2  0  0  0  0
 24 23  1  0  0  0  0
 25 24  2  0  0  0  0
 26 25  1  0  0  0  0
 26 22  1  0  0  0  0
M  END
>  <MODEL>
1

>  <REMARK>
 VINA RESULT:      -6.6      0.000      0.000
  Name = ZINC26140662
                            x       y       z     vdW  Elec       q    Type
                         _______ _______ _______ _____ _____    ______ ____

>  <TORSDO>
F 6

>  <vina_score>
-6.6

$$$$
ZINC11661273
 OpenBabel01081721493D

 23 24  0  0  1  0  0  0  0  0999 V2000
  -30.9560   14.2850  -20.5390 N   0  0  0  0  0  0  0  0  0  0  0  0
  -30.7140   13.5300  -19.8980 H   0  0  0  0  0  0  0  0  0  0  0  0
  -30.5290   14.1210  -21.4510 H   0  0  0  0  0  0  0  0  0  0  0  0
  -32.4220   14.3340  -20.6900 C   0  0  0  0  0  0  0  0  0  0  0  0
  -32.9590   12.9080  -20.8350 C   0  0  0  0  0  0  0  0  0  0  0  0
  -33.3540   12.4150  -19.5530 O   0  0  0  0  0  0  0  0  0  0  0  0
  -33.3910   12.7640  -16.4980 C   0  0  0  0  0  0  0  0  0  0  0  0
  -32.3370   12.0840  -17.3330 C   0  0  0  0  0  0  0  0  0  0  0  0
  -32.3690   11.9510  -18.7410 C   0  0  0  0  0  0  0  0  0  0  0  0
  -31.3010   11.3160  -19.1370 N   0  0  0  0  0  0  0  0  0  0  0  0
  -30.5390   11.0100  -17.9800 O   0  0  0  0  0  0  0  0  0  0  0  0
  -31.2600   11.5240  -16.8730 N   0  0  0  0  0  0  0  0  0  0  0  0
  -30.4550   15.5590  -19.9910 C   0  0  0  0  0  0  0  0  0  0  0  0
  -29.1600   15.2990  -19.2180 C   0  0  1  0  0  0  0  0  0  0  0  0
  -29.4770   14.5070  -17.9470 C   0  0  0  0  0  0  0  0  0  0  0  0
  -28.1570   14.0230  -17.3360 C   0  0  0  0  0  0  0  0  0  0  0  0
  -27.5350   12.9860  -18.2740 C   0  0  0  0  0  0  0  0  0  0  0  0
  -27.4780   13.5000  -19.6360 N   0  0  0  0  0  0  0  0  0  0  0  0
  -26.5540   12.8560  -20.5740 C   0  0  0  0  0  0  0  0  0  0  0  0
  -28.2110   14.5190  -20.0830 C   0  0  0  0  0  0  0  0  0  0  0  0
  -28.1080   14.8340  -21.2500 O   0  0  0  0  0  0  0  0  0  0  0  0
  -28.5620   16.5460  -18.8630 O   0  0  0  0  0  0  0  0  0  0  0  0
  -27.9080   16.7960  -19.5350 H   0  0  0  0  0  0  0  0  0  0  0  0
  1 13  1  0  0  0  0
  1  2  1  0  0  0  0
  3  1  1  0  0  0  0
  4  1  1  0  0  0  0
  5  4  1  0  0  0  0
  5  6  1  0  0  0  0
  6  9  1  0  0  0  0
  8 12  2  0  0  0  0
  8  7  1  0  0  0  0
  9  8  1  0  0  0  0
 10  9  2  0  0  0  0
 10 11  1  0  0  0  0
 11 12  1  0  0  0  0
 14 13  1  6  0  0  0
 14 22  1  0  0  0  0
 14 15  1  0  0  0  0
 15 16  1  0  0  0  0
 17 16  1  0  0  0  0
 18 17  1  0  0  0  0
 19 18  1  0  0  0  0
 20 18  1  0  0  0  0
 20 14  1  0  0  0  0
 21 20  2  0  0  0  0
 23 22  1  0  0  0  0
M  END
>  <MODEL>
1

>  <REMARK>
 VINA RESULT:      -6.5      0.000      0.000
  Name = ZINC11661273
                            x       y       z     vdW  Elec       q    Type
                         _______ _______ _______ _____ _____    ______ ____

>  <TORSDO>
F 7

>  <vina_score>
-6.5

$$$$
ZINC26764321
 OpenBabel01081721363D

 26 26  0  0  0  0  0  0  0  0999 V2000
  -27.6250   14.6120  -18.2560 S   0  0  0  0  0  0  0  0  0  0  0  0
  -27.5790   15.8420  -17.5450 O   0  0  0  0  0  0  0  0  0  0  0  0
  -26.9220   13.4560  -17.8230 O   0  0  0  0  0  0  0  0  0  0  0  0
  -33.4490   13.0370  -18.6120 C   0  0  0  0  0  0  0  0  0  0  0  0
  -31.9960   13.4320  -18.5260 C   0  0  0  0  0  0  0  0  0  0  0  0
  -31.1790   12.8590  -17.5740 C   0  0  0  0  0  0  0  0  0  0  0  0
  -29.8440   13.2150  -17.4980 C   0  0  0  0  0  0  0  0  0  0  0  0
  -29.3230   14.1590  -18.3660 C   0  0  0  0  0  0  0  0  0  0  0  0
  -30.1310   14.7400  -19.3230 C   0  0  0  0  0  0  0  0  0  0  0  0
  -31.4760   14.3800  -19.4090 C   0  0  0  0  0  0  0  0  0  0  0  0
  -32.3470   15.0000  -20.4300 C   0  0  0  0  0  0  0  0  0  0  0  0
  -32.7430   14.2850  -21.5020 N   0  0  0  0  0  0  0  0  0  0  0  0
  -33.3230   14.6970  -22.1820 H   0  0  0  0  0  0  0  0  0  0  0  0
  -32.4510   13.3500  -21.6050 H   0  0  0  0  0  0  0  0  0  0  0  0
  -32.7070   16.1540  -20.3030 O   0  0  0  0  0  0  0  0  0  0  0  0
  -27.1030   14.9350  -19.7950 N   0  0  0  0  0  0  0  0  0  0  0  0
  -26.3920   15.6620  -19.7180 H   0  0  0  0  0  0  0  0  0  0  0  0
  -26.5280   13.8650  -20.6120 C   0  0  0  0  0  0  0  0  0  0  0  0
  -27.5650   13.3590  -21.5820 C   0  0  0  0  0  0  0  0  0  0  0  0
  -28.1780   12.1800  -21.3590 N   0  0  0  0  0  0  0  0  0  0  0  0
  -27.9490   11.6490  -20.5630 H   0  0  0  0  0  0  0  0  0  0  0  0
  -27.8470   14.0140  -22.5630 O   0  0  0  0  0  0  0  0  0  0  0  0
  -29.1860   11.6890  -22.3020 C   0  0  0  0  0  0  0  0  0  0  0  0
  -30.1890   10.8040  -21.5600 C   0  0  0  0  0  0  0  0  0  0  0  0
  -31.3590   11.5640  -21.2540 O   0  0  0  0  0  0  0  0  0  0  0  0
  -32.5690   10.8040  -21.2750 C   0  0  0  0  0  0  0  0  0  0  0  0
  1  3  2  0  0  0  0
  1  2  2  0  0  0  0
  4  5  1  0  0  0  0
  5  6  2  0  0  0  0
  6  7  1  0  0  0  0
  8  1  1  0  0  0  0
  8  7  2  0  0  0  0
  9  8  1  0  0  0  0
 10  9  2  0  0  0  0
 10  5  1  0  0  0  0
 11 15  2  0  0  0  0
 11 10  1  0  0  0  0
 12 11  1  0  0  0  0
 13 12  1  0  0  0  0
 14 12  1  0  0  0  0
 16 17  1  0  0  0  0
 16  1  1  0  0  0  0
 18 16  1  0  0  0  0
 19 20  1  0  0  0  0
 19 18  1  0  0  0  0
 20 21  1  0  0  0  0
 22 19  2  0  0  0  0
 23 24  1  0  0  0  0
 23 20  1  0  0  0  0
 24 25  1  0  0  0  0
 26 25  1  0  0  0  0
M  END
>  <MODEL>
1

>  <REMARK>
 VINA RESULT:      -6.5      0.000      0.000
  Name = ZINC26764321
                            x       y       z     vdW  Elec       q    Type
                         _______ _______ _______ _____ _____    ______ ____

>  <TORSDO>
F 8

>  <vina_score>
-6.5

$$$$
ZINC04650528
 OpenBabel01081721563D

 27 27  0  0  1  0  0  0  0  0999 V2000
  -31.5840   12.0570  -22.1500 C   0  0  0  0  0  0  0  0  0  0  0  0
  -30.8650   11.8340  -20.8440 C   0  0  0  0  0  0  0  0  0  0  0  0
  -30.0850   10.9200  -20.7330 O   0  0  0  0  0  0  0  0  0  0  0  0
  -31.1210   12.7540  -19.6780 C   0  0  2  0  0  0  0  0  0  0  0  0
  -31.6840   14.0750  -20.1590 C   0  0  0  0  0  0  0  0  0  0  0  0
  -32.7210   14.2460  -20.7550 O   0  0  0  0  0  0  0  0  0  0  0  0
  -30.7080   15.1230  -19.7500 C   0  0  0  0  0  0  0  0  0  0  0  0
  -30.8390   16.3090  -19.9740 O   0  0  0  0  0  0  0  0  0  0  0  0
  -29.6630   14.5840  -19.1080 N   0  0  0  0  0  0  0  0  0  0  0  0
  -30.7310   12.0690  -18.3580 C   0  0  0  0  0  0  0  0  0  0  0  0
  -31.9210   12.0140  -17.4340 C   0  0  0  0  0  0  0  0  0  0  0  0
  -32.2580   13.1200  -16.6770 C   0  0  0  0  0  0  0  0  0  0  0  0
  -33.3510   13.0750  -15.8350 C   0  0  0  0  0  0  0  0  0  0  0  0
  -34.1040   11.9130  -15.7400 C   0  0  0  0  0  0  0  0  0  0  0  0
  -33.7610   10.8030  -16.4960 C   0  0  0  0  0  0  0  0  0  0  0  0
  -32.6700   10.8550  -17.3420 C   0  0  0  0  0  0  0  0  0  0  0  0
  -35.1780   11.8650  -14.9080 O   0  0  0  0  0  0  0  0  0  0  0  0
  -36.0250   12.1110  -15.2210 H   0  0  0  0  0  0  0  0  0  0  0  0
  -28.5290   15.3520  -18.5870 C   0  0  0  0  0  0  0  0  0  0  0  0
  -27.2420   14.5450  -18.7660 C   0  0  0  0  0  0  0  0  0  0  0  0
  -26.5360   15.0230  -19.9700 N   0  0  0  0  0  0  0  0  0  0  0  0
  -26.8500   15.9690  -20.1850 H   0  0  0  0  0  0  0  0  0  0  0  0
  -25.5310   15.0200  -19.7930 H   0  0  0  0  0  0  0  0  0  0  0  0
  -26.8300   14.1460  -21.1180 C   0  0  0  0  0  0  0  0  0  0  0  0
  -26.6130   12.6890  -20.7050 C   0  0  0  0  0  0  0  0  0  0  0  0
  -25.2130   12.3950  -20.7140 O   0  0  0  0  0  0  0  0  0  0  0  0
  -25.0080   11.7790  -19.9930 H   0  0  0  0  0  0  0  0  0  0  0  0
  1  2  1  0  0  0  0
  2  3  2  0  0  0  0
  4  2  1  6  0  0  0
  4 10  1  0  0  0  0
  5  7  1  0  0  0  0
  5  4  1  0  0  0  0
  6  5  2  0  0  0  0
  7  9  1  0  0  0  0
  8  7  2  0  0  0  0
  9 19  1  0  0  0  0
 10 11  1  0  0  0  0
 11 16  2  0  0  0  0
 11 12  1  0  0  0  0
 12 13  2  0  0  0  0
 13 14  1  0  0  0  0
 14 17  1  0  0  0  0
 15 14  2  0  0  0  0
 16 15  1  0  0  0  0
 18 17  1  0  0  0  0
 20 19  1  0  0  0  0
 21 23  1  0  0  0  0
 21 20  1  0  0  0  0
 22 21  1  0  0  0  0
 24 25  1  0  0  0  0
 24 21  1  0  0  0  0
 26 25  1  0  0  0  0
 26 27  1  0  0  0  0
M  END
>  <MODEL>
1

>  <REMARK>
 VINA RESULT:      -6.5      0.000      0.000
  Name = ZINC04650528
                            x       y       z     vdW  Elec       q    Type
                         _______ _______ _______ _____ _____    ______ ____

>  <TORSDO>
F 8

>  <vina_score>
-6.5

$$$$
ZINC31219731
 OpenBabel01081722003D

 30 31  0  0  1  0  0  0  0  0999 V2000
  -30.1850   11.9260  -20.5910 C   0  0  0  0  0  0  0  0  0  0  0  0
  -30.6020   12.1970  -19.3960 N   0  0  0  0  0  0  0  0  0  0  0  0
  -31.8690   11.6930  -19.1100 N   0  0  0  0  0  0  0  0  0  0  0  0
  -32.3720   10.9680  -20.2880 C   0  0  2  0  0  0  0  0  0  0  0  0
  -31.2340   11.1140  -21.3180 C   0  0  0  0  0  0  0  0  0  0  0  0
  -32.5480   11.8440  -17.8990 C   0  0  0  0  0  0  0  0  0  0  0  0
  -32.4480   13.0350  -17.1880 C   0  0  0  0  0  0  0  0  0  0  0  0
  -33.1230   13.1830  -15.9940 C   0  0  0  0  0  0  0  0  0  0  0  0
  -33.8920   12.1440  -15.4970 C   0  0  0  0  0  0  0  0  0  0  0  0
  -34.5480   12.2900  -14.3260 F   0  0  0  0  0  0  0  0  0  0  0  0
  -33.9900   10.9540  -16.2010 C   0  0  0  0  0  0  0  0  0  0  0  0
  -33.3200   10.8030  -17.3980 C   0  0  0  0  0  0  0  0  0  0  0  0
  -33.6380   11.6030  -20.8030 C   0  0  0  0  0  0  0  0  0  0  0  0
  -33.7070   12.9400  -20.9550 N   0  0  0  0  0  0  0  0  0  0  0  0
  -34.5340   13.3540  -21.2920 H   0  0  0  0  0  0  0  0  0  0  0  0
  -32.9310   13.5020  -20.7290 H   0  0  0  0  0  0  0  0  0  0  0  0
  -34.5940   10.9100  -21.0810 O   0  0  0  0  0  0  0  0  0  0  0  0
  -27.8060   12.3890  -20.3620 N   0  0  0  0  0  0  0  0  0  0  0  0
  -27.8760   12.1520  -19.4080 H   0  0  0  0  0  0  0  0  0  0  0  0
  -28.8970   12.3360  -21.1510 C   0  0  0  0  0  0  0  0  0  0  0  0
  -28.8110   12.6290  -22.3290 O   0  0  0  0  0  0  0  0  0  0  0  0
  -26.5160   12.7990  -20.9210 C   0  0  0  0  0  0  0  0  0  0  0  0
  -26.0330   14.0670  -20.2140 C   0  0  0  0  0  0  0  0  0  0  0  0
  -27.1780   14.9400  -19.9410 N   0  0  0  0  0  0  0  0  0  0  0  0
  -26.8670   15.8960  -20.1130 H   0  0  0  0  0  0  0  0  0  0  0  0
  -27.8890   14.9300  -18.4460 S   0  0  0  0  0  0  0  0  0  0  0  0
  -27.5360   13.6740  -17.8840 O   0  0  0  0  0  0  0  0  0  0  0  0
  -27.4670   16.1420  -17.8350 O   0  0  0  0  0  0  0  0  0  0  0  0
  -29.9540   16.0210  -19.8710 C   0  0  0  0  0  0  0  0  0  0  0  0
  -29.6720   14.9860  -18.7780 C   0  0  0  0  0  0  0  0  0  0  0  0
  1  2  2  0  0  0  0
  2  3  1  0  0  0  0
  3  6  1  0  0  0  0
  4 13  1  6  0  0  0
  4  3  1  0  0  0  0
  5  1  1  0  0  0  0
  5  4  1  0  0  0  0
  6 12  2  0  0  0  0
  6  7  1  0  0  0  0
  7  8  2  0  0  0  0
  8  9  1  0  0  0  0
  9 10  1  0  0  0  0
 11  9  2  0  0  0  0
 12 11  1  0  0  0  0
 14 13  1  0  0  0  0
 14 16  1  0  0  0  0
 15 14  1  0  0  0  0
 17 13  2  0  0  0  0
 18 19  1  0  0  0  0
 20  1  1  0  0  0  0
 20 18  1  0  0  0  0
 21 20  2  0  0  0  0
 22 18  1  0  0  0  0
 22 23  1  0  0  0  0
 23 24  1  0  0  0  0
 24 26  1  0  0  0  0
 25 24  1  0  0  0  0
 26 27  2  0  0  0  0
 26 28  2  0  0  0  0
 29 30  1  0  0  0  0
 30 26  1  0  0  0  0
M  END
>  <MODEL>
1

>  <REMARK>
 VINA RESULT:      -6.5      0.000      0.000
  Name = ZINC31219731
                            x       y       z     vdW  Elec       q    Type
                         _______ _______ _______ _____ _____    ______ ____

>  <TORSDO>
F 8

>  <vina_score>
-6.5

$$$$
ZINC05974537
 OpenBabel01081721373D

 24 25  0  0  1  0  0  0  0  0999 V2000
  -31.4810   13.9540  -20.1890 C   0  0  1  0  0  0  0  0  0  0  0  0
  -31.1600   13.4200  -21.5260 N   0  0  0  0  0  0  0  0  0  0  0  0
  -30.7410   14.1610  -22.0880 H   0  0  0  0  0  0  0  0  0  0  0  0
  -32.0160   13.0850  -21.9690 H   0  0  0  0  0  0  0  0  0  0  0  0
  -30.2020   12.3040  -21.4140 C   0  0  0  0  0  0  0  0  0  0  0  0
  -26.5220   13.7660  -19.8120 C   0  0  0  0  0  0  0  0  0  0  0  0
  -26.8470   14.0130  -21.1320 C   0  0  0  0  0  0  0  0  0  0  0  0
  -28.0380   13.5390  -21.6510 C   0  0  0  0  0  0  0  0  0  0  0  0
  -28.9040   12.8200  -20.8490 C   0  0  0  0  0  0  0  0  0  0  0  0
  -28.5800   12.5760  -19.5270 C   0  0  0  0  0  0  0  0  0  0  0  0
  -27.3870   13.0450  -19.0100 C   0  0  0  0  0  0  0  0  0  0  0  0
  -31.4070   15.4590  -20.2180 C   0  0  0  0  0  0  0  0  0  0  0  0
  -30.2280   16.0760  -20.0380 O   0  0  0  0  0  0  0  0  0  0  0  0
  -32.4080   16.1100  -20.4030 O   0  0  0  0  0  0  0  0  0  0  0  0
  -32.8960   13.5200  -19.8020 C   0  0  0  0  0  0  0  0  0  0  0  0
  -32.9080   13.0680  -18.3650 C   0  0  0  0  0  0  0  0  0  0  0  0
  -31.8510   12.5850  -17.6640 C   0  0  0  0  0  0  0  0  0  0  0  0
  -32.2620   12.2980  -16.4320 N   0  0  0  0  0  0  0  0  0  0  0  0
  -33.5430   12.5830  -16.3260 C   0  0  0  0  0  0  0  0  0  0  0  0
  -33.9720   13.0750  -17.5280 N   0  0  0  0  0  0  0  0  0  0  0  0
  -34.8840   13.3770  -17.7450 H   0  0  0  0  0  0  0  0  0  0  0  0
  -34.3700   12.4080  -15.1220 C   0  0  0  0  0  0  0  0  0  0  0  0
  -34.9780   11.2270  -14.8880 O   0  0  0  0  0  0  0  0  0  0  0  0
  -34.5050   13.3260  -14.3370 O   0  0  0  0  0  0  0  0  0  0  0  0
  1  2  1  6  0  0  0
  1 15  1  0  0  0  0
  2  5  1  0  0  0  0
  3  2  1  0  0  0  0
  4  2  1  0  0  0  0
  5  9  1  0  0  0  0
  6 11  2  0  0  0  0
  7  6  1  0  0  0  0
  8  7  2  0  0  0  0
  8  9  1  0  0  0  0
  9 10  2  0  0  0  0
 10 11  1  0  0  0  0
 12  1  1  0  0  0  0
 12 13  1  0  0  0  0
 14 12  2  0  0  0  0
 15 16  1  0  0  0  0
 16 17  2  0  0  0  0
 16 20  1  0  0  0  0
 17 18  1  0  0  0  0
 18 19  2  0  0  0  0
 19 22  1  0  0  0  0
 20 19  1  0  0  0  0
 21 20  1  0  0  0  0
 22 23  2  0  0  0  0
 22 24  1  0  0  0  0
M  END
>  <MODEL>
1

>  <REMARK>
 VINA RESULT:      -6.5      0.000      0.000
  Name = ZINC05974537
                            x       y       z     vdW  Elec       q    Type
                         _______ _______ _______ _____ _____    ______ ____

>  <TORSDO>
F 7

>  <vina_score>
-6.5

$$$$
ZINC15775177
 OpenBabel01081722013D

 26 27  0  0  1  0  0  0  0  0999 V2000
  -31.0920   11.6740  -20.7620 C   0  0  0  0  0  0  0  0  0  0  0  0
  -30.6560   11.8140  -22.0070 N   0  0  0  0  0  0  0  0  0  0  0  0
  -29.5150   12.2840  -22.2640 N   0  0  0  0  0  0  0  0  0  0  0  0
  -28.6790   12.6550  -21.3150 C   0  0  0  0  0  0  0  0  0  0  0  0
  -29.6690   12.2930  -19.8680 S   0  0  0  0  0  0  0  0  0  0  0  0
  -32.3020   11.1890  -20.2880 N   0  0  0  0  0  0  0  0  0  0  0  0
  -32.8350   10.5720  -20.8390 H   0  0  0  0  0  0  0  0  0  0  0  0
  -34.1780   12.7640  -15.1720 C   0  0  0  0  0  0  0  0  0  0  0  0
  -33.6790   12.3450  -16.5310 C   0  0  0  0  0  0  0  0  0  0  0  0
  -33.9760   13.1140  -17.6420 C   0  0  0  0  0  0  0  0  0  0  0  0
  -33.5210   12.7330  -18.8890 C   0  0  0  0  0  0  0  0  0  0  0  0
  -32.7640   11.5770  -19.0270 C   0  0  0  0  0  0  0  0  0  0  0  0
  -32.4730   10.8030  -17.9100 C   0  0  0  0  0  0  0  0  0  0  0  0
  -32.9270   11.1920  -16.6650 C   0  0  0  0  0  0  0  0  0  0  0  0
  -27.2890   13.2280  -21.4180 C   0  0  2  0  0  0  0  0  0  0  0  0
  -26.3290   12.1990  -21.1740 O   0  0  0  0  0  0  0  0  0  0  0  0
  -25.4400   12.5850  -21.1440 H   0  0  0  0  0  0  0  0  0  0  0  0
  -27.1180   14.3410  -20.3810 C   0  0  2  0  0  0  0  0  0  0  0  0
  -25.8490   14.9730  -20.5660 O   0  0  0  0  0  0  0  0  0  0  0  0
  -25.8990   15.8920  -20.2640 H   0  0  0  0  0  0  0  0  0  0  0  0
  -27.1910   13.7440  -18.9760 C   0  0  1  0  0  0  0  0  0  0  0  0
  -25.9090   13.2290  -18.6100 O   0  0  0  0  0  0  0  0  0  0  0  0
  -25.9920   12.2910  -18.3750 H   0  0  0  0  0  0  0  0  0  0  0  0
  -27.6060   14.8310  -17.9810 C   0  0  0  0  0  0  0  0  0  0  0  0
  -28.0410   15.9890  -18.6950 O   0  0  0  0  0  0  0  0  0  0  0  0
  -27.6030   16.7760  -18.3330 H   0  0  0  0  0  0  0  0  0  0  0  0
  1  6  1  0  0  0  0
  1  5  1  0  0  0  0
  2  1  2  0  0  0  0
  3  2  1  0  0  0  0
  3  4  2  0  0  0  0
  4  5  1  0  0  0  0
  6 12  1  0  0  0  0
  7  6  1  0  0  0  0
  9  8  1  0  0  0  0
 10  9  2  0  0  0  0
 11 10  1  0  0  0  0
 12 11  2  0  0  0  0
 12 13  1  0  0  0  0
 13 14  2  0  0  0  0
 14  9  1  0  0  0  0
 15  4  1  1  0  0  0
 15 16  1  0  0  0  0
 15 18  1  0  0  0  0
 16 17  1  0  0  0  0
 18 19  1  6  0  0  0
 18 21  1  0  0  0  0
 19 20  1  0  0  0  0
 21 22  1  1  0  0  0
 21 24  1  0  0  0  0
 22 23  1  0  0  0  0
 25 26  1  0  0  0  0
 25 24  1  0  0  0  0
M  END
>  <MODEL>
1

>  <REMARK>
 VINA RESULT:      -6.5      0.000      0.000
  Name = ZINC15775177
                            x       y       z     vdW  Elec       q    Type
                         _______ _______ _______ _____ _____    ______ ____

>  <TORSDO>
F 10

>  <vina_score>
-6.5

$$$$
ZINC05667259
 OpenBabel01081721383D

 26 27  0  0  1  0  0  0  0  0999 V2000
  -28.3790   12.3950  -20.3250 C   0  0  2  0  0  0  0  0  0  0  0  0
  -28.9820   12.8480  -21.6410 C   0  0  0  0  0  0  0  0  0  0  0  0
  -30.3210   13.0110  -21.6910 N   0  0  0  0  0  0  0  0  0  0  0  0
  -30.7360   13.3050  -22.5350 H   0  0  0  0  0  0  0  0  0  0  0  0
  -31.1020   12.7840  -20.6290 C   0  0  0  0  0  0  0  0  0  0  0  0
  -30.6620   12.3890  -19.4290 N   0  0  0  0  0  0  0  0  0  0  0  0
  -32.2980   12.9560  -20.7620 O   0  0  0  0  0  0  0  0  0  0  0  0
  -28.2870   13.0570  -22.6120 O   0  0  0  0  0  0  0  0  0  0  0  0
  -29.3540   12.1670  -19.1850 C   0  0  0  0  0  0  0  0  0  0  0  0
  -28.9700   11.8040  -18.0930 O   0  0  0  0  0  0  0  0  0  0  0  0
  -31.5900   12.1930  -18.3950 C   0  0  0  0  0  0  0  0  0  0  0  0
  -32.2850   10.9950  -18.3010 C   0  0  0  0  0  0  0  0  0  0  0  0
  -33.1940   10.8030  -17.2790 C   0  0  0  0  0  0  0  0  0  0  0  0
  -33.4200   11.8090  -16.3550 C   0  0  0  0  0  0  0  0  0  0  0  0
  -34.5680   11.5680  -15.0760 Cl  0  0  0  0  0  0  0  0  0  0  0  0
  -32.7320   13.0060  -16.4490 C   0  0  0  0  0  0  0  0  0  0  0  0
  -31.8180   13.2000  -17.4660 C   0  0  0  0  0  0  0  0  0  0  0  0
  -26.2080   13.0560  -19.4020 C   0  0  0  0  0  0  0  0  0  0  0  0
  -27.3770   13.4320  -19.8860 C   0  0  0  0  0  0  0  0  0  0  0  0
  -27.7510   14.8030  -20.0160 N   0  0  0  0  0  0  0  0  0  0  0  0
  -27.7740   15.2640  -20.8850 H   0  0  0  0  0  0  0  0  0  0  0  0
  -28.1080   15.4900  -18.7270 C   0  0  0  0  0  0  0  0  0  0  0  0
  -29.6300   15.6370  -18.7040 C   0  0  0  0  0  0  0  0  0  0  0  0
  -30.0930   16.3500  -19.9770 C   0  0  0  0  0  0  0  0  0  0  0  0
  -31.3960   15.8860  -20.3360 O   0  0  0  0  0  0  0  0  0  0  0  0
  -31.8110   15.4610  -19.5670 H   0  0  0  0  0  0  0  0  0  0  0  0
  1 19  1  1  0  0  0
  1  9  1  0  0  0  0
  2  1  1  0  0  0  0
  3  2  1  0  0  0  0
  3  5  1  0  0  0  0
  4  3  1  0  0  0  0
  5  6  1  0  0  0  0
  6  9  1  0  0  0  0
  6 11  1  0  0  0  0
  7  5  2  0  0  0  0
  8  2  2  0  0  0  0
  9 10  2  0  0  0  0
 11 12  2  0  0  0  0
 11 17  1  0  0  0  0
 12 13  1  0  0  0  0
 13 14  2  0  0  0  0
 14 15  1  0  0  0  0
 16 14  1  0  0  0  0
 17 16  2  0  0  0  0
 19 18  1  0  0  0  0
 20 19  2  0  0  0  0
 20 22  1  0  0  0  0
 21 20  1  0  0  0  0
 22 23  1  0  0  0  0
 24 23  1  0  0  0  0
 25 24  1  0  0  0  0
 25 26  1  0  0  0  0
M  END
>  <MODEL>
1

>  <REMARK>
 VINA RESULT:      -6.5      0.000      0.000
  Name = ZINC05667259
                            x       y       z     vdW  Elec       q    Type
                         _______ _______ _______ _____ _____    ______ ____

>  <TORSDO>
F 7

>  <vina_score>
-6.5

$$$$
ZINC13165761
 OpenBabel01081721393D

 21 21  0  0  1  0  0  0  0  0999 V2000
  -30.4680   12.7560  -20.4240 N   0  0  0  0  0  0  0  0  0  0  0  0
  -31.2500   13.5550  -19.6650 C   0  0  0  0  0  0  0  0  0  0  0  0
  -32.7530   13.4220  -19.8390 C   0  0  1  0  0  0  0  0  0  0  0  0
  -33.2210   12.3990  -20.8550 C   0  0  0  0  0  0  0  0  0  0  0  0
  -32.2950   11.7000  -21.5110 N   0  0  0  0  0  0  0  0  0  0  0  0
  -34.4060   12.2200  -21.0640 O   0  0  0  0  0  0  0  0  0  0  0  0
  -30.7730   14.3480  -18.8820 O   0  0  0  0  0  0  0  0  0  0  0  0
  -31.0060   11.8680  -21.3080 C   0  0  0  0  0  0  0  0  0  0  0  0
  -29.9260   10.9030  -22.2210 S   0  0  0  0  0  0  0  0  0  0  0  0
  -33.3490   13.0580  -18.5040 C   0  0  0  0  0  0  0  0  0  0  0  0
  -32.8230   12.0340  -17.8690 N   0  0  0  0  0  0  0  0  0  0  0  0
  -32.0720   11.5410  -18.2690 H   0  0  0  0  0  0  0  0  0  0  0  0
  -33.3710   11.6180  -16.5320 C   0  0  0  0  0  0  0  0  0  0  0  0
  -33.7670   12.8770  -15.7570 C   0  0  0  0  0  0  0  0  0  0  0  0
  -34.7260   12.4990  -14.6270 C   0  0  0  0  0  0  0  0  0  0  0  0
  -34.6720   13.4950  -13.6040 O   0  0  0  0  0  0  0  0  0  0  0  0
  -35.4600   13.4270  -13.0440 H   0  0  0  0  0  0  0  0  0  0  0  0
  -29.0110   12.8460  -20.2940 C   0  0  2  0  0  0  0  0  0  0  0  0
  -28.6070   12.5140  -18.8560 C   0  0  0  0  0  0  0  0  0  0  0  0
  -27.5670   14.2140  -21.8060 C   0  0  0  0  0  0  0  0  0  0  0  0
  -28.5550   14.2650  -20.6380 C   0  0  0  0  0  0  0  0  0  0  0  0
  1 18  1  0  0  0  0
  1  2  1  0  0  0  0
  2  7  2  0  0  0  0
  3  2  1  0  0  0  0
  3 10  1  1  0  0  0
  4  3  1  0  0  0  0
  5  8  1  0  0  0  0
  5  4  1  0  0  0  0
  6  4  2  0  0  0  0
  8  1  1  0  0  0  0
  9  8  2  0  0  0  0
 10 11  1  0  0  0  0
 11 13  1  0  0  0  0
 12 11  1  0  0  0  0
 13 14  1  0  0  0  0
 14 15  1  0  0  0  0
 15 16  1  0  0  0  0
 16 17  1  0  0  0  0
 18 21  1  1  0  0  0
 18 19  1  0  0  0  0
 20 21  1  0  0  0  0
M  END
>  <MODEL>
1

>  <REMARK>
 VINA RESULT:      -6.5      0.000      0.000
  Name = ZINC13165761
                            x       y       z     vdW  Elec       q    Type
                         _______ _______ _______ _____ _____    ______ ____

>  <TORSDO>
F 7

>  <vina_score>
-6.5

$$$$
ZINC31220835
 OpenBabel01081721413D

 26 26  0  0  0  0  0  0  0  0999 V2000
  -29.5520   13.0200  -21.8160 N   0  0  0  0  0  0  0  0  0  0  0  0
  -30.0500   13.8670  -21.7590 H   0  0  0  0  0  0  0  0  0  0  0  0
  -30.2120   11.8470  -21.8110 C   0  0  0  0  0  0  0  0  0  0  0  0
  -29.5970   10.8030  -21.8750 O   0  0  0  0  0  0  0  0  0  0  0  0
  -28.0890   13.0370  -21.9050 C   0  0  0  0  0  0  0  0  0  0  0  0
  -27.5460   14.2570  -21.1590 C   0  0  0  0  0  0  0  0  0  0  0  0
  -28.5880   15.2830  -21.0750 N   0  0  0  0  0  0  0  0  0  0  0  0
  -28.1600   16.1620  -21.3640 H   0  0  0  0  0  0  0  0  0  0  0  0
  -29.3500   15.5730  -19.6330 S   0  0  0  0  0  0  0  0  0  0  0  0
  -30.3500   14.5680  -19.5430 O   0  0  0  0  0  0  0  0  0  0  0  0
  -29.7060   16.9480  -19.6810 O   0  0  0  0  0  0  0  0  0  0  0  0
  -28.5870   14.2940  -17.3390 C   0  0  0  0  0  0  0  0  0  0  0  0
  -28.0760   15.3020  -18.3710 C   0  0  0  0  0  0  0  0  0  0  0  0
  -31.7170   11.8290  -21.7190 C   0  0  0  0  0  0  0  0  0  0  0  0
  -32.1520   10.8220  -20.6520 C   0  0  0  0  0  0  0  0  0  0  0  0
  -32.4150   11.5450  -19.3560 C   0  0  0  0  0  0  0  0  0  0  0  0
  -33.5570   12.2410  -19.1810 C   0  0  0  0  0  0  0  0  0  0  0  0
  -34.5840   12.3020  -20.2820 C   0  0  0  0  0  0  0  0  0  0  0  0
  -33.7820   12.8870  -17.9960 N   0  0  0  0  0  0  0  0  0  0  0  0
  -34.6190   13.3900  -17.8640 H   0  0  0  0  0  0  0  0  0  0  0  0
  -32.8700   12.8430  -17.0080 C   0  0  0  0  0  0  0  0  0  0  0  0
  -31.7190   12.1610  -17.1580 N   0  0  0  0  0  0  0  0  0  0  0  0
  -31.0630   12.1380  -16.4250 H   0  0  0  0  0  0  0  0  0  0  0  0
  -33.0880   13.4280  -15.9640 O   0  0  0  0  0  0  0  0  0  0  0  0
  -31.4630   11.5070  -18.3090 C   0  0  0  0  0  0  0  0  0  0  0  0
  -30.4220   10.8890  -18.4450 O   0  0  0  0  0  0  0  0  0  0  0  0
  1  3  1  0  0  0  0
  1  2  1  0  0  0  0
  3 14  1  0  0  0  0
  4  3  2  0  0  0  0
  5  1  1  0  0  0  0
  5  6  1  0  0  0  0
  6  7  1  0  0  0  0
  7  9  1  0  0  0  0
  8  7  1  0  0  0  0
  9 10  2  0  0  0  0
  9 13  1  0  0  0  0
 11  9  2  0  0  0  0
 13 12  1  0  0  0  0
 14 15  1  0  0  0  0
 15 16  1  0  0  0  0
 16 17  2  0  0  0  0
 16 25  1  0  0  0  0
 17 19  1  0  0  0  0
 18 17  1  0  0  0  0
 19 20  1  0  0  0  0
 19 21  1  0  0  0  0
 21 24  2  0  0  0  0
 22 21  1  0  0  0  0
 22 23  1  0  0  0  0
 25 22  1  0  0  0  0
 26 25  2  0  0  0  0
M  END
>  <MODEL>
1

>  <REMARK>
 VINA RESULT:      -6.5      0.000      0.000
  Name = ZINC31220835
                            x       y       z     vdW  Elec       q    Type
                         _______ _______ _______ _____ _____    ______ ____

>  <TORSDO>
F 8

>  <vina_score>
-6.5

$$$$
ZINC01731877
 OpenBabel01081721413D

 22 22  0  0  0  0  0  0  0  0999 V2000
  -31.7150   14.2210  -19.4190 N   0  0  0  0  0  0  0  0  0  0  0  0
  -31.6880   13.9730  -18.4660 H   0  0  0  0  0  0  0  0  0  0  0  0
  -32.6750   13.6890  -20.2380 C   0  0  0  0  0  0  0  0  0  0  0  0
  -32.6780   14.0860  -21.4920 N   0  0  0  0  0  0  0  0  0  0  0  0
  -33.3490   13.7320  -22.1190 H   0  0  0  0  0  0  0  0  0  0  0  0
  -32.0090   14.7380  -21.8040 H   0  0  0  0  0  0  0  0  0  0  0  0
  -33.6670   12.6950  -19.6910 C   0  0  0  0  0  0  0  0  0  0  0  0
  -32.7800   11.2800  -18.9840 S   0  0  0  0  0  0  0  0  0  0  0  0
  -32.6120   11.7440  -16.9940 S   0  0  0  0  0  0  0  0  0  0  0  0
  -33.1870   13.1410  -16.8070 O   0  0  0  0  0  0  0  0  0  0  0  0
  -31.2220   11.8370  -16.7140 O   0  0  0  0  0  0  0  0  0  0  0  0
  -33.4720   10.8550  -16.2950 O   0  0  0  0  0  0  0  0  0  0  0  0
  -30.7270   15.1580  -19.9600 C   0  0  0  0  0  0  0  0  0  0  0  0
  -29.5710   15.3100  -18.9690 C   0  0  0  0  0  0  0  0  0  0  0  0
  -28.0910   14.3940  -20.7670 C   0  0  0  0  0  0  0  0  0  0  0  0
  -27.0240   13.6230  -21.1850 C   0  0  0  0  0  0  0  0  0  0  0  0
  -26.2670   12.9250  -20.2550 C   0  0  0  0  0  0  0  0  0  0  0  0
  -26.5860   13.0020  -18.9070 C   0  0  0  0  0  0  0  0  0  0  0  0
  -27.6540   13.7730  -18.4940 C   0  0  0  0  0  0  0  0  0  0  0  0
  -28.4060   14.4680  -19.4220 C   0  0  0  0  0  0  0  0  0  0  0  0
  -25.2160   12.1650  -20.6640 O   0  0  0  0  0  0  0  0  0  0  0  0
  -24.6570   11.7590  -20.0310 H   0  0  0  0  0  0  0  0  0  0  0  0
  1  2  1  0  0  0  0
  3  7  1  0  0  0  0
  3  1  1  0  0  0  0
  4  3  2  0  0  0  0
  5  4  1  0  0  0  0
  6  4  1  0  0  0  0
  7  8  1  0  0  0  0
  8  9  1  0  0  0  0
  9 10  2  0  0  0  0
  9 11  2  0  0  0  0
  9 12  1  0  0  0  0
 13  1  1  0  0  0  0
 13 14  1  0  0  0  0
 15 20  1  0  0  0  0
 16 15  2  0  0  0  0
 16 17  1  0  0  0  0
 17 18  2  0  0  0  0
 18 19  1  0  0  0  0
 20 14  1  0  0  0  0
 20 19  2  0  0  0  0
 21 17  1  0  0  0  0
 21 22  1  0  0  0  0
M  END
>  <MODEL>
1

>  <REMARK>
 VINA RESULT:      -6.5      0.000      0.000
  Name = ZINC01731877
                            x       y       z     vdW  Elec       q    Type
                         _______ _______ _______ _____ _____    ______ ____

>  <TORSDO>
F 8

>  <vina_score>
-6.5

$$$$
ZINC06380326
 OpenBabel01081721463D

 28 29  0  0  1  0  0  0  0  0999 V2000
  -33.0320   12.7880  -20.2960 C   0  0  2  0  0  0  0  0  0  0  0  0
  -32.0690   13.9760  -20.3620 C   0  0  2  0  0  0  0  0  0  0  0  0
  -30.9050   13.7340  -19.3940 C   0  0  2  0  0  0  0  0  0  0  0  0
  -31.4650   13.5170  -17.9850 C   0  0  1  0  0  0  0  0  0  0  0  0
  -32.4510   12.3460  -18.0120 C   0  0  2  0  0  0  0  0  0  0  0  0
  -33.4910   12.6220  -18.9530 O   0  0  0  0  0  0  0  0  0  0  0  0
  -31.5860   11.7670  -21.9120 C   0  0  0  0  0  0  0  0  0  0  0  0
  -32.3560   11.6030  -20.7190 O   0  0  0  0  0  0  0  0  0  0  0  0
  -32.7580   15.1710  -19.9910 O   0  0  0  0  0  0  0  0  0  0  0  0
  -32.9570   15.1480  -19.0420 H   0  0  0  0  0  0  0  0  0  0  0  0
  -30.3930   13.2190  -17.0880 O   0  0  0  0  0  0  0  0  0  0  0  0
  -29.9990   12.3650  -17.3260 H   0  0  0  0  0  0  0  0  0  0  0  0
  -30.0400   14.8710  -19.3950 O   0  0  0  0  0  0  0  0  0  0  0  0
  -28.7110   14.5890  -19.8380 C   0  0  1  0  0  0  0  0  0  0  0  0
  -27.8960   14.0140  -18.6760 C   0  0  1  0  0  0  0  0  0  0  0  0
  -26.4920   13.6590  -19.1730 C   0  0  2  0  0  0  0  0  0  0  0  0
  -26.6090   12.6780  -20.3430 C   0  0  1  0  0  0  0  0  0  0  0  0
  -27.4730   13.3040  -21.4400 C   0  0  0  0  0  0  0  0  0  0  0  0
  -28.7540   13.6390  -20.9040 O   0  0  0  0  0  0  0  0  0  0  0  0
  -27.8020   14.9850  -17.6320 O   0  0  0  0  0  0  0  0  0  0  0  0
  -27.9630   15.8690  -17.9970 H   0  0  0  0  0  0  0  0  0  0  0  0
  -25.7480   13.0530  -18.1130 O   0  0  0  0  0  0  0  0  0  0  0  0
  -24.9340   12.6650  -18.4710 H   0  0  0  0  0  0  0  0  0  0  0  0
  -25.3070   12.3950  -20.8610 O   0  0  0  0  0  0  0  0  0  0  0  0
  -25.3630   12.2600  -21.8190 H   0  0  0  0  0  0  0  0  0  0  0  0
  -33.0590   12.1610  -16.6200 C   0  0  0  0  0  0  0  0  0  0  0  0
  -33.1150   13.4240  -15.9540 O   0  0  0  0  0  0  0  0  0  0  0  0
  -32.6860   13.3520  -15.0870 H   0  0  0  0  0  0  0  0  0  0  0  0
  1  8  1  1  0  0  0
  1  6  1  0  0  0  0
  2  1  1  0  0  0  0
  2  9  1  1  0  0  0
  2  3  1  0  0  0  0
  3 13  1  1  0  0  0
  3  4  1  0  0  0  0
  4 11  1  1  0  0  0
  5  4  1  0  0  0  0
  5 26  1  1  0  0  0
  6  5  1  0  0  0  0
  7  8  1  0  0  0  0
  9 10  1  0  0  0  0
 12 11  1  0  0  0  0
 14 13  1  1  0  0  0
 14 15  1  0  0  0  0
 15 20  1  1  0  0  0
 16 15  1  0  0  0  0
 16 22  1  1  0  0  0
 17 24  1  6  0  0  0
 17 16  1  0  0  0  0
 18 19  1  0  0  0  0
 18 17  1  0  0  0  0
 19 14  1  0  0  0  0
 21 20  1  0  0  0  0
 23 22  1  0  0  0  0
 25 24  1  0  0  0  0
 26 27  1  0  0  0  0
 27 28  1  0  0  0  0
M  END
>  <MODEL>
1

>  <REMARK>
 VINA RESULT:      -6.5      0.000      0.000
  Name = ZINC06380326
                            x       y       z     vdW  Elec       q    Type
                         _______ _______ _______ _____ _____    ______ ____

>  <TORSDO>
F 10

>  <vina_score>
-6.5

$$$$
ZINC31687708
 OpenBabel01081721473D

 24 24  0  0  0  0  0  0  0  0999 V2000
  -29.3240   14.2270  -20.7010 N   0  0  0  0  0  0  0  0  0  0  0  0
  -29.3310   15.2110  -20.6970 H   0  0  0  0  0  0  0  0  0  0  0  0
  -29.5300   14.1710  -17.9150 C   0  0  0  0  0  0  0  0  0  0  0  0
  -30.4910   13.4880  -18.7830 N   0  0  0  0  0  0  0  0  0  0  0  0
  -30.3430   13.5470  -20.1560 C   0  0  0  0  0  0  0  0  0  0  0  0
  -31.2650   12.8920  -20.9630 C   0  0  0  0  0  0  0  0  0  0  0  0
  -32.3150   12.1940  -20.3580 C   0  0  0  0  0  0  0  0  0  0  0  0
  -32.4140   12.1680  -19.0150 N   0  0  0  0  0  0  0  0  0  0  0  0
  -33.5170   11.4350  -18.3870 C   0  0  0  0  0  0  0  0  0  0  0  0
  -33.1380   11.6110  -21.0440 O   0  0  0  0  0  0  0  0  0  0  0  0
  -31.5200   12.8080  -18.2430 C   0  0  0  0  0  0  0  0  0  0  0  0
  -31.6390   12.7690  -17.0340 O   0  0  0  0  0  0  0  0  0  0  0  0
  -28.3050   13.5720  -21.2470 C   0  0  0  0  0  0  0  0  0  0  0  0
  -28.1910   13.4930  -22.6130 N   0  0  0  0  0  0  0  0  0  0  0  0
  -27.4360   13.0070  -23.0170 H   0  0  0  0  0  0  0  0  0  0  0  0
  -28.8640   13.9230  -23.1880 H   0  0  0  0  0  0  0  0  0  0  0  0
  -27.3890   12.9860  -20.4640 N   0  0  0  0  0  0  0  0  0  0  0  0
  -26.2300   13.5860  -20.2380 C   0  0  0  0  0  0  0  0  0  0  0  0
  -25.2550   12.9420  -19.5340 N   0  0  0  0  0  0  0  0  0  0  0  0
  -25.2820   12.9360  -18.5500 H   0  0  0  0  0  0  0  0  0  0  0  0
  -24.5240   12.4850  -20.0100 H   0  0  0  0  0  0  0  0  0  0  0  0
  -26.0110   14.8470  -20.7100 N   0  0  0  0  0  0  0  0  0  0  0  0
  -25.4940   15.4900  -20.1730 H   0  0  0  0  0  0  0  0  0  0  0  0
  -26.3710   15.1150  -21.5860 H   0  0  0  0  0  0  0  0  0  0  0  0
  1  2  1  0  0  0  0
  1  5  1  0  0  0  0
  4 11  1  0  0  0  0
  4  3  1  0  0  0  0
  5  4  1  0  0  0  0
  6  7  1  0  0  0  0
  6  5  2  0  0  0  0
  7  8  1  0  0  0  0
  8  9  1  0  0  0  0
  8 11  1  0  0  0  0
 10  7  2  0  0  0  0
 11 12  2  0  0  0  0
 13  1  1  0  0  0  0
 13 17  2  0  0  0  0
 14 13  1  0  0  0  0
 15 14  1  0  0  0  0
 16 14  1  0  0  0  0
 17 18  2  0  0  0  0
 18 19  1  0  0  0  0
 19 20  1  0  0  0  0
 21 19  1  0  0  0  0
 22 18  1  0  0  0  0
 22 23  1  0  0  0  0
 24 22  1  0  0  0  0
M  END
>  <MODEL>
1

>  <REMARK>
 VINA RESULT:      -6.4      0.000      0.000
  Name = ZINC31687708
                            x       y       z     vdW  Elec       q    Type
                         _______ _______ _______ _____ _____    ______ ____

>  <TORSDO>
F 5

>  <vina_score>
-6.4

$$$$
ZINC05114471
 OpenBabel01081721493D

 28 28  0  0  1  0  0  0  0  0999 V2000
  -28.4580   13.1340  -20.4080 C   0  0  1  0  0  0  0  0  0  0  0  0
  -27.8860   13.3250  -21.7890 C   0  0  0  0  0  0  0  0  0  0  0  0
  -27.7470   12.2660  -22.6110 N   0  0  0  0  0  0  0  0  0  0  0  0
  -27.3730   12.3890  -23.5140 H   0  0  0  0  0  0  0  0  0  0  0  0
  -28.0190   11.3690  -22.3100 H   0  0  0  0  0  0  0  0  0  0  0  0
  -27.5490   14.4280  -22.1590 O   0  0  0  0  0  0  0  0  0  0  0  0
  -29.1450   11.8300  -20.3350 N   0  0  0  0  0  0  0  0  0  0  0  0
  -28.9030   11.2820  -21.1600 H   0  0  0  0  0  0  0  0  0  0  0  0
  -28.8490   11.3400  -19.4910 H   0  0  0  0  0  0  0  0  0  0  0  0
  -30.6070   12.0220  -20.2990 C   0  0  2  0  0  0  0  0  0  0  0  0
  -31.1540   11.9840  -21.7040 C   0  0  0  0  0  0  0  0  0  0  0  0
  -32.2590   12.6790  -22.0120 O   0  0  0  0  0  0  0  0  0  0  0  0
  -30.5960   11.3260  -22.5510 O   0  0  0  0  0  0  0  0  0  0  0  0
  -30.9210   13.3790  -19.6670 C   0  0  0  0  0  0  0  0  0  0  0  0
  -31.9050   13.1920  -18.5410 C   0  0  0  0  0  0  0  0  0  0  0  0
  -33.2480   13.2480  -18.6300 C   0  0  0  0  0  0  0  0  0  0  0  0
  -33.7550   13.0260  -17.4090 N   0  0  0  0  0  0  0  0  0  0  0  0
  -32.7780   12.8360  -16.5650 C   0  0  0  0  0  0  0  0  0  0  0  0
  -31.6070   12.9250  -17.2320 N   0  0  0  0  0  0  0  0  0  0  0  0
  -30.7060   12.8190  -16.8480 H   0  0  0  0  0  0  0  0  0  0  0  0
  -27.3270   13.1630  -19.3780 C   0  0  1  0  0  0  0  0  0  0  0  0
  -26.0420   13.3150  -20.0830 N   0  0  0  0  0  0  0  0  0  0  0  0
  -26.0950   12.8530  -20.9900 H   0  0  0  0  0  0  0  0  0  0  0  0
  -25.8430   14.3070  -20.2170 H   0  0  0  0  0  0  0  0  0  0  0  0
  -25.2980   12.8920  -19.5290 H   0  0  0  0  0  0  0  0  0  0  0  0
  -28.2680   13.8250  -17.1600 C   0  0  0  0  0  0  0  0  0  0  0  0
  -27.5470   14.3290  -18.4120 C   0  0  0  0  0  0  0  0  0  0  0  0
  -28.3980   15.4030  -19.0930 C   0  0  0  0  0  0  0  0  0  0  0  0
  1  2  1  6  0  0  0
  1  7  1  0  0  0  0
  1 21  1  0  0  0  0
  3  5  1  0  0  0  0
  3  2  1  0  0  0  0
  4  3  1  0  0  0  0
  6  2  2  0  0  0  0
  7 10  1  0  0  0  0
  7  9  1  0  0  0  0
  8  7  1  0  0  0  0
 10 11  1  6  0  0  0
 10 14  1  0  0  0  0
 12 11  1  0  0  0  0
 13 11  2  0  0  0  0
 14 15  1  0  0  0  0
 15 19  1  0  0  0  0
 16 15  2  0  0  0  0
 16 17  1  0  0  0  0
 17 18  2  0  0  0  0
 19 20  1  0  0  0  0
 19 18  1  0  0  0  0
 21 22  1  6  0  0  0
 21 27  1  0  0  0  0
 22 25  1  0  0  0  0
 23 22  1  0  0  0  0
 24 22  1  0  0  0  0
 27 26  1  0  0  0  0
 28 27  1  0  0  0  0
M  END
>  <MODEL>
1

>  <REMARK>
 VINA RESULT:      -6.4      0.000      0.000
  Name = ZINC05114471
                            x       y       z     vdW  Elec       q    Type
                         _______ _______ _______ _____ _____    ______ ____

>  <TORSDO>
F 9

>  <vina_score>
-6.4

$$$$
ZINC21991926
 OpenBabel01081721513D

 29 29  0  0  1  0  0  0  0  0999 V2000
  -30.2550   13.0130  -21.4350 N   0  0  0  0  0  0  0  0  0  0  0  0
  -29.9680   13.9360  -21.2480 H   0  0  0  0  0  0  0  0  0  0  0  0
  -29.3160   12.0340  -21.6550 C   0  0  0  0  0  0  0  0  0  0  0  0
  -31.8680   12.6400  -21.4830 S   0  0  0  0  0  0  0  0  0  0  0  0
  -31.9820   11.4210  -22.2040 O   0  0  0  0  0  0  0  0  0  0  0  0
  -32.5460   13.8250  -21.8780 O   0  0  0  0  0  0  0  0  0  0  0  0
  -33.5960   11.4710  -15.8210 C   0  0  0  0  0  0  0  0  0  0  0  0
  -33.1640   11.7640  -17.2360 C   0  0  0  0  0  0  0  0  0  0  0  0
  -32.4860   10.8030  -17.9640 C   0  0  0  0  0  0  0  0  0  0  0  0
  -32.0910   11.0710  -19.2600 C   0  0  0  0  0  0  0  0  0  0  0  0
  -32.3730   12.2980  -19.8300 C   0  0  0  0  0  0  0  0  0  0  0  0
  -33.0460   13.2610  -19.1000 C   0  0  0  0  0  0  0  0  0  0  0  0
  -33.4460   12.9910  -17.8040 C   0  0  0  0  0  0  0  0  0  0  0  0
  -29.6960   10.8110  -21.9020 N   0  0  0  0  0  0  0  0  0  0  0  0
  -29.2480   10.2900  -22.6070 H   0  0  0  0  0  0  0  0  0  0  0  0
  -30.4290   10.4090  -21.3830 H   0  0  0  0  0  0  0  0  0  0  0  0
  -27.9770   12.3420  -21.6150 N   0  0  0  0  0  0  0  0  0  0  0  0
  -27.3150   11.6360  -21.4400 H   0  0  0  0  0  0  0  0  0  0  0  0
  -27.5370   13.7240  -21.8290 C   0  0  0  0  0  0  0  0  0  0  0  0
  -26.6710   14.1730  -20.6510 C   0  0  0  0  0  0  0  0  0  0  0  0
  -27.5470   14.8760  -19.6120 C   0  0  0  0  0  0  0  0  0  0  0  0
  -27.5280   14.0800  -18.3060 C   0  0  2  0  0  0  0  0  0  0  0  0
  -26.4240   13.1110  -18.3380 N   0  0  0  0  0  0  0  0  0  0  0  0
  -25.9860   13.1240  -19.2590 H   0  0  0  0  0  0  0  0  0  0  0  0
  -25.7340   13.3580  -17.6280 H   0  0  0  0  0  0  0  0  0  0  0  0
  -26.7870   12.1760  -18.1480 H   0  0  0  0  0  0  0  0  0  0  0  0
  -28.8350   13.3480  -18.1450 C   0  0  0  0  0  0  0  0  0  0  0  0
  -28.9210   12.0490  -18.4730 O   0  0  0  0  0  0  0  0  0  0  0  0
  -29.8060   13.9290  -17.7220 O   0  0  0  0  0  0  0  0  0  0  0  0
  1  2  1  0  0  0  0
  3 17  1  0  0  0  0
  3  1  1  0  0  0  0
  4  1  1  0  0  0  0
  4 11  1  0  0  0  0
  5  4  2  0  0  0  0
  6  4  2  0  0  0  0
  8  7  1  0  0  0  0
  9  8  2  0  0  0  0
 10  9  1  0  0  0  0
 11 10  2  0  0  0  0
 11 12  1  0  0  0  0
 12 13  2  0  0  0  0
 13  8  1  0  0  0  0
 14  3  2  0  0  0  0
 14 16  1  0  0  0  0
 15 14  1  0  0  0  0
 17 18  1  0  0  0  0
 19 17  1  0  0  0  0
 19 20  1  0  0  0  0
 20 21  1  0  0  0  0
 22 21  1  6  0  0  0
 22 27  1  0  0  0  0
 23 22  1  0  0  0  0
 23 26  1  0  0  0  0
 23 25  1  0  0  0  0
 24 23  1  0  0  0  0
 27 29  1  0  0  0  0
 28 27  2  0  0  0  0
M  END
>  <MODEL>
1

>  <REMARK>
 VINA RESULT:      -6.4      0.000      0.000
  Name = ZINC21991926
                            x       y       z     vdW  Elec       q    Type
                         _______ _______ _______ _____ _____    ______ ____

>  <TORSDO>
F 10

>  <vina_score>
-6.4

$$$$
ZINC31792221
 OpenBabel01081721523D

 22 23  0  0  0  0  0  0  0  0999 V2000
  -28.3900   14.9350  -16.9920 C   0  0  0  0  0  0  0  0  0  0  0  0
  -28.9560   14.4920  -18.3170 C   0  0  0  0  0  0  0  0  0  0  0  0
  -28.2410   13.6900  -19.1430 C   0  0  0  0  0  0  0  0  0  0  0  0
  -29.3860   13.5060  -20.5020 S   0  0  0  0  0  0  0  0  0  0  0  0
  -30.6620   14.4930  -19.8570 C   0  0  0  0  0  0  0  0  0  0  0  0
  -30.1570   14.8810  -18.7020 N   0  0  0  0  0  0  0  0  0  0  0  0
  -26.8620   13.1090  -18.9610 C   0  0  0  0  0  0  0  0  0  0  0  0
  -26.0240   13.4180  -20.1750 C   0  0  0  0  0  0  0  0  0  0  0  0
  -26.0660   14.6470  -20.7280 N   0  0  0  0  0  0  0  0  0  0  0  0
  -25.5180   14.8480  -21.5210 H   0  0  0  0  0  0  0  0  0  0  0  0
  -26.6430   15.3420  -20.3390 H   0  0  0  0  0  0  0  0  0  0  0  0
  -25.3120   12.5610  -20.6540 O   0  0  0  0  0  0  0  0  0  0  0  0
  -32.2300   14.8760  -20.5650 S   0  0  0  0  0  0  0  0  0  0  0  0
  -32.7360   13.2270  -21.1160 C   0  0  0  0  0  0  0  0  0  0  0  0
  -33.6510   12.5980  -20.0650 C   0  0  0  0  0  0  0  0  0  0  0  0
  -32.8550   12.2000  -18.9010 N   0  0  0  0  0  0  0  0  0  0  0  0
  -33.0700   12.6470  -17.6470 C   0  0  0  0  0  0  0  0  0  0  0  0
  -32.0200   11.9750  -16.7860 C   0  0  0  0  0  0  0  0  0  0  0  0
  -31.2630   11.1490  -17.7440 N   0  0  0  0  0  0  0  0  0  0  0  0
  -33.9260   13.4250  -17.2850 O   0  0  0  0  0  0  0  0  0  0  0  0
  -31.8290   11.3440  -18.9490 C   0  0  0  0  0  0  0  0  0  0  0  0
  -31.4460   10.8040  -19.9700 O   0  0  0  0  0  0  0  0  0  0  0  0
  2  1  1  0  0  0  0
  3  7  1  0  0  0  0
  3  2  2  0  0  0  0
  4  5  1  0  0  0  0
  4  3  1  0  0  0  0
  5  6  2  0  0  0  0
  6  2  1  0  0  0  0
  8  7  1  0  0  0  0
  9 11  1  0  0  0  0
  9  8  1  0  0  0  0
 10  9  1  0  0  0  0
 12  8  2  0  0  0  0
 13  5  1  0  0  0  0
 14 13  1  0  0  0  0
 14 15  1  0  0  0  0
 15 16  1  0  0  0  0
 16 17  1  0  0  0  0
 17 20  2  0  0  0  0
 17 18  1  0  0  0  0
 19 18  2  0  0  0  0
 21 16  1  0  0  0  0
 21 19  1  0  0  0  0
 22 21  2  0  0  0  0
M  END
>  <MODEL>
1

>  <REMARK>
 VINA RESULT:      -6.4      0.000      0.000
  Name = ZINC31792221
                            x       y       z     vdW  Elec       q    Type
                         _______ _______ _______ _____ _____    ______ ____

>  <TORSDO>
F 6

>  <vina_score>
-6.4

$$$$
ZINC04535649
 OpenBabel01081721563D

 27 28  0  0  1  0  0  0  0  0999 V2000
  -29.3360   16.4150  -18.8850 C   0  0  0  0  0  0  0  0  0  0  0  0
  -30.5050   16.1430  -19.7960 C   0  0  0  0  0  0  0  0  0  0  0  0
  -30.9990   14.8240  -19.9380 C   0  0  0  0  0  0  0  0  0  0  0  0
  -32.0990   14.4430  -20.6330 C   0  0  0  0  0  0  0  0  0  0  0  0
  -32.9210   15.2710  -21.3150 O   0  0  0  0  0  0  0  0  0  0  0  0
  -32.2570   12.9760  -20.5230 C   0  0  0  0  0  0  0  0  0  0  0  0
  -31.2670   12.4620  -19.7710 N   0  0  0  0  0  0  0  0  0  0  0  0
  -33.1480   12.3300  -21.0380 O   0  0  0  0  0  0  0  0  0  0  0  0
  -30.4020   13.5700  -19.3450 C   0  0  1  0  0  0  0  0  0  0  0  0
  -31.0230   17.0540  -20.4080 O   0  0  0  0  0  0  0  0  0  0  0  0
  -29.0030   13.3640  -19.8670 C   0  0  0  0  0  0  0  0  0  0  0  0
  -28.7520   13.4480  -21.2230 C   0  0  0  0  0  0  0  0  0  0  0  0
  -27.4690   13.2610  -21.7030 C   0  0  0  0  0  0  0  0  0  0  0  0
  -26.4340   12.9890  -20.8270 C   0  0  0  0  0  0  0  0  0  0  0  0
  -26.6800   12.9040  -19.4710 C   0  0  0  0  0  0  0  0  0  0  0  0
  -27.9660   13.0910  -18.9870 C   0  0  0  0  0  0  0  0  0  0  0  0
  -28.2100   13.0080  -17.6530 O   0  0  0  0  0  0  0  0  0  0  0  0
  -28.1260   14.2190  -16.9010 C   0  0  0  0  0  0  0  0  0  0  0  0
  -31.0830   11.0480  -19.4380 C   0  0  0  0  0  0  0  0  0  0  0  0
  -31.5170   10.8040  -17.9910 C   0  0  0  0  0  0  0  0  0  0  0  0
  -32.9870   10.8770  -17.9070 N   0  0  0  0  0  0  0  0  0  0  0  0
  -33.3280   11.5280  -18.6140 H   0  0  0  0  0  0  0  0  0  0  0  0
  -33.3790    9.9490  -18.0680 H   0  0  0  0  0  0  0  0  0  0  0  0
  -33.4020   11.3560  -16.5750 C   0  0  0  0  0  0  0  0  0  0  0  0
  -33.2410   12.8750  -16.5150 C   0  0  0  0  0  0  0  0  0  0  0  0
  -34.0050   13.4770  -17.5630 O   0  0  0  0  0  0  0  0  0  0  0  0
  -33.8370   13.0080  -18.3950 H   0  0  0  0  0  0  0  0  0  0  0  0
  2  1  1  0  0  0  0
  3  2  1  0  0  0  0
  3  9  1  0  0  0  0
  4  6  1  0  0  0  0
  4  3  2  0  0  0  0
  5  4  1  0  0  0  0
  6  7  1  0  0  0  0
  7 19  1  0  0  0  0
  7  9  1  0  0  0  0
  8  6  2  0  0  0  0
  9 11  1  6  0  0  0
 10  2  2  0  0  0  0
 11 16  2  0  0  0  0
 12 11  1  0  0  0  0
 13 12  2  0  0  0  0
 13 14  1  0  0  0  0
 14 15  2  0  0  0  0
 15 16  1  0  0  0  0
 16 17  1  0  0  0  0
 17 18  1  0  0  0  0
 19 20  1  0  0  0  0
 20 21  1  0  0  0  0
 21 24  1  0  0  0  0
 22 21  1  0  0  0  0
 23 21  1  0  0  0  0
 24 25  1  0  0  0  0
 26 25  1  0  0  0  0
 27 26  1  0  0  0  0
M  END
>  <MODEL>
1

>  <REMARK>
 VINA RESULT:      -6.4      0.000      0.000
  Name = ZINC04535649
                            x       y       z     vdW  Elec       q    Type
                         _______ _______ _______ _____ _____    ______ ____

>  <TORSDO>
F 8

>  <vina_score>
-6.4

$$$$
ZINC14116594
 OpenBabel01081721553D

 26 27  0  0  1  0  0  0  0  0999 V2000
  -29.0260   12.0740  -21.4220 C   0  0  0  0  0  0  0  0  0  0  0  0
  -30.0110   11.6110  -22.2170 N   0  0  0  0  0  0  0  0  0  0  0  0
  -29.9440   11.7130  -23.1940 H   0  0  0  0  0  0  0  0  0  0  0  0
  -29.1090   11.9480  -20.2190 O   0  0  0  0  0  0  0  0  0  0  0  0
  -31.1310   10.9850  -21.6540 N   0  0  0  0  0  0  0  0  0  0  0  0
  -31.0770   10.0440  -21.3680 H   0  0  0  0  0  0  0  0  0  0  0  0
  -32.2810   11.6700  -21.5030 C   0  0  0  0  0  0  0  0  0  0  0  0
  -32.3470   12.8290  -21.8550 O   0  0  0  0  0  0  0  0  0  0  0  0
  -33.4860   10.9960  -20.8970 C   0  0  0  0  0  0  0  0  0  0  0  0
  -33.4790   11.2070  -19.3820 C   0  0  2  0  0  0  0  0  0  0  0  0
  -33.7160   12.6930  -19.0620 C   0  0  0  0  0  0  0  0  0  0  0  0
  -33.3960   12.9710  -17.5740 C   0  0  0  0  0  0  0  0  0  0  0  0
  -32.1300   11.6920  -17.1880 S   0  0  0  0  0  0  0  0  0  0  0  0
  -30.8770   12.3290  -16.9810 O   0  0  0  0  0  0  0  0  0  0  0  0
  -32.6440   10.8200  -16.1910 O   0  0  0  0  0  0  0  0  0  0  0  0
  -32.0930   10.8030  -18.8010 C   0  0  0  0  0  0  0  0  0  0  0  0
  -27.8220   12.7470  -22.0280 C   0  0  0  0  0  0  0  0  0  0  0  0
  -26.7900   13.4370  -20.7110 S   0  0  0  0  0  0  0  0  0  0  0  0
  -29.5680   15.9930  -19.7300 C   0  0  0  0  0  0  0  0  0  0  0  0
  -29.0070   15.1420  -20.6410 N   0  0  0  0  0  0  0  0  0  0  0  0
  -29.3230   14.9570  -21.5550 H   0  0  0  0  0  0  0  0  0  0  0  0
  -27.9150   14.6050  -20.0220 C   0  0  0  0  0  0  0  0  0  0  0  0
  -27.8660   15.1190  -18.8160 N   0  0  0  0  0  0  0  0  0  0  0  0
  -28.8420   15.9370  -18.6490 N   0  0  0  0  0  0  0  0  0  0  0  0
  -31.9800   15.9300  -20.3030 C   0  0  0  0  0  0  0  0  0  0  0  0
  -30.8020   16.8340  -19.9340 C   0  0  0  0  0  0  0  0  0  0  0  0
  1  4  2  0  0  0  0
  2  5  1  0  0  0  0
  2  1  1  0  0  0  0
  3  2  1  0  0  0  0
  5  7  1  0  0  0  0
  5  6  1  0  0  0  0
  7  9  1  0  0  0  0
  8  7  2  0  0  0  0
 10  9  1  6  0  0  0
 10 11  1  0  0  0  0
 10 16  1  0  0  0  0
 11 12  1  0  0  0  0
 12 13  1  0  0  0  0
 13 14  2  0  0  0  0
 13 15  2  0  0  0  0
 16 13  1  0  0  0  0
 17  1  1  0  0  0  0
 17 18  1  0  0  0  0
 18 22  1  0  0  0  0
 19 24  2  0  0  0  0
 20 22  1  0  0  0  0
 20 19  1  0  0  0  0
 21 20  1  0  0  0  0
 22 23  2  0  0  0  0
 23 24  1  0  0  0  0
 25 26  1  0  0  0  0
 26 19  1  0  0  0  0
M  END
>  <MODEL>
1

>  <REMARK>
 VINA RESULT:      -6.4      0.000      0.000
  Name = ZINC14116594
                            x       y       z     vdW  Elec       q    Type
                         _______ _______ _______ _____ _____    ______ ____

>  <TORSDO>
F 7

>  <vina_score>
-6.4

$$$$
ZINC24983928
 OpenBabel01081721573D

 27 28  0  0  0  0  0  0  0  0999 V2000
  -28.3390   12.6610  -21.6940 C   0  0  0  0  0  0  0  0  0  0  0  0
  -27.4520   12.3250  -20.7370 N   0  0  0  0  0  0  0  0  0  0  0  0
  -27.6990   11.6720  -20.0430 H   0  0  0  0  0  0  0  0  0  0  0  0
  -28.0340   13.4670  -22.5520 O   0  0  0  0  0  0  0  0  0  0  0  0
  -31.7530   11.6030  -21.1630 C   0  0  0  0  0  0  0  0  0  0  0  0
  -31.4400   10.8030  -22.2070 C   0  0  0  0  0  0  0  0  0  0  0  0
  -30.1120   11.0880  -22.5610 C   0  0  0  0  0  0  0  0  0  0  0  0
  -29.6740   12.0530  -21.7000 C   0  0  0  0  0  0  0  0  0  0  0  0
  -30.6870   12.3540  -20.8610 O   0  0  0  0  0  0  0  0  0  0  0  0
  -33.3090   11.6490  -20.3360 S   0  0  0  0  0  0  0  0  0  0  0  0
  -33.1420   10.9380  -19.1170 O   0  0  0  0  0  0  0  0  0  0  0  0
  -34.2910   11.2920  -21.2990 O   0  0  0  0  0  0  0  0  0  0  0  0
  -32.7780   14.2970  -20.5020 C   0  0  0  0  0  0  0  0  0  0  0  0
  -33.5990   13.2280  -19.9270 N   0  0  0  0  0  0  0  0  0  0  0  0
  -34.5650   13.4260  -20.1880 H   0  0  0  0  0  0  0  0  0  0  0  0
  -26.1180   12.9320  -20.7300 C   0  0  0  0  0  0  0  0  0  0  0  0
  -26.2520   14.4560  -20.7620 C   0  0  0  0  0  0  0  0  0  0  0  0
  -26.6330   14.9400  -19.4330 N   0  0  0  0  0  0  0  0  0  0  0  0
  -26.0250   15.5280  -18.9290 H   0  0  0  0  0  0  0  0  0  0  0  0
  -27.8510   14.5710  -18.8840 C   0  0  0  0  0  0  0  0  0  0  0  0
  -29.0010   15.2840  -19.2210 C   0  0  0  0  0  0  0  0  0  0  0  0
  -30.2020   14.9180  -18.6770 C   0  0  0  0  0  0  0  0  0  0  0  0
  -30.2330   13.8290  -17.7930 C   0  0  0  0  0  0  0  0  0  0  0  0
  -29.0420   13.1630  -17.4960 C   0  0  0  0  0  0  0  0  0  0  0  0
  -27.9080   13.5450  -18.0460 N   0  0  0  0  0  0  0  0  0  0  0  0
  -31.4660   13.4100  -17.1990 C   0  0  0  0  0  0  0  0  0  0  0  0
  -32.4450   13.0770  -16.7280 N   0  0  0  0  0  0  0  0  0  0  0  0
  1  2  1  0  0  0  0
  2 16  1  0  0  0  0
  2  3  1  0  0  0  0
  4  1  2  0  0  0  0
  5  9  1  0  0  0  0
  5 10  1  0  0  0  0
  6  5  2  0  0  0  0
  7  6  1  0  0  0  0
  7  8  2  0  0  0  0
  8  1  1  0  0  0  0
  8  9  1  0  0  0  0
 10 14  1  0  0  0  0
 10 11  2  0  0  0  0
 12 10  2  0  0  0  0
 13 14  1  0  0  0  0
 15 14  1  0  0  0  0
 17 16  1  0  0  0  0
 17 18  1  0  0  0  0
 18 19  1  0  0  0  0
 18 20  1  0  0  0  0
 20 25  1  0  0  0  0
 21 20  2  0  0  0  0
 21 22  1  0  0  0  0
 22 23  2  0  0  0  0
 23 24  1  0  0  0  0
 23 26  1  0  0  0  0
 25 24  2  0  0  0  0
 26 27  3  0  0  0  0
M  END
>  <MODEL>
1

>  <REMARK>
 VINA RESULT:      -6.4      0.000      0.000
  Name = ZINC24983928
                            x       y       z     vdW  Elec       q    Type
                         _______ _______ _______ _____ _____    ______ ____

>  <TORSDO>
F 8

>  <vina_score>
-6.4

$$$$
ZINC28996368
 OpenBabel01081721593D

 26 27  0  0  0  0  0  0  0  0999 V2000
  -32.6620   11.7200  -20.6050 N   0  0  0  0  0  0  0  0  0  0  0  0
  -33.0830   11.3670  -19.7880 H   0  0  0  0  0  0  0  0  0  0  0  0
  -32.6540   13.0470  -20.8390 C   0  0  0  0  0  0  0  0  0  0  0  0
  -33.2210   13.8910  -19.9540 N   0  0  0  0  0  0  0  0  0  0  0  0
  -33.2160   14.8600  -20.1250 H   0  0  0  0  0  0  0  0  0  0  0  0
  -32.1350   13.4830  -21.8480 O   0  0  0  0  0  0  0  0  0  0  0  0
  -33.8200   13.3890  -18.7910 N   0  0  0  0  0  0  0  0  0  0  0  0
  -34.7850   13.1920  -18.7800 H   0  0  0  0  0  0  0  0  0  0  0  0
  -33.0760   13.1740  -17.6880 C   0  0  0  0  0  0  0  0  0  0  0  0
  -31.8850   13.4160  -17.7030 O   0  0  0  0  0  0  0  0  0  0  0  0
  -33.7090   12.6420  -16.4600 C   0  0  0  0  0  0  0  0  0  0  0  0
  -33.6840   11.2730  -16.1960 C   0  0  0  0  0  0  0  0  0  0  0  0
  -34.2500   10.8030  -15.0990 N   0  0  0  0  0  0  0  0  0  0  0  0
  -34.8380   11.6310  -14.2520 C   0  0  0  0  0  0  0  0  0  0  0  0
  -34.8640   12.9920  -14.5100 C   0  0  0  0  0  0  0  0  0  0  0  0
  -34.2970   13.4700  -15.6010 N   0  0  0  0  0  0  0  0  0  0  0  0
  -32.0450   10.8030  -21.5670 C   0  0  0  0  0  0  0  0  0  0  0  0
  -30.5370   11.0520  -21.6120 C   0  0  0  0  0  0  0  0  0  0  0  0
  -30.1130   11.6380  -20.3790 O   0  0  0  0  0  0  0  0  0  0  0  0
  -28.2380   12.6050  -19.2790 C   0  0  0  0  0  0  0  0  0  0  0  0
  -27.1150   13.4070  -19.3210 C   0  0  0  0  0  0  0  0  0  0  0  0
  -26.7570   14.0380  -20.5010 C   0  0  0  0  0  0  0  0  0  0  0  0
  -25.6590   14.8230  -20.5410 F   0  0  0  0  0  0  0  0  0  0  0  0
  -27.5250   13.8630  -21.6410 C   0  0  0  0  0  0  0  0  0  0  0  0
  -28.6480   13.0610  -21.6010 C   0  0  0  0  0  0  0  0  0  0  0  0
  -29.0080   12.4290  -20.4190 C   0  0  0  0  0  0  0  0  0  0  0  0
  1  2  1  0  0  0  0
  3  1  1  0  0  0  0
  3  4  1  0  0  0  0
  4  7  1  0  0  0  0
  5  4  1  0  0  0  0
  6  3  2  0  0  0  0
  7  8  1  0  0  0  0
  7  9  1  0  0  0  0
  9 11  1  0  0  0  0
 10  9  2  0  0  0  0
 11 12  2  0  0  0  0
 11 16  1  0  0  0  0
 12 13  1  0  0  0  0
 13 14  2  0  0  0  0
 15 14  1  0  0  0  0
 16 15  2  0  0  0  0
 17  1  1  0  0  0  0
 18 17  1  0  0  0  0
 18 19  1  0  0  0  0
 21 20  1  0  0  0  0
 22 21  2  0  0  0  0
 23 22  1  0  0  0  0
 24 25  2  0  0  0  0
 24 22  1  0  0  0  0
 25 26  1  0  0  0  0
 26 19  1  0  0  0  0
 26 20  2  0  0  0  0
M  END
>  <MODEL>
1

>  <REMARK>
 VINA RESULT:      -6.4      0.000      0.000
  Name = ZINC28996368
                            x       y       z     vdW  Elec       q    Type
                         _______ _______ _______ _____ _____    ______ ____

>  <TORSDO>
F 6

>  <vina_score>
-6.4

$$$$
ZINC04777692
 OpenBabel01081722003D

 28 29  0  0  1  0  0  0  0  0999 V2000
  -28.0920   13.9260  -21.1840 C   0  0  1  0  0  0  0  0  0  0  0  0
  -27.9970   14.6200  -22.4290 O   0  0  0  0  0  0  0  0  0  0  0  0
  -28.6240   14.2350  -23.0610 H   0  0  0  0  0  0  0  0  0  0  0  0
  -28.5530   12.4890  -21.4340 C   0  0  0  0  0  0  0  0  0  0  0  0
  -31.0020   12.6320  -21.0300 C   0  0  0  0  0  0  0  0  0  0  0  0
  -31.2870   12.7660  -22.3240 N   0  0  0  0  0  0  0  0  0  0  0  0
  -30.6020   12.5640  -23.0030 H   0  0  0  0  0  0  0  0  0  0  0  0
  -31.9110   12.8920  -19.8980 C   0  0  0  0  0  0  0  0  0  0  0  0
  -33.1000   13.6000  -19.7720 C   0  0  0  0  0  0  0  0  0  0  0  0
  -33.5010   13.5040  -18.5280 N   0  0  0  0  0  0  0  0  0  0  0  0
  -32.5850   12.7280  -17.7990 N   0  0  0  0  0  0  0  0  0  0  0  0
  -32.6850   12.3900  -16.3770 C   0  0  0  0  0  0  0  0  0  0  0  0
  -31.5980   12.3470  -18.6320 C   0  0  0  0  0  0  0  0  0  0  0  0
  -30.4820   11.6120  -18.4630 N   0  0  0  0  0  0  0  0  0  0  0  0
  -29.6190   11.5240  -19.4430 C   0  0  0  0  0  0  0  0  0  0  0  0
  -29.7360   12.2060  -20.6180 N   0  0  0  0  0  0  0  0  0  0  0  0
  -26.7230   13.9100  -20.5020 C   0  0  2  0  0  0  0  0  0  0  0  0
  -26.2630   12.5630  -20.3850 O   0  0  0  0  0  0  0  0  0  0  0  0
  -25.5630   12.4020  -21.0370 H   0  0  0  0  0  0  0  0  0  0  0  0
  -26.8400   14.5310  -19.1080 C   0  0  2  0  0  0  0  0  0  0  0  0
  -26.3800   13.5980  -18.1290 O   0  0  0  0  0  0  0  0  0  0  0  0
  -26.6740   13.8810  -17.2490 H   0  0  0  0  0  0  0  0  0  0  0  0
  -28.3020   14.8850  -18.8280 C   0  0  2  0  0  0  0  0  0  0  0  0
  -28.5510   16.2330  -19.2320 O   0  0  0  0  0  0  0  0  0  0  0  0
  -29.4830   16.4500  -19.0740 H   0  0  0  0  0  0  0  0  0  0  0  0
  -28.5850   14.7410  -17.3320 C   0  0  0  0  0  0  0  0  0  0  0  0
  -28.8370   13.3680  -17.0250 O   0  0  0  0  0  0  0  0  0  0  0  0
  -28.0780   12.8300  -17.3020 H   0  0  0  0  0  0  0  0  0  0  0  0
  1  2  1  6  0  0  0
  1 17  1  0  0  0  0
  3  2  1  0  0  0  0
  4  1  1  0  0  0  0
  4 16  1  0  0  0  0
  5 16  1  0  0  0  0
  5  8  1  0  0  0  0
  6  5  2  0  0  0  0
  7  6  1  0  0  0  0
  8  9  1  0  0  0  0
  8 13  2  0  0  0  0
  9 10  2  0  0  0  0
 10 11  1  0  0  0  0
 11 12  1  0  0  0  0
 13 14  1  0  0  0  0
 13 11  1  0  0  0  0
 15 14  2  0  0  0  0
 16 15  1  0  0  0  0
 17 18  1  1  0  0  0
 17 20  1  0  0  0  0
 19 18  1  0  0  0  0
 20 23  1  0  0  0  0
 20 21  1  1  0  0  0
 21 22  1  0  0  0  0
 23 24  1  1  0  0  0
 23 26  1  0  0  0  0
 24 25  1  0  0  0  0
 26 27  1  0  0  0  0
 28 27  1  0  0  0  0
M  END
>  <MODEL>
1

>  <REMARK>
 VINA RESULT:      -6.4      0.000      0.000
  Name = ZINC04777692
                            x       y       z     vdW  Elec       q    Type
                         _______ _______ _______ _____ _____    ______ ____

>  <TORSDO>
F 11

>  <vina_score>
-6.4

$$$$
ZINC31448830
 OpenBabel01081721473D

 25 26  0  0  1  0  0  0  0  0999 V2000
  -28.5940   12.6640  -21.2320 C   0  0  0  0  0  0  0  0  0  0  0  0
  -27.3080   12.4480  -20.9890 N   0  0  0  0  0  0  0  0  0  0  0  0
  -26.8690   11.6530  -21.3690 H   0  0  0  0  0  0  0  0  0  0  0  0
  -26.6050   13.2930  -20.2390 C   0  0  0  0  0  0  0  0  0  0  0  0
  -27.2400   14.4080  -19.6970 C   0  0  0  0  0  0  0  0  0  0  0  0
  -28.5920   14.5980  -19.9690 C   0  0  2  0  0  0  0  0  0  0  0  0
  -29.2290   13.7140  -20.7330 N   0  0  0  0  0  0  0  0  0  0  0  0
  -25.2610   13.0630  -19.9940 N   0  0  0  0  0  0  0  0  0  0  0  0
  -24.8360   12.2350  -20.3170 H   0  0  0  0  0  0  0  0  0  0  0  0
  -24.7300   13.7270  -19.4960 H   0  0  0  0  0  0  0  0  0  0  0  0
  -29.2640   15.6940  -19.4520 N   0  0  0  0  0  0  0  0  0  0  0  0
  -29.6930   15.6360  -18.5680 H   0  0  0  0  0  0  0  0  0  0  0  0
  -29.3110   16.5310  -19.9680 H   0  0  0  0  0  0  0  0  0  0  0  0
  -29.4800   11.5210  -22.2370 S   0  0  0  0  0  0  0  0  0  0  0  0
  -31.1780   12.0240  -21.8610 C   0  0  0  0  0  0  0  0  0  0  0  0
  -31.9030   10.8780  -21.1500 C   0  0  0  0  0  0  0  0  0  0  0  0
  -31.9280   13.0930  -17.0070 C   0  0  0  0  0  0  0  0  0  0  0  0
  -32.5810   11.8580  -17.6330 C   0  0  0  0  0  0  0  0  0  0  0  0
  -32.8990   10.8150  -16.5600 C   0  0  0  0  0  0  0  0  0  0  0  0
  -31.6890   11.2630  -18.7030 C   0  0  0  0  0  0  0  0  0  0  0  0
  -32.3920   11.3430  -19.8500 N   0  0  0  0  0  0  0  0  0  0  0  0
  -33.5960   11.8950  -19.6540 C   0  0  0  0  0  0  0  0  0  0  0  0
  -34.4110   12.0700  -20.5370 O   0  0  0  0  0  0  0  0  0  0  0  0
  -30.5740   10.8100  -18.5580 O   0  0  0  0  0  0  0  0  0  0  0  0
  -33.8010   12.2350  -18.3680 N   0  0  0  0  0  0  0  0  0  0  0  0
  1  2  1  0  0  0  0
  1  7  2  0  0  0  0
  2  4  1  0  0  0  0
  3  2  1  0  0  0  0
  4  8  1  0  0  0  0
  4  5  2  0  0  0  0
  6  5  1  0  0  0  0
  6 11  1  6  0  0  0
  7  6  1  0  0  0  0
  8 10  1  0  0  0  0
  9  8  1  0  0  0  0
 11 12  1  0  0  0  0
 13 11  1  0  0  0  0
 14 15  1  0  0  0  0
 14  1  1  0  0  0  0
 15 16  1  0  0  0  0
 16 21  1  0  0  0  0
 18 17  1  0  0  0  0
 18 19  1  0  0  0  0
 20 24  2  0  0  0  0
 20 18  1  0  0  0  0
 21 22  1  0  0  0  0
 21 20  1  0  0  0  0
 22 25  1  0  0  0  0
 23 22  2  0  0  0  0
 25 18  1  0  0  0  0
M  END
>  <MODEL>
1

>  <REMARK>
 VINA RESULT:      -6.3      0.000      0.000
  Name = ZINC31448830
                            x       y       z     vdW  Elec       q    Type
                         _______ _______ _______ _____ _____    ______ ____

>  <TORSDO>
F 6

>  <vina_score>
-6.3

$$$$
ZINC19328598
 OpenBabel01081721483D

 27 27  0  0  1  0  0  0  0  0999 V2000
  -30.5740   15.5170  -19.3460 C   0  0  1  0  0  0  0  0  0  0  0  0
  -30.9600   16.5130  -20.3540 N   0  0  0  0  0  0  0  0  0  0  0  0
  -30.9670   16.0780  -21.2770 H   0  0  0  0  0  0  0  0  0  0  0  0
  -31.8900   16.8730  -20.1400 H   0  0  0  0  0  0  0  0  0  0  0  0
  -30.2890   17.2820  -20.3470 H   0  0  0  0  0  0  0  0  0  0  0  0
  -31.2830   14.2170  -19.6260 C   0  0  0  0  0  0  0  0  0  0  0  0
  -31.9060   14.0300  -20.8060 N   0  0  0  0  0  0  0  0  0  0  0  0
  -31.8990   14.7440  -21.4850 H   0  0  0  0  0  0  0  0  0  0  0  0
  -31.2910   13.3380  -18.7910 O   0  0  0  0  0  0  0  0  0  0  0  0
  -32.5640   12.8240  -21.0670 C   0  0  0  0  0  0  0  0  0  0  0  0
  -33.8320   12.5360  -20.7670 N   0  0  0  0  0  0  0  0  0  0  0  0
  -34.1100   11.3400  -21.1490 N   0  0  0  0  0  0  0  0  0  0  0  0
  -33.0690   10.8040  -21.6890 N   0  0  0  0  0  0  0  0  0  0  0  0
  -32.0450   11.7650  -21.6530 N   0  0  0  0  0  0  0  0  0  0  0  0
  -29.0610   15.2950  -19.4000 C   0  0  0  0  0  0  0  0  0  0  0  0
  -28.4600   15.5370  -18.0140 C   0  0  0  0  0  0  0  0  0  0  0  0
  -27.8060   14.2490  -17.5110 C   0  0  0  0  0  0  0  0  0  0  0  0
  -27.6500   13.2680  -18.6750 C   0  0  0  0  0  0  0  0  0  0  0  0
  -26.2270   13.1280  -19.0120 N   0  0  0  0  0  0  0  0  0  0  0  0
  -25.9240   12.1880  -18.7550 H   0  0  0  0  0  0  0  0  0  0  0  0
  -25.6930   13.8280  -18.4970 H   0  0  0  0  0  0  0  0  0  0  0  0
  -27.2300   12.8240  -21.2240 C   0  0  0  0  0  0  0  0  0  0  0  0
  -26.0050   13.3150  -20.4510 C   0  0  1  0  0  0  0  0  0  0  0  0
  -25.7870   14.7400  -20.7320 N   0  0  0  0  0  0  0  0  0  0  0  0
  -26.0600   15.2930  -19.9200 H   0  0  0  0  0  0  0  0  0  0  0  0
  -24.8000   14.8990  -20.9350 H   0  0  0  0  0  0  0  0  0  0  0  0
  -26.3480   15.0170  -21.5380 H   0  0  0  0  0  0  0  0  0  0  0  0
  1  2  1  6  0  0  0
  2  5  1  0  0  0  0
  2  4  1  0  0  0  0
  3  2  1  0  0  0  0
  6  1  1  0  0  0  0
  6  9  2  0  0  0  0
  7  6  1  0  0  0  0
  8  7  1  0  0  0  0
 10  7  1  0  0  0  0
 10 11  1  0  0  0  0
 12 11  1  0  0  0  0
 13 14  1  0  0  0  0
 13 12  2  0  0  0  0
 14 10  2  0  0  0  0
 15  1  1  0  0  0  0
 15 16  1  0  0  0  0
 16 17  1  0  0  0  0
 18 17  1  0  0  0  0
 19 20  1  0  0  0  0
 19 18  1  0  0  0  0
 19 21  1  0  0  0  0
 23 22  1  6  0  0  0
 23 19  1  0  0  0  0
 24 23  1  0  0  0  0
 24 25  1  0  0  0  0
 26 24  1  0  0  0  0
 27 24  1  0  0  0  0
M  END
>  <MODEL>
1

>  <REMARK>
 VINA RESULT:      -6.3      0.000      0.000
  Name = ZINC19328598
                            x       y       z     vdW  Elec       q    Type
                         _______ _______ _______ _____ _____    ______ ____

>  <TORSDO>
F 10

>  <vina_score>
-6.3

$$$$
ZINC25495269
 OpenBabel01081721483D

 27 26  0  0  1  0  0  0  0  0999 V2000
  -30.8920   13.0770  -19.0690 C   0  0  1  0  0  0  0  0  0  0  0  0
  -31.3900   14.1120  -20.0440 C   0  0  0  0  0  0  0  0  0  0  0  0
  -30.9410   15.5450  -19.9180 C   0  0  0  0  0  0  0  0  0  0  0  0
  -32.1950   13.7740  -20.9810 N   0  0  0  0  0  0  0  0  0  0  0  0
  -32.5230   12.4250  -21.1690 N   0  0  0  0  0  0  0  0  0  0  0  0
  -31.8910   11.8230  -21.6230 H   0  0  0  0  0  0  0  0  0  0  0  0
  -33.7050   11.9510  -20.7280 C   0  0  0  0  0  0  0  0  0  0  0  0
  -34.5310   12.7500  -20.0230 N   0  0  0  0  0  0  0  0  0  0  0  0
  -35.3940   12.4040  -19.7010 H   0  0  0  0  0  0  0  0  0  0  0  0
  -34.2700   13.6800  -19.8290 H   0  0  0  0  0  0  0  0  0  0  0  0
  -34.0270   10.8030  -20.9670 O   0  0  0  0  0  0  0  0  0  0  0  0
  -29.3860   13.1160  -19.0200 C   0  0  0  0  0  0  0  0  0  0  0  0
  -28.6840   13.5080  -17.7450 C   0  0  0  0  0  0  0  0  0  0  0  0
  -28.7030   12.8150  -20.0600 N   0  0  0  0  0  0  0  0  0  0  0  0
  -27.3070   12.7320  -19.9810 N   0  0  0  0  0  0  0  0  0  0  0  0
  -26.8860   12.0440  -19.4180 H   0  0  0  0  0  0  0  0  0  0  0  0
  -26.5410   13.5970  -20.6760 C   0  0  0  0  0  0  0  0  0  0  0  0
  -27.1150   14.6010  -21.3670 N   0  0  0  0  0  0  0  0  0  0  0  0
  -26.5550   15.2330  -21.8740 H   0  0  0  0  0  0  0  0  0  0  0  0
  -28.0940   14.7040  -21.3640 H   0  0  0  0  0  0  0  0  0  0  0  0
  -25.3310   13.4700  -20.6800 O   0  0  0  0  0  0  0  0  0  0  0  0
  -31.4550   13.3760  -17.6770 C   0  0  0  0  0  0  0  0  0  0  0  0
  -32.1800   12.1610  -17.1580 C   0  0  0  0  0  0  0  0  0  0  0  0
  -31.5600   11.1630  -16.8730 O   0  0  0  0  0  0  0  0  0  0  0  0
  -33.5130   12.1870  -17.0110 O   0  0  0  0  0  0  0  0  0  0  0  0
  -34.6270   12.6470  -14.8950 C   0  0  0  0  0  0  0  0  0  0  0  0
  -34.0580   11.5660  -15.8170 C   0  0  0  0  0  0  0  0  0  0  0  0
  1  2  1  6  0  0  0
  1 12  1  0  0  0  0
  1 22  1  0  0  0  0
  2  3  1  0  0  0  0
  4  2  2  0  0  0  0
  5  4  1  0  0  0  0
  5  7  1  0  0  0  0
  6  5  1  0  0  0  0
  7  8  1  0  0  0  0
  8 10  1  0  0  0  0
  8  9  1  0  0  0  0
 11  7  2  0  0  0  0
 12 13  1  0  0  0  0
 14 15  1  0  0  0  0
 14 12  2  0  0  0  0
 15 16  1  0  0  0  0
 17 15  1  0  0  0  0
 18 20  1  0  0  0  0
 18 17  1  0  0  0  0
 19 18  1  0  0  0  0
 21 17  2  0  0  0  0
 22 23  1  0  0  0  0
 23 25  1  0  0  0  0
 23 24  2  0  0  0  0
 25 27  1  0  0  0  0
 27 26  1  0  0  0  0
M  END
>  <MODEL>
1

>  <REMARK>
 VINA RESULT:      -6.3      0.000      0.000
  Name = ZINC25495269
                            x       y       z     vdW  Elec       q    Type
                         _______ _______ _______ _____ _____    ______ ____

>  <TORSDO>
F 8

>  <vina_score>
-6.3

$$$$
ZINC31659431
 OpenBabel01081721533D

 21 21  0  0  1  0  0  0  0  0999 V2000
  -30.7690   13.6370  -19.0500 C   0  0  1  0  0  0  0  0  0  0  0  0
  -30.0770   12.3490  -19.4560 C   0  0  0  0  0  0  0  0  0  0  0  0
  -30.3500   11.8470  -20.6760 N   0  0  0  0  0  0  0  0  0  0  0  0
  -31.1980   12.4540  -21.5160 C   0  0  0  0  0  0  0  0  0  0  0  0
  -31.8510   13.5910  -21.2520 N   0  0  0  0  0  0  0  0  0  0  0  0
  -32.4550   13.9640  -21.9340 H   0  0  0  0  0  0  0  0  0  0  0  0
  -31.3850   11.9340  -22.5980 O   0  0  0  0  0  0  0  0  0  0  0  0
  -29.3050   11.7870  -18.7090 O   0  0  0  0  0  0  0  0  0  0  0  0
  -31.7090   14.2410  -20.0770 C   0  0  0  0  0  0  0  0  0  0  0  0
  -32.3090   15.2700  -19.8520 O   0  0  0  0  0  0  0  0  0  0  0  0
  -31.5680   13.3660  -17.7750 C   0  0  0  0  0  0  0  0  0  0  0  0
  -32.6870   12.3660  -18.0770 C   0  0  0  0  0  0  0  0  0  0  0  0
  -33.7900   12.6990  -15.8600 C   0  0  0  0  0  0  0  0  0  0  0  0
  -33.1190   11.6780  -16.7800 C   0  0  0  0  0  0  0  0  0  0  0  0
  -29.6920   14.6730  -18.7230 C   0  0  0  0  0  0  0  0  0  0  0  0
  -28.8640   14.9630  -19.9770 C   0  0  0  0  0  0  0  0  0  0  0  0
  -27.4340   14.8890  -19.6480 N   0  0  0  0  0  0  0  0  0  0  0  0
  -27.0540   15.8350  -19.6390 H   0  0  0  0  0  0  0  0  0  0  0  0
  -27.3250   14.4510  -18.7330 H   0  0  0  0  0  0  0  0  0  0  0  0
  -26.7040   14.1000  -20.6490 C   0  0  0  0  0  0  0  0  0  0  0  0
  -27.6010   13.8630  -21.8650 C   0  0  0  0  0  0  0  0  0  0  0  0
  1 15  1  1  0  0  0
  1 11  1  0  0  0  0
  2  1  1  0  0  0  0
  2  8  2  0  0  0  0
  3  2  1  0  0  0  0
  4  5  1  0  0  0  0
  4  3  1  0  0  0  0
  5  9  1  0  0  0  0
  6  5  1  0  0  0  0
  7  4  2  0  0  0  0
  9 10  2  0  0  0  0
  9  1  1  0  0  0  0
 12 11  1  0  0  0  0
 12 14  1  0  0  0  0
 14 13  1  0  0  0  0
 16 17  1  0  0  0  0
 16 15  1  0  0  0  0
 17 18  1  0  0  0  0
 17 19  1  0  0  0  0
 20 17  1  0  0  0  0
 21 20  1  0  0  0  0
M  END
>  <MODEL>
1

>  <REMARK>
 VINA RESULT:      -6.3      0.000      0.000
  Name = ZINC31659431
                            x       y       z     vdW  Elec       q    Type
                         _______ _______ _______ _____ _____    ______ ____

>  <TORSDO>
F 7

>  <vina_score>
-6.3

$$$$
ZINC12483756
 OpenBabel01081721563D

 29 31  0  0  1  0  0  0  0  0999 V2000
  -28.6970   13.1250  -20.5720 C   0  0  2  0  0  0  0  0  0  0  0  0
  -28.8940   12.4870  -19.1930 C   0  0  2  0  0  0  0  0  0  0  0  0
  -30.0700   13.1670  -18.4840 C   0  0  1  0  0  0  0  0  0  0  0  0
  -29.8430   14.6880  -18.5090 C   0  0  1  0  0  0  0  0  0  0  0  0
  -28.3680   14.9490  -18.1250 C   0  0  0  0  0  0  0  0  0  0  0  0
  -27.6520   14.9370  -19.3720 O   0  0  0  0  0  0  0  0  0  0  0  0
  -29.8860   15.1030  -19.8960 O   0  0  0  0  0  0  0  0  0  0  0  0
  -28.6120   14.6500  -20.4050 C   0  0  2  0  0  0  0  0  0  0  0  0
  -29.8440   12.7830  -21.4350 N   0  0  0  0  0  0  0  0  0  0  0  0
  -29.8860   13.4470  -22.2080 H   0  0  0  0  0  0  0  0  0  0  0  0
  -30.7020   12.8300  -20.8870 H   0  0  0  0  0  0  0  0  0  0  0  0
  -29.6880   11.4210  -21.9780 C   0  0  0  0  0  0  0  0  0  0  0  0
  -31.0450   10.9240  -22.4830 C   0  0  0  0  0  0  0  0  0  0  0  0
  -33.0480   10.8030  -21.1730 C   0  0  0  0  0  0  0  0  0  0  0  0
  -32.0900   11.6410  -21.8220 O   0  0  0  0  0  0  0  0  0  0  0  0
  -31.3220   12.8400  -19.1910 N   0  0  0  0  0  0  0  0  0  0  0  0
  -31.2220   13.0900  -20.1760 H   0  0  0  0  0  0  0  0  0  0  0  0
  -31.5090   11.8420  -19.1020 H   0  0  0  0  0  0  0  0  0  0  0  0
  -32.4500   13.5990  -18.6170 C   0  0  0  0  0  0  0  0  0  0  0  0
  -33.0350   12.8200  -17.4680 C   0  0  0  0  0  0  0  0  0  0  0  0
  -32.8970   11.4990  -17.2620 C   0  0  0  0  0  0  0  0  0  0  0  0
  -33.6020   11.1930  -16.0750 C   0  0  0  0  0  0  0  0  0  0  0  0
  -34.1370   12.3450  -15.6320 C   0  0  0  0  0  0  0  0  0  0  0  0
  -33.7910   13.3270  -16.4790 O   0  0  0  0  0  0  0  0  0  0  0  0
  -34.9810   12.5060  -14.3940 C   0  0  0  0  0  0  0  0  0  0  0  0
  -34.5300   13.6410  -13.6530 O   0  0  0  0  0  0  0  0  0  0  0  0
  -33.7060   13.4180  -13.1900 H   0  0  0  0  0  0  0  0  0  0  0  0
  -27.7070   12.6530  -18.4150 O   0  0  0  0  0  0  0  0  0  0  0  0
  -27.3330   13.5320  -18.5820 H   0  0  0  0  0  0  0  0  0  0  0  0
  1  9  1  6  0  0  0
  1  8  1  0  0  0  0
  1  2  1  0  0  0  0
  2  3  1  0  0  0  0
  2 28  1  1  0  0  0
  3 16  1  6  0  0  0
  4  7  1  6  0  0  0
  4  3  1  0  0  0  0
  4  5  1  0  0  0  0
  6  5  1  0  0  0  0
  8  7  1  1  0  0  0
  8  6  1  0  0  0  0
  9 11  1  0  0  0  0
 10  9  1  0  0  0  0
 12  9  1  0  0  0  0
 13 12  1  0  0  0  0
 13 15  1  0  0  0  0
 15 14  1  0  0  0  0
 16 18  1  0  0  0  0
 16 19  1  0  0  0  0
 17 16  1  0  0  0  0
 19 20  1  0  0  0  0
 20 21  2  0  0  0  0
 20 24  1  0  0  0  0
 21 22  1  0  0  0  0
 22 23  2  0  0  0  0
 23 25  1  0  0  0  0
 24 23  1  0  0  0  0
 25 26  1  0  0  0  0
 26 27  1  0  0  0  0
 29 28  1  0  0  0  0
M  END
>  <MODEL>
1

>  <REMARK>
 VINA RESULT:      -6.3      0.000      0.000
  Name = ZINC12483756
                            x       y       z     vdW  Elec       q    Type
                         _______ _______ _______ _____ _____    ______ ____

>  <TORSDO>
F 10

>  <vina_score>
-6.3

$$$$
ZINC04372269
 OpenBabel01081721573D

 24 25  0  0  1  0  0  0  0  0999 V2000
  -33.0240   13.4030  -19.6870 C   0  0  2  0  0  0  0  0  0  0  0  0
  -32.1340   12.8070  -18.6740 N   0  0  0  0  0  0  0  0  0  0  0  0
  -31.2200   12.6360  -19.0940 H   0  0  0  0  0  0  0  0  0  0  0  0
  -32.0410   13.4490  -17.8870 H   0  0  0  0  0  0  0  0  0  0  0  0
  -32.6880   11.5270  -18.1950 C   0  0  0  0  0  0  0  0  0  0  0  0
  -33.3840   11.7520  -16.8760 C   0  0  0  0  0  0  0  0  0  0  0  0
  -33.5200   12.9340  -16.2500 C   0  0  0  0  0  0  0  0  0  0  0  0
  -34.2320   12.6840  -15.0540 C   0  0  0  0  0  0  0  0  0  0  0  0
  -34.4880   11.3640  -15.0220 C   0  0  0  0  0  0  0  0  0  0  0  0
  -33.9770   10.8050  -16.1310 O   0  0  0  0  0  0  0  0  0  0  0  0
  -33.3240   12.3840  -20.7560 C   0  0  0  0  0  0  0  0  0  0  0  0
  -32.3430   11.9460  -21.5620 O   0  0  0  0  0  0  0  0  0  0  0  0
  -34.4480   11.9600  -20.8880 O   0  0  0  0  0  0  0  0  0  0  0  0
  -32.3300   14.6120  -20.3160 C   0  0  0  0  0  0  0  0  0  0  0  0
  -30.0590   13.8160  -20.8850 N   0  0  0  0  0  0  0  0  0  0  0  0
  -30.4380   13.4030  -21.6940 H   0  0  0  0  0  0  0  0  0  0  0  0
  -30.8470   14.5310  -20.0590 C   0  0  0  0  0  0  0  0  0  0  0  0
  -30.3650   15.1100  -19.1080 O   0  0  0  0  0  0  0  0  0  0  0  0
  -26.4030   14.1770  -20.9810 C   0  0  0  0  0  0  0  0  0  0  0  0
  -27.7360   14.3620  -21.3110 C   0  0  0  0  0  0  0  0  0  0  0  0
  -28.6990   13.6600  -20.5920 C   0  0  0  0  0  0  0  0  0  0  0  0
  -28.2910   12.7970  -19.5810 C   0  0  0  0  0  0  0  0  0  0  0  0
  -27.0110   12.6480  -19.3040 N   0  0  0  0  0  0  0  0  0  0  0  0
  -26.0750   13.3010  -19.9620 C   0  0  0  0  0  0  0  0  0  0  0  0
  1 11  1  6  0  0  0
  1  2  1  0  0  0  0
  2  5  1  0  0  0  0
  2  4  1  0  0  0  0
  3  2  1  0  0  0  0
  5  6  1  0  0  0  0
  6  7  2  0  0  0  0
  6 10  1  0  0  0  0
  7  8  1  0  0  0  0
  8  9  2  0  0  0  0
 10  9  1  0  0  0  0
 12 11  2  0  0  0  0
 13 11  1  0  0  0  0
 14 17  1  0  0  0  0
 14  1  1  0  0  0  0
 15 21  1  0  0  0  0
 15 17  1  0  0  0  0
 16 15  1  0  0  0  0
 17 18  2  0  0  0  0
 19 24  1  0  0  0  0
 20 19  2  0  0  0  0
 20 21  1  0  0  0  0
 21 22  2  0  0  0  0
 22 23  1  0  0  0  0
 24 23  2  0  0  0  0
M  END
>  <MODEL>
1

>  <REMARK>
 VINA RESULT:      -6.3      0.000      0.000
  Name = ZINC04372269
                            x       y       z     vdW  Elec       q    Type
                         _______ _______ _______ _____ _____    ______ ____

>  <TORSDO>
F 7

>  <vina_score>
-6.3

$$$$
ZINC03888603
 OpenBabel01081721563D

 23 24  0  0  0  0  0  0  0  0999 V2000
  -28.2050   14.4350  -19.0340 C   0  0  0  0  0  0  0  0  0  0  0  0
  -28.0810   13.4020  -18.1150 C   0  0  0  0  0  0  0  0  0  0  0  0
  -29.2130   12.7950  -17.6030 C   0  0  0  0  0  0  0  0  0  0  0  0
  -30.4690   13.2070  -18.0100 C   0  0  0  0  0  0  0  0  0  0  0  0
  -30.6000   14.2360  -18.9240 C   0  0  0  0  0  0  0  0  0  0  0  0
  -29.4710   14.8550  -19.4400 C   0  0  0  0  0  0  0  0  0  0  0  0
  -31.9040   12.4250  -17.3550 S   0  0  0  0  0  0  0  0  0  0  0  0
  -31.4650   11.2260  -16.7310 O   0  0  0  0  0  0  0  0  0  0  0  0
  -32.6300   13.4270  -16.6560 O   0  0  0  0  0  0  0  0  0  0  0  0
  -32.8440   11.9720  -18.6410 N   0  0  0  0  0  0  0  0  0  0  0  0
  -32.6040   10.8130  -19.5130 C   0  0  0  0  0  0  0  0  0  0  0  0
  -33.7180   10.8030  -20.5810 C   0  0  0  0  0  0  0  0  0  0  0  0
  -34.1930   12.2810  -20.5980 C   0  0  0  0  0  0  0  0  0  0  0  0
  -34.0590   12.6670  -19.1040 C   0  0  0  0  0  0  0  0  0  0  0  0
  -29.6020   15.8960  -20.3660 N   0  0  0  0  0  0  0  0  0  0  0  0
  -30.0320   15.7300  -21.2350 H   0  0  0  0  0  0  0  0  0  0  0  0
  -29.2630   16.7940  -20.1480 H   0  0  0  0  0  0  0  0  0  0  0  0
  -27.0600   15.0540  -19.5500 N   0  0  0  0  0  0  0  0  0  0  0  0
  -26.6850   15.8470  -19.1030 H   0  0  0  0  0  0  0  0  0  0  0  0
  -26.4190   14.5220  -20.7560 C   0  0  0  0  0  0  0  0  0  0  0  0
  -26.9010   13.0910  -21.0010 C   0  0  0  0  0  0  0  0  0  0  0  0
  -28.9750   12.0310  -21.9060 C   0  0  0  0  0  0  0  0  0  0  0  0
  -27.8910   13.0790  -22.1680 C   0  0  0  0  0  0  0  0  0  0  0  0
  1  2  1  0  0  0  0
  2  3  2  0  0  0  0
  4  3  1  0  0  0  0
  4  7  1  0  0  0  0
  5  4  2  0  0  0  0
  6  1  2  0  0  0  0
  6  5  1  0  0  0  0
  7  8  2  0  0  0  0
  7  9  2  0  0  0  0
 10  7  1  0  0  0  0
 11 10  1  0  0  0  0
 12 11  1  0  0  0  0
 13 12  1  0  0  0  0
 13 14  1  0  0  0  0
 14 10  1  0  0  0  0
 15 17  1  0  0  0  0
 15  6  1  0  0  0  0
 16 15  1  0  0  0  0
 18 19  1  0  0  0  0
 18  1  1  0  0  0  0
 20 18  1  0  0  0  0
 21 20  1  0  0  0  0
 23 22  1  0  0  0  0
 23 21  1  0  0  0  0
M  END
>  <MODEL>
1

>  <REMARK>
 VINA RESULT:      -6.3      0.000      0.000
  Name = ZINC03888603
                            x       y       z     vdW  Elec       q    Type
                         _______ _______ _______ _____ _____    ______ ____

>  <TORSDO>
F 7

>  <vina_score>
-6.3

$$$$
ZINC09047672
 OpenBabel01081721583D

 24 25  0  0  0  0  0  0  0  0999 V2000
  -32.1510   15.4100  -20.6440 N   0  0  0  0  0  0  0  0  0  0  0  0
  -32.6120   15.6340  -21.4850 H   0  0  0  0  0  0  0  0  0  0  0  0
  -32.3200   14.1600  -20.0750 C   0  0  0  0  0  0  0  0  0  0  0  0
  -31.9850   12.9940  -20.7860 C   0  0  0  0  0  0  0  0  0  0  0  0
  -32.1790   11.7540  -20.1560 C   0  0  0  0  0  0  0  0  0  0  0  0
  -32.6680   11.7260  -18.9200 N   0  0  0  0  0  0  0  0  0  0  0  0
  -32.9680   12.8440  -18.2910 C   0  0  0  0  0  0  0  0  0  0  0  0
  -33.6040   12.7520  -16.6780 Cl  0  0  0  0  0  0  0  0  0  0  0  0
  -31.7780   10.8040  -21.0600 N   0  0  0  0  0  0  0  0  0  0  0  0
  -31.7890    9.8280  -20.9240 H   0  0  0  0  0  0  0  0  0  0  0  0
  -31.3630   11.4570  -22.1820 C   0  0  0  0  0  0  0  0  0  0  0  0
  -31.4850   12.7430  -22.0190 N   0  0  0  0  0  0  0  0  0  0  0  0
  -32.7990   14.0340  -18.8410 N   0  0  0  0  0  0  0  0  0  0  0  0
  -31.2850   16.3990  -19.9960 C   0  0  0  0  0  0  0  0  0  0  0  0
  -29.0890   15.6130  -20.8210 N   0  0  0  0  0  0  0  0  0  0  0  0
  -29.3770   15.8650  -21.7280 H   0  0  0  0  0  0  0  0  0  0  0  0
  -29.9190   15.8020  -19.7750 C   0  0  0  0  0  0  0  0  0  0  0  0
  -29.5650   15.4920  -18.6580 O   0  0  0  0  0  0  0  0  0  0  0  0
  -27.7620   15.0330  -20.6070 C   0  0  0  0  0  0  0  0  0  0  0  0
  -27.4460   14.0530  -21.7380 C   0  0  0  0  0  0  0  0  0  0  0  0
  -25.9260   12.7150  -20.4100 C   0  0  0  0  0  0  0  0  0  0  0  0
  -27.2020   12.7150  -21.1570 N   0  0  0  0  0  0  0  0  0  0  0  0
  -27.1440   12.0310  -21.9110 H   0  0  0  0  0  0  0  0  0  0  0  0
  -28.3140   12.3460  -20.2570 C   0  0  0  0  0  0  0  0  0  0  0  0
  1  3  1  0  0  0  0
  1 14  1  0  0  0  0
  2  1  1  0  0  0  0
  3 13  2  0  0  0  0
  4  5  2  0  0  0  0
  4  3  1  0  0  0  0
  5  6  1  0  0  0  0
  6  7  2  0  0  0  0
  7  8  1  0  0  0  0
  9 10  1  0  0  0  0
  9  5  1  0  0  0  0
 11 12  2  0  0  0  0
 11  9  1  0  0  0  0
 12  4  1  0  0  0  0
 13  7  1  0  0  0  0
 14 17  1  0  0  0  0
 15 19  1  0  0  0  0
 15 17  1  0  0  0  0
 16 15  1  0  0  0  0
 17 18  2  0  0  0  0
 20 22  1  0  0  0  0
 20 19  1  0  0  0  0
 22 21  1  0  0  0  0
 22 24  1  0  0  0  0
 23 22  1  0  0  0  0
M  END
>  <MODEL>
1

>  <REMARK>
 VINA RESULT:      -6.3      0.000      0.000
  Name = ZINC09047672
                            x       y       z     vdW  Elec       q    Type
                         _______ _______ _______ _____ _____    ______ ____

>  <TORSDO>
F 6

>  <vina_score>
-6.3

$$$$
ZINC02090323
 OpenBabel01081722003D

 28 29  0  0  0  0  0  0  0  0999 V2000
  -28.7490   14.9480  -17.5800 C   0  0  0  0  0  0  0  0  0  0  0  0
  -32.4270   10.8030  -16.7630 C   0  0  0  0  0  0  0  0  0  0  0  0
  -32.6130   11.7860  -17.8330 N   0  0  0  0  0  0  0  0  0  0  0  0
  -33.6310   11.8260  -18.7160 C   0  0  0  0  0  0  0  0  0  0  0  0
  -33.4700   12.8400  -19.5280 N   0  0  0  0  0  0  0  0  0  0  0  0
  -32.3520   13.4990  -19.2140 C   0  0  0  0  0  0  0  0  0  0  0  0
  -31.7180   14.6170  -19.7320 N   0  0  0  0  0  0  0  0  0  0  0  0
  -32.2990   15.3240  -20.8750 C   0  0  0  0  0  0  0  0  0  0  0  0
  -30.5700   15.0560  -19.1830 C   0  0  0  0  0  0  0  0  0  0  0  0
  -30.0300   16.0420  -19.6480 O   0  0  0  0  0  0  0  0  0  0  0  0
  -30.0020   14.4310  -18.1370 N   0  0  0  0  0  0  0  0  0  0  0  0
  -30.5730   13.3380  -17.5890 C   0  0  0  0  0  0  0  0  0  0  0  0
  -30.0520   12.7830  -16.6380 O   0  0  0  0  0  0  0  0  0  0  0  0
  -31.7800   12.8450  -18.1300 C   0  0  0  0  0  0  0  0  0  0  0  0
  -27.5750   14.1350  -18.1280 C   0  0  0  0  0  0  0  0  0  0  0  0
  -27.0720   14.7800  -19.3570 N   0  0  0  0  0  0  0  0  0  0  0  0
  -27.7520   15.4740  -19.6680 H   0  0  0  0  0  0  0  0  0  0  0  0
  -26.1790   15.2310  -19.1590 H   0  0  0  0  0  0  0  0  0  0  0  0
  -26.8870   13.7770  -20.4220 C   0  0  0  0  0  0  0  0  0  0  0  0
  -25.4900   13.1640  -20.3140 C   0  0  0  0  0  0  0  0  0  0  0  0
  -25.4410   11.9540  -21.0740 O   0  0  0  0  0  0  0  0  0  0  0  0
  -26.2680   11.4620  -20.9500 H   0  0  0  0  0  0  0  0  0  0  0  0
  -27.0450   14.4460  -21.7900 C   0  0  0  0  0  0  0  0  0  0  0  0
  -28.2040   15.2830  -21.7800 O   0  0  0  0  0  0  0  0  0  0  0  0
  -27.9880   16.1370  -22.1860 H   0  0  0  0  0  0  0  0  0  0  0  0
  -27.9410   12.6800  -20.2670 C   0  0  0  0  0  0  0  0  0  0  0  0
  -28.2390   12.1210  -21.5480 O   0  0  0  0  0  0  0  0  0  0  0  0
  -27.7550   12.6070  -22.2340 H   0  0  0  0  0  0  0  0  0  0  0  0
  3  2  1  0  0  0  0
  4  3  1  0  0  0  0
  5  6  1  0  0  0  0
  5  4  2  0  0  0  0
  6 14  2  0  0  0  0
  7  6  1  0  0  0  0
  7  9  1  0  0  0  0
  8  7  1  0  0  0  0
  9 11  1  0  0  0  0
 10  9  2  0  0  0  0
 11 12  1  0  0  0  0
 11  1  1  0  0  0  0
 12 13  2  0  0  0  0
 14  3  1  0  0  0  0
 14 12  1  0  0  0  0
 15  1  1  0  0  0  0
 16 18  1  0  0  0  0
 16 15  1  0  0  0  0
 17 16  1  0  0  0  0
 19 20  1  0  0  0  0
 19 26  1  0  0  0  0
 19 16  1  0  0  0  0
 21 22  1  0  0  0  0
 21 20  1  0  0  0  0
 23 24  1  0  0  0  0
 23 19  1  0  0  0  0
 25 24  1  0  0  0  0
 27 26  1  0  0  0  0
 28 27  1  0  0  0  0
M  END
>  <MODEL>
1

>  <REMARK>
 VINA RESULT:      -6.3      0.000      0.000
  Name = ZINC02090323
                            x       y       z     vdW  Elec       q    Type
                         _______ _______ _______ _____ _____    ______ ____

>  <TORSDO>
F 10

>  <vina_score>
-6.3

$$$$
ZINC31345689
 OpenBabel01081722003D

 26 26  0  0  0  0  0  0  0  0999 V2000
  -32.3530   13.0070  -18.4640 C   0  0  0  0  0  0  0  0  0  0  0  0
  -31.4980   13.7380  -19.2130 C   0  0  0  0  0  0  0  0  0  0  0  0
  -31.7820   14.0370  -20.5150 N   0  0  0  0  0  0  0  0  0  0  0  0
  -31.1290   14.5720  -21.0220 H   0  0  0  0  0  0  0  0  0  0  0  0
  -32.8990   13.6430  -21.1410 C   0  0  0  0  0  0  0  0  0  0  0  0
  -33.8450   12.9090  -20.5240 N   0  0  0  0  0  0  0  0  0  0  0  0
  -34.6610   12.6350  -21.0030 H   0  0  0  0  0  0  0  0  0  0  0  0
  -33.0630   13.9590  -22.3040 O   0  0  0  0  0  0  0  0  0  0  0  0
  -33.6310   12.5270  -19.1190 C   0  0  0  0  0  0  0  0  0  0  0  0
  -32.0600   12.6960  -17.1150 C   0  0  0  0  0  0  0  0  0  0  0  0
  -31.0720   12.0380  -16.8440 O   0  0  0  0  0  0  0  0  0  0  0  0
  -32.8790   13.1220  -16.1310 O   0  0  0  0  0  0  0  0  0  0  0  0
  -34.7410   12.8850  -14.6100 C   0  0  0  0  0  0  0  0  0  0  0  0
  -33.8940   12.2150  -15.6930 C   0  0  0  0  0  0  0  0  0  0  0  0
  -30.2120   14.2310  -18.6020 C   0  0  0  0  0  0  0  0  0  0  0  0
  -29.0860   13.4580  -19.1430 N   0  0  0  0  0  0  0  0  0  0  0  0
  -29.4360   12.5390  -19.4100 H   0  0  0  0  0  0  0  0  0  0  0  0
  -28.0440   13.2660  -18.1250 C   0  0  0  0  0  0  0  0  0  0  0  0
  -27.9820   14.4980  -17.2190 C   0  0  0  0  0  0  0  0  0  0  0  0
  -26.6910   13.0700  -18.8110 C   0  0  0  0  0  0  0  0  0  0  0  0
  -28.5350   14.0990  -20.3440 C   0  0  0  0  0  0  0  0  0  0  0  0
  -28.6200   13.1430  -21.5070 C   0  0  0  0  0  0  0  0  0  0  0  0
  -27.8810   13.3600  -22.6120 N   0  0  0  0  0  0  0  0  0  0  0  0
  -27.9350   12.7360  -23.3720 H   0  0  0  0  0  0  0  0  0  0  0  0
  -27.2850   14.1430  -22.6600 H   0  0  0  0  0  0  0  0  0  0  0  0
  -29.3530   12.1800  -21.4470 O   0  0  0  0  0  0  0  0  0  0  0  0
  1 10  1  0  0  0  0
  2 15  1  0  0  0  0
  2  1  2  0  0  0  0
  3  2  1  0  0  0  0
  4  3  1  0  0  0  0
  5  6  1  0  0  0  0
  5  3  1  0  0  0  0
  6  9  1  0  0  0  0
  7  6  1  0  0  0  0
  8  5  2  0  0  0  0
  9  1  1  0  0  0  0
 10 11  2  0  0  0  0
 10 12  1  0  0  0  0
 12 14  1  0  0  0  0
 14 13  1  0  0  0  0
 16 15  1  0  0  0  0
 16 18  1  0  0  0  0
 17 16  1  0  0  0  0
 18 19  1  0  0  0  0
 20 18  1  0  0  0  0
 21 16  1  0  0  0  0
 22 26  2  0  0  0  0
 22 21  1  0  0  0  0
 23 22  1  0  0  0  0
 24 23  1  0  0  0  0
 25 23  1  0  0  0  0
M  END
>  <MODEL>
1

>  <REMARK>
 VINA RESULT:      -6.3      0.000      0.000
  Name = ZINC31345689
                            x       y       z     vdW  Elec       q    Type
                         _______ _______ _______ _____ _____    ______ ____

>  <TORSDO>
F 8

>  <vina_score>
-6.3

$$$$
ZINC26997465
 OpenBabel01081722033D

 30 31  0  0  1  0  0  0  0  0999 V2000
  -31.5600   12.1410  -21.2910 C   0  0  0  0  0  0  0  0  0  0  0  0
  -31.5690   11.8850  -22.4790 O   0  0  0  0  0  0  0  0  0  0  0  0
  -31.3480   13.5310  -20.8370 C   0  0  0  0  0  0  0  0  0  0  0  0
  -32.3780   14.4680  -20.9460 C   0  0  0  0  0  0  0  0  0  0  0  0
  -32.1760   15.7620  -20.5150 C   0  0  0  0  0  0  0  0  0  0  0  0
  -30.9530   16.1360  -19.9860 C   0  0  0  0  0  0  0  0  0  0  0  0
  -29.9270   15.2150  -19.8810 C   0  0  0  0  0  0  0  0  0  0  0  0
  -30.1170   13.9150  -20.3030 C   0  0  0  0  0  0  0  0  0  0  0  0
  -28.5980   15.6310  -19.3040 C   0  0  0  0  0  0  0  0  0  0  0  0
  -27.6270   14.5500  -19.4890 N   0  0  0  0  0  0  0  0  0  0  0  0
  -27.0070   14.2800  -20.6550 C   0  0  0  0  0  0  0  0  0  0  0  0
  -26.1030   13.0960  -20.3740 C   0  0  0  0  0  0  0  0  0  0  0  0
  -26.3460   12.8050  -18.9510 N   0  0  0  0  0  0  0  0  0  0  0  0
  -27.1440   14.8640  -21.7090 O   0  0  0  0  0  0  0  0  0  0  0  0
  -27.2480   13.7050  -18.5220 C   0  0  0  0  0  0  0  0  0  0  0  0
  -27.6730   13.7470  -17.3840 O   0  0  0  0  0  0  0  0  0  0  0  0
  -31.7430   11.1580  -20.3890 O   0  0  0  0  0  0  0  0  0  0  0  0
  -33.9770   10.9150  -21.3260 C   0  0  0  0  0  0  0  0  0  0  0  0
  -33.1140   10.8040  -20.0680 C   0  0  2  0  0  0  0  0  0  0  0  0
  -33.6410   11.7430  -19.0130 C   0  0  0  0  0  0  0  0  0  0  0  0
  -33.5190   11.4280  -17.7090 N   0  0  0  0  0  0  0  0  0  0  0  0
  -33.0860   10.5840  -17.4440 H   0  0  0  0  0  0  0  0  0  0  0  0
  -33.9890   12.2680  -16.7650 C   0  0  0  0  0  0  0  0  0  0  0  0
  -33.8670   11.9530  -15.4610 N   0  0  0  0  0  0  0  0  0  0  0  0
  -33.4340   11.1090  -15.1970 H   0  0  0  0  0  0  0  0  0  0  0  0
  -34.5240   13.3100  -17.0920 O   0  0  0  0  0  0  0  0  0  0  0  0
  -34.1740   12.7820  -19.3380 O   0  0  0  0  0  0  0  0  0  0  0  0
  -34.3800   12.8650  -14.4360 C   0  0  0  0  0  0  0  0  0  0  0  0
  -35.3840   12.1430  -13.5770 C   0  0  0  0  0  0  0  0  0  0  0  0
  -35.6560   10.8830  -13.8060 C   0  0  0  0  0  0  0  0  0  0  0  0
  1  3  1  0  0  0  0
  1 17  1  0  0  0  0
  2  1  2  0  0  0  0
  3  8  1  0  0  0  0
  4  3  2  0  0  0  0
  4  5  1  0  0  0  0
  5  6  2  0  0  0  0
  6  7  1  0  0  0  0
  7  9  1  0  0  0  0
  8  7  2  0  0  0  0
 10  9  1  0  0  0  0
 10 15  1  0  0  0  0
 11 12  1  0  0  0  0
 11 10  1  0  0  0  0
 12 13  2  0  0  0  0
 13 15  1  0  0  0  0
 14 11  2  0  0  0  0
 15 16  2  0  0  0  0
 17 19  1  0  0  0  0
 19 18  1  6  0  0  0
 19 20  1  0  0  0  0
 20 21  1  0  0  0  0
 21 22  1  0  0  0  0
 21 23  1  0  0  0  0
 23 24  1  0  0  0  0
 24 25  1  0  0  0  0
 24 28  1  0  0  0  0
 26 23  2  0  0  0  0
 27 20  2  0  0  0  0
 28 29  1  0  0  0  0
 30 29  2  0  0  0  0
M  END
>  <MODEL>
1

>  <REMARK>
 VINA RESULT:      -6.3      0.000      0.000
  Name = ZINC26997465
                            x       y       z     vdW  Elec       q    Type
                         _______ _______ _______ _____ _____    ______ ____

>  <TORSDO>
F 8

>  <vina_score>
-6.3

$$$$
ZINC01731417
 OpenBabel01081721433D

 22 22  0  0  0  0  0  0  0  0999 V2000
  -29.7160   13.9420  -18.5400 C   0  0  0  0  0  0  0  0  0  0  0  0
  -30.3320   12.7840  -18.0600 C   0  0  0  0  0  0  0  0  0  0  0  0
  -31.6350   12.4950  -18.4190 C   0  0  0  0  0  0  0  0  0  0  0  0
  -32.3300   13.3520  -19.2700 C   0  0  0  0  0  0  0  0  0  0  0  0
  -31.7160   14.5050  -19.7540 C   0  0  0  0  0  0  0  0  0  0  0  0
  -30.4150   14.8000  -19.3930 C   0  0  0  0  0  0  0  0  0  0  0  0
  -28.3270   14.2550  -18.1530 C   0  0  0  0  0  0  0  0  0  0  0  0
  -28.0090   14.2560  -16.9800 O   0  0  0  0  0  0  0  0  0  0  0  0
  -27.4140   14.5390  -19.0980 O   0  0  0  0  0  0  0  0  0  0  0  0
  -26.5490   13.7050  -19.2980 N   0  0  0  0  0  0  0  0  0  0  0  0
  -25.9340   13.4500  -18.5740 H   0  0  0  0  0  0  0  0  0  0  0  0
  -26.4340   13.1260  -20.5280 C   0  0  0  0  0  0  0  0  0  0  0  0
  -25.4210   12.3050  -20.7120 N   0  0  0  0  0  0  0  0  0  0  0  0
  -25.2960   11.8640  -21.5830 H   0  0  0  0  0  0  0  0  0  0  0  0
  -27.4420   13.4380  -21.6050 C   0  0  0  0  0  0  0  0  0  0  0  0
  -28.8000   12.2560  -21.5160 Cl  0  0  0  0  0  0  0  0  0  0  0  0
  -32.2370   11.3710  -17.9480 O   0  0  0  0  0  0  0  0  0  0  0  0
  -32.9070   11.4730  -16.6900 C   0  0  0  0  0  0  0  0  0  0  0  0
  -33.6090   13.0630  -19.6270 O   0  0  0  0  0  0  0  0  0  0  0  0
  -33.7880   12.1760  -20.7330 C   0  0  0  0  0  0  0  0  0  0  0  0
  -32.3980   15.3390  -20.5840 O   0  0  0  0  0  0  0  0  0  0  0  0
  -32.2630   16.7410  -20.3460 C   0  0  0  0  0  0  0  0  0  0  0  0
  1  7  1  0  0  0  0
  1  2  2  0  0  0  0
  3  2  1  0  0  0  0
  3 17  1  0  0  0  0
  4  3  2  0  0  0  0
  5  6  2  0  0  0  0
  5  4  1  0  0  0  0
  6  1  1  0  0  0  0
  7  8  2  0  0  0  0
  9  7  1  0  0  0  0
 10  9  1  0  0  0  0
 10 11  1  0  0  0  0
 12 10  1  0  0  0  0
 13 12  2  0  0  0  0
 14 13  1  0  0  0  0
 15 16  1  0  0  0  0
 15 12  1  0  0  0  0
 17 18  1  0  0  0  0
 19  4  1  0  0  0  0
 20 19  1  0  0  0  0
 21 22  1  0  0  0  0
 21  5  1  0  0  0  0
M  END
>  <MODEL>
1

>  <REMARK>
 VINA RESULT:      -6.3      0.000      0.000
  Name = ZINC01731417
                            x       y       z     vdW  Elec       q    Type
                         _______ _______ _______ _____ _____    ______ ____

>  <TORSDO>
F 8

>  <vina_score>
-6.3

$$$$
ZINC02861235
 OpenBabel01081721483D

 29 30  0  0  1  0  0  0  0  0999 V2000
  -29.8610   11.2900  -21.8730 C   0  0  0  0  0  0  0  0  0  0  0  0
  -28.7570   11.9010  -21.1090 N   0  0  0  0  0  0  0  0  0  0  0  0
  -28.8140   11.5910  -20.1380 H   0  0  0  0  0  0  0  0  0  0  0  0
  -27.8660   11.6130  -21.5150 H   0  0  0  0  0  0  0  0  0  0  0  0
  -28.8580   13.3710  -21.1500 C   0  0  1  0  0  0  0  0  0  0  0  0
  -28.8310   13.9080  -19.7420 C   0  0  0  0  0  0  0  0  0  0  0  0
  -28.7230   13.0390  -18.6720 C   0  0  0  0  0  0  0  0  0  0  0  0
  -28.6990   13.5320  -17.3810 C   0  0  0  0  0  0  0  0  0  0  0  0
  -28.7820   14.8930  -17.1590 C   0  0  0  0  0  0  0  0  0  0  0  0
  -28.8910   15.7630  -18.2290 C   0  0  0  0  0  0  0  0  0  0  0  0
  -28.9150   15.2700  -19.5200 C   0  0  0  0  0  0  0  0  0  0  0  0
  -27.6770   13.9420  -21.9360 C   0  0  0  0  0  0  0  0  0  0  0  0
  -26.4150   13.7990  -21.1240 C   0  0  0  0  0  0  0  0  0  0  0  0
  -26.0440   12.5930  -20.6680 O   0  0  0  0  0  0  0  0  0  0  0  0
  -25.7380   14.7710  -20.8850 O   0  0  0  0  0  0  0  0  0  0  0  0
  -31.1680   12.0010  -21.5220 C   0  0  0  0  0  0  0  0  0  0  0  0
  -32.0840   11.0390  -20.7610 C   0  0  1  0  0  0  0  0  0  0  0  0
  -33.0230   12.6910  -16.9340 C   0  0  0  0  0  0  0  0  0  0  0  0
  -33.7490   13.0740  -18.0520 C   0  0  0  0  0  0  0  0  0  0  0  0
  -33.4430   12.5390  -19.2880 C   0  0  0  0  0  0  0  0  0  0  0  0
  -32.4150   11.6220  -19.4110 C   0  0  0  0  0  0  0  0  0  0  0  0
  -31.6940   11.2350  -18.2970 C   0  0  0  0  0  0  0  0  0  0  0  0
  -31.9920   11.7720  -17.0590 C   0  0  0  0  0  0  0  0  0  0  0  0
  -33.3220   13.2150  -15.7160 O   0  0  0  0  0  0  0  0  0  0  0  0
  -34.5870   12.8660  -15.1510 C   0  0  0  0  0  0  0  0  0  0  0  0
  -35.6400   11.1510  -13.6700 C   0  0  0  0  0  0  0  0  0  0  0  0
  -34.5730   11.3920  -14.7410 C   0  0  0  0  0  0  0  0  0  0  0  0
  -33.2890   10.8420  -21.5030 O   0  0  0  0  0  0  0  0  0  0  0  0
  -33.2780   11.4030  -22.2940 H   0  0  0  0  0  0  0  0  0  0  0  0
  1 16  1  0  0  0  0
  1  2  1  0  0  0  0
  2  3  1  0  0  0  0
  4  2  1  0  0  0  0
  5 12  1  6  0  0  0
  5  2  1  0  0  0  0
  5  6  1  0  0  0  0
  6 11  2  0  0  0  0
  6  7  1  0  0  0  0
  7  8  2  0  0  0  0
  8  9  1  0  0  0  0
 10  9  2  0  0  0  0
 11 10  1  0  0  0  0
 12 13  1  0  0  0  0
 13 15  2  0  0  0  0
 13 14  1  0  0  0  0
 17 16  1  6  0  0  0
 17 21  1  0  0  0  0
 18 24  1  0  0  0  0
 19 18  2  0  0  0  0
 20 19  1  0  0  0  0
 21 20  2  0  0  0  0
 21 22  1  0  0  0  0
 22 23  2  0  0  0  0
 23 18  1  0  0  0  0
 24 25  1  0  0  0  0
 25 27  1  0  0  0  0
 27 26  1  0  0  0  0
 28 17  1  0  0  0  0
 29 28  1  0  0  0  0
M  END
>  <MODEL>
1

>  <REMARK>
 VINA RESULT:      -6.2      0.000      0.000
  Name = ZINC02861235
                            x       y       z     vdW  Elec       q    Type
                         _______ _______ _______ _____ _____    ______ ____

>  <TORSDO>
F 12

>  <vina_score>
-6.2

$$$$
ZINC05132239
 OpenBabel01081721463D

 23 22  0  0  0  0  0  0  0  0999 V2000
  -27.5570   14.9660  -17.8840 C   0  0  0  0  0  0  0  0  0  0  0  0
  -28.6930   14.6750  -18.8300 C   0  0  0  0  0  0  0  0  0  0  0  0
  -29.6900   13.8350  -18.4560 C   0  0  0  0  0  0  0  0  0  0  0  0
  -28.7180   15.2580  -20.0650 N   0  0  0  0  0  0  0  0  0  0  0  0
  -29.3160   16.0220  -20.2360 H   0  0  0  0  0  0  0  0  0  0  0  0
  -27.8950   14.7700  -21.0880 N   0  0  0  0  0  0  0  0  0  0  0  0
  -27.2530   15.3690  -21.5320 H   0  0  0  0  0  0  0  0  0  0  0  0
  -27.9840   13.4530  -21.4720 C   0  0  0  0  0  0  0  0  0  0  0  0
  -27.0270   12.5550  -21.2030 N   0  0  0  0  0  0  0  0  0  0  0  0
  -27.1370   11.6200  -21.4850 H   0  0  0  0  0  0  0  0  0  0  0  0
  -25.7860   12.9780  -20.4680 C   0  0  0  0  0  0  0  0  0  0  0  0
  -29.0880   13.0110  -22.1610 N   0  0  0  0  0  0  0  0  0  0  0  0
  -29.8160   13.6370  -22.3780 H   0  0  0  0  0  0  0  0  0  0  0  0
  -29.1500   12.0680  -22.4390 H   0  0  0  0  0  0  0  0  0  0  0  0
  -30.6410   13.4950  -19.3310 N   0  0  0  0  0  0  0  0  0  0  0  0
  -31.7450   14.1600  -19.3730 N   0  0  0  0  0  0  0  0  0  0  0  0
  -32.7540   13.7510  -20.1890 C   0  0  0  0  0  0  0  0  0  0  0  0
  -33.7430   13.0500  -19.7030 N   0  0  0  0  0  0  0  0  0  0  0  0
  -34.4300   12.6810  -20.3060 H   0  0  0  0  0  0  0  0  0  0  0  0
  -33.8330   12.8110  -18.2600 C   0  0  0  0  0  0  0  0  0  0  0  0
  -32.7330   14.0760  -21.5300 N   0  0  0  0  0  0  0  0  0  0  0  0
  -31.8750   14.2340  -21.9850 H   0  0  0  0  0  0  0  0  0  0  0  0
  -33.5770   14.1500  -22.0320 H   0  0  0  0  0  0  0  0  0  0  0  0
  2  3  2  0  0  0  0
  2  1  1  0  0  0  0
  4  2  1  0  0  0  0
  5  4  1  0  0  0  0
  6  4  1  0  0  0  0
  7  6  1  0  0  0  0
  8  9  1  0  0  0  0
  8  6  1  0  0  0  0
  9 11  1  0  0  0  0
 10  9  1  0  0  0  0
 12  8  2  0  0  0  0
 13 12  1  0  0  0  0
 14 12  1  0  0  0  0
 15  3  1  0  0  0  0
 16 15  1  0  0  0  0
 17 18  1  0  0  0  0
 17 16  2  0  0  0  0
 18 20  1  0  0  0  0
 19 18  1  0  0  0  0
 21 17  1  0  0  0  0
 22 21  1  0  0  0  0
 23 21  1  0  0  0  0
M  END
>  <MODEL>
1

>  <REMARK>
 VINA RESULT:      -6.2      0.000      0.000
  Name = ZINC05132239
                            x       y       z     vdW  Elec       q    Type
                         _______ _______ _______ _____ _____    ______ ____

>  <TORSDO>
F 7

>  <vina_score>
-6.2

$$$$
ZINC05835556
 OpenBabel01081721493D

 23 24  0  0  1  0  0  0  0  0999 V2000
  -31.7430   12.9160  -18.7980 C   0  0  2  0  0  0  0  0  0  0  0  0
  -33.0280   13.2640  -19.5480 C   0  0  0  0  0  0  0  0  0  0  0  0
  -30.4610   13.4410  -19.3000 N   0  0  0  0  0  0  0  0  0  0  0  0
  -29.4440   13.9330  -18.5650 C   0  0  0  0  0  0  0  0  0  0  0  0
  -29.5690   14.0650  -17.3660 O   0  0  0  0  0  0  0  0  0  0  0  0
  -30.5190   13.3250  -20.7750 C   0  0  0  0  0  0  0  0  0  0  0  0
  -31.2180   11.9470  -20.9860 C   0  0  0  0  0  0  0  0  0  0  0  0
  -32.2790   11.9380  -19.8600 C   0  0  1  0  0  0  0  0  0  0  0  0
  -31.8220   12.5810  -17.3300 C   0  0  0  0  0  0  0  0  0  0  0  0
  -31.0610   11.7720  -16.8530 O   0  0  0  0  0  0  0  0  0  0  0  0
  -32.7380   13.1790  -16.5540 O   0  0  0  0  0  0  0  0  0  0  0  0
  -33.8690   12.3740  -16.1270 C   0  0  0  0  0  0  0  0  0  0  0  0
  -35.1960   11.8420  -14.0780 C   0  0  0  0  0  0  0  0  0  0  0  0
  -34.4370   12.9410  -14.8250 C   0  0  0  0  0  0  0  0  0  0  0  0
  -28.1500   14.3200  -19.2340 C   0  0  1  0  0  0  0  0  0  0  0  0
  -27.5560   15.4560  -18.5080 N   0  0  0  0  0  0  0  0  0  0  0  0
  -28.2030   15.7730  -17.7850 H   0  0  0  0  0  0  0  0  0  0  0  0
  -26.6800   15.1620  -18.0750 H   0  0  0  0  0  0  0  0  0  0  0  0
  -27.3740   16.2190  -19.1590 H   0  0  0  0  0  0  0  0  0  0  0  0
  -27.1950   13.1240  -19.2270 C   0  0  0  0  0  0  0  0  0  0  0  0
  -26.1520   13.3080  -20.2990 C   0  0  0  0  0  0  0  0  0  0  0  0
  -26.1200   14.4420  -21.0160 O   0  0  0  0  0  0  0  0  0  0  0  0
  -25.3440   12.4350  -20.5120 O   0  0  0  0  0  0  0  0  0  0  0  0
  1  9  1  1  0  0  0
  2  1  1  0  0  0  0
  3  1  1  0  0  0  0
  3  4  1  0  0  0  0
  4  5  2  0  0  0  0
  6  3  1  0  0  0  0
  7  6  1  0  0  0  0
  8  7  1  6  0  0  0
  8  2  1  0  0  0  0
  8  1  1  0  0  0  0
  9 10  2  0  0  0  0
  9 11  1  0  0  0  0
 11 12  1  0  0  0  0
 12 14  1  0  0  0  0
 14 13  1  0  0  0  0
 15 20  1  1  0  0  0
 15  4  1  0  0  0  0
 15 16  1  0  0  0  0
 16 18  1  0  0  0  0
 16 17  1  0  0  0  0
 19 16  1  0  0  0  0
 21 20  1  0  0  0  0
 22 21  2  0  0  0  0
 23 21  1  0  0  0  0
M  END
>  <MODEL>
1

>  <REMARK>
 VINA RESULT:      -6.2      0.000      0.000
  Name = ZINC05835556
                            x       y       z     vdW  Elec       q    Type
                         _______ _______ _______ _____ _____    ______ ____

>  <TORSDO>
F 8

>  <vina_score>
-6.2

$$$$
ZINC01818846
 OpenBabel01081721503D

 24 24  0  0  0  0  0  0  0  0999 V2000
  -29.3090   12.9960  -21.7760 N   0  0  0  0  0  0  0  0  0  0  0  0
  -29.2440   12.8890  -22.7530 H   0  0  0  0  0  0  0  0  0  0  0  0
  -31.6700   12.7370  -21.6120 C   0  0  0  0  0  0  0  0  0  0  0  0
  -30.5360   13.3300  -21.1890 N   0  0  0  0  0  0  0  0  0  0  0  0
  -30.5710   13.9990  -20.4670 H   0  0  0  0  0  0  0  0  0  0  0  0
  -31.6280   11.9120  -22.5010 O   0  0  0  0  0  0  0  0  0  0  0  0
  -32.9900   13.0960  -20.9800 C   0  0  0  0  0  0  0  0  0  0  0  0
  -33.6840   11.8250  -20.4900 C   0  0  0  0  0  0  0  0  0  0  0  0
  -33.1560   11.4580  -19.1010 C   0  0  0  0  0  0  0  0  0  0  0  0
  -33.4620   12.5930  -18.1220 C   0  0  0  0  0  0  0  0  0  0  0  0
  -32.2260   12.8720  -17.2630 C   0  0  0  0  0  0  0  0  0  0  0  0
  -31.2610   13.5880  -18.0360 O   0  0  0  0  0  0  0  0  0  0  0  0
  -31.4480   14.5390  -17.9880 H   0  0  0  0  0  0  0  0  0  0  0  0
  -28.1940   12.8170  -20.9880 C   0  0  0  0  0  0  0  0  0  0  0  0
  -27.0190   12.4510  -21.4760 N   0  0  0  0  0  0  0  0  0  0  0  0
  -26.9150   12.2930  -22.4430 H   0  0  0  0  0  0  0  0  0  0  0  0
  -28.2760   13.0360  -19.5250 C   0  0  0  0  0  0  0  0  0  0  0  0
  -27.7720   14.1790  -18.7280 C   0  0  0  0  0  0  0  0  0  0  0  0
  -28.1130   13.8460  -17.5050 N   0  0  0  0  0  0  0  0  0  0  0  0
  -28.6880   12.7840  -17.5220 O   0  0  0  0  0  0  0  0  0  0  0  0
  -28.8170   12.2660  -18.6060 N   0  0  0  0  0  0  0  0  0  0  0  0
  -27.1020   15.3140  -19.1660 N   0  0  0  0  0  0  0  0  0  0  0  0
  -26.1250   15.3790  -19.0610 H   0  0  0  0  0  0  0  0  0  0  0  0
  -27.6030   16.0520  -19.5820 H   0  0  0  0  0  0  0  0  0  0  0  0
  1  4  1  0  0  0  0
  1 14  1  0  0  0  0
  2  1  1  0  0  0  0
  3  4  1  0  0  0  0
  3  7  1  0  0  0  0
  4  5  1  0  0  0  0
  6  3  2  0  0  0  0
  7  8  1  0  0  0  0
  8  9  1  0  0  0  0
  9 10  1  0  0  0  0
 10 11  1  0  0  0  0
 12 13  1  0  0  0  0
 12 11  1  0  0  0  0
 14 17  1  0  0  0  0
 15 14  2  0  0  0  0
 16 15  1  0  0  0  0
 17 18  1  0  0  0  0
 17 21  2  0  0  0  0
 18 19  2  0  0  0  0
 20 19  1  0  0  0  0
 21 20  1  0  0  0  0
 22 23  1  0  0  0  0
 22 18  1  0  0  0  0
 24 22  1  0  0  0  0
M  END
>  <MODEL>
1

>  <REMARK>
 VINA RESULT:      -6.2      0.000      0.000
  Name = ZINC01818846
                            x       y       z     vdW  Elec       q    Type
                         _______ _______ _______ _____ _____    ______ ____

>  <TORSDO>
F 10

>  <vina_score>
-6.2

$$$$
ZINC07149658
 OpenBabel01081721533D

 21 21  0  0  0  0  0  0  0  0999 V2000
  -30.1690   13.7090  -19.4010 C   0  0  0  0  0  0  0  0  0  0  0  0
  -31.4030   13.3740  -19.9720 C   0  0  0  0  0  0  0  0  0  0  0  0
  -32.3190   12.6660  -19.1950 C   0  0  0  0  0  0  0  0  0  0  0  0
  -31.9730   12.3300  -17.8720 C   0  0  0  0  0  0  0  0  0  0  0  0
  -30.7940   12.6740  -17.3720 N   0  0  0  0  0  0  0  0  0  0  0  0
  -29.9050   13.3360  -18.0790 C   0  0  0  0  0  0  0  0  0  0  0  0
  -28.5810   13.7000  -17.4560 C   0  0  0  0  0  0  0  0  0  0  0  0
  -29.1630   14.4520  -20.1820 C   0  0  0  0  0  0  0  0  0  0  0  0
  -29.0970   15.6630  -20.0930 O   0  0  0  0  0  0  0  0  0  0  0  0
  -28.3160   13.7900  -20.9940 O   0  0  0  0  0  0  0  0  0  0  0  0
  -26.1410   12.9850  -20.2520 C   0  0  0  0  0  0  0  0  0  0  0  0
  -26.9090   14.1370  -20.9030 C   0  0  0  0  0  0  0  0  0  0  0  0
  -33.5930   12.2920  -19.7320 C   0  0  0  0  0  0  0  0  0  0  0  0
  -34.6040   11.9960  -20.1580 N   0  0  0  0  0  0  0  0  0  0  0  0
  -33.1190   11.4410  -16.8690 S   0  0  0  0  0  0  0  0  0  0  0  0
  -33.8220   12.8060  -15.9110 C   0  0  0  0  0  0  0  0  0  0  0  0
  -34.6460   12.2510  -14.7780 C   0  0  0  0  0  0  0  0  0  0  0  0
  -35.0050   13.0480  -13.7530 N   0  0  0  0  0  0  0  0  0  0  0  0
  -35.5430   12.6860  -13.0120 H   0  0  0  0  0  0  0  0  0  0  0  0
  -34.7280   13.9920  -13.7420 H   0  0  0  0  0  0  0  0  0  0  0  0
  -34.9880   11.0880  -14.7900 O   0  0  0  0  0  0  0  0  0  0  0  0
  1  6  1  0  0  0  0
  2  1  2  0  0  0  0
  2  3  1  0  0  0  0
  3  4  2  0  0  0  0
  4  5  1  0  0  0  0
  4 15  1  0  0  0  0
  6  7  1  0  0  0  0
  6  5  2  0  0  0  0
  8  9  2  0  0  0  0
  8  1  1  0  0  0  0
 10 12  1  0  0  0  0
 10  8  1  0  0  0  0
 12 11  1  0  0  0  0
 13  3  1  0  0  0  0
 14 13  3  0  0  0  0
 15 16  1  0  0  0  0
 16 17  1  0  0  0  0
 17 18  1  0  0  0  0
 18 20  1  0  0  0  0
 18 19  1  0  0  0  0
 21 17  2  0  0  0  0
M  END
>  <MODEL>
1

>  <REMARK>
 VINA RESULT:      -6.2      0.000      0.000
  Name = ZINC07149658
                            x       y       z     vdW  Elec       q    Type
                         _______ _______ _______ _____ _____    ______ ____

>  <TORSDO>
F 7

>  <vina_score>
-6.2

$$$$
ZINC21981399
 OpenBabel01081721373D

 29 30  0  0  1  0  0  0  0  0999 V2000
  -30.4290   12.2030  -21.8170 C   0  0  0  0  0  0  0  0  0  0  0  0
  -30.1580   13.1550  -20.7380 N   0  0  0  0  0  0  0  0  0  0  0  0
  -30.9430   14.2190  -20.3020 C   0  0  0  0  0  0  0  0  0  0  0  0
  -30.2290   15.1790  -19.7660 N   0  0  0  0  0  0  0  0  0  0  0  0
  -28.8380   14.7810  -19.8550 C   0  0  1  0  0  0  0  0  0  0  0  0
  -27.8830   15.0740  -18.7490 C   0  0  0  0  0  0  0  0  0  0  0  0
  -28.0300   15.9970  -17.9770 O   0  0  0  0  0  0  0  0  0  0  0  0
  -26.8230   14.2070  -18.6860 N   0  0  0  0  0  0  0  0  0  0  0  0
  -26.1730   14.2760  -17.9510 H   0  0  0  0  0  0  0  0  0  0  0  0
  -26.6710   13.2320  -19.6610 C   0  0  0  0  0  0  0  0  0  0  0  0
  -27.7180   12.7030  -20.2660 N   0  0  0  0  0  0  0  0  0  0  0  0
  -29.0010   13.2240  -19.8530 C   0  0  2  0  0  0  0  0  0  0  0  0
  -25.4080   12.8110  -20.0030 N   0  0  0  0  0  0  0  0  0  0  0  0
  -24.7070   12.7500  -19.3150 H   0  0  0  0  0  0  0  0  0  0  0  0
  -25.2050   12.5710  -20.9360 H   0  0  0  0  0  0  0  0  0  0  0  0
  -31.8150   12.2500  -22.1580 O   0  0  0  0  0  0  0  0  0  0  0  0
  -32.6220   11.3110  -21.4430 C   0  0  0  0  0  0  0  0  0  0  0  0
  -33.7590   12.0510  -20.7350 C   0  0  0  0  0  0  0  0  0  0  0  0
  -33.9200   11.5200  -19.3930 O   0  0  0  0  0  0  0  0  0  0  0  0
  -33.6370   12.3460  -18.3730 C   0  0  0  0  0  0  0  0  0  0  0  0
  -33.6750   13.5420  -18.5370 O   0  0  0  0  0  0  0  0  0  0  0  0
  -33.2730   11.7810  -17.0250 C   0  0  2  0  0  0  0  0  0  0  0  0
  -33.7350   12.6930  -15.9710 N   0  0  0  0  0  0  0  0  0  0  0  0
  -33.7140   12.2120  -15.0710 H   0  0  0  0  0  0  0  0  0  0  0  0
  -33.1230   13.5080  -15.9330 H   0  0  0  0  0  0  0  0  0  0  0  0
  -34.6890   12.9930  -16.1740 H   0  0  0  0  0  0  0  0  0  0  0  0
  -31.2510   10.8030  -18.1200 C   0  0  0  0  0  0  0  0  0  0  0  0
  -31.7540   11.6230  -16.9310 C   0  0  0  0  0  0  0  0  0  0  0  0
  -31.0960   13.0040  -16.9480 C   0  0  0  0  0  0  0  0  0  0  0  0
  1  2  1  0  0  0  0
  2  3  1  0  0  0  0
  3  4  1  0  0  0  0
  5 12  1  0  0  0  0
  5  4  1  1  0  0  0
  5  6  1  0  0  0  0
  6  8  1  0  0  0  0
  6  7  2  0  0  0  0
  8  9  1  0  0  0  0
 10  8  1  0  0  0  0
 11 12  1  0  0  0  0
 11 10  2  0  0  0  0
 12  2  1  6  0  0  0
 13 10  1  0  0  0  0
 13 14  1  0  0  0  0
 15 13  1  0  0  0  0
 16  1  1  0  0  0  0
 16 17  1  0  0  0  0
 17 18  1  0  0  0  0
 18 19  1  0  0  0  0
 19 20  1  0  0  0  0
 21 20  2  0  0  0  0
 22 20  1  6  0  0  0
 22 28  1  0  0  0  0
 22 23  1  0  0  0  0
 23 25  1  0  0  0  0
 23 24  1  0  0  0  0
 26 23  1  0  0  0  0
 27 28  1  0  0  0  0
 29 28  1  0  0  0  0
M  END
>  <MODEL>
1

>  <REMARK>
 VINA RESULT:      -6.2      0.000      0.000
  Name = ZINC21981399
                            x       y       z     vdW  Elec       q    Type
                         _______ _______ _______ _____ _____    ______ ____

>  <TORSDO>
F 10

>  <vina_score>
-6.2

$$$$
ZINC17002242
 OpenBabel01081721553D

 22 22  0  0  0  0  0  0  0  0999 V2000
  -29.9660   12.0510  -21.4950 N   0  0  0  0  0  0  0  0  0  0  0  0
  -31.0730   12.4080  -22.0530 N   0  0  0  0  0  0  0  0  0  0  0  0
  -32.2240   12.4560  -21.3180 C   0  0  0  0  0  0  0  0  0  0  0  0
  -32.6510   13.5130  -20.5190 C   0  0  0  0  0  0  0  0  0  0  0  0
  -33.8590   13.1140  -19.9750 N   0  0  0  0  0  0  0  0  0  0  0  0
  -34.4260   13.6390  -19.3650 H   0  0  0  0  0  0  0  0  0  0  0  0
  -34.1160   11.8760  -20.4350 C   0  0  0  0  0  0  0  0  0  0  0  0
  -33.1540   11.4910  -21.2310 N   0  0  0  0  0  0  0  0  0  0  0  0
  -31.9640   14.7850  -20.3000 C   0  0  0  0  0  0  0  0  0  0  0  0
  -30.6160   14.8290  -20.2810 N   0  0  0  0  0  0  0  0  0  0  0  0
  -30.1540   15.6850  -20.1340 H   0  0  0  0  0  0  0  0  0  0  0  0
  -30.0950   14.0030  -20.4140 H   0  0  0  0  0  0  0  0  0  0  0  0
  -32.6080   15.8040  -20.1350 O   0  0  0  0  0  0  0  0  0  0  0  0
  -28.7850   12.0020  -22.2490 N   0  0  0  0  0  0  0  0  0  0  0  0
  -28.6200   11.2460  -22.8570 H   0  0  0  0  0  0  0  0  0  0  0  0
  -27.7970   13.0780  -22.1340 C   0  0  0  0  0  0  0  0  0  0  0  0
  -27.0760   12.9670  -20.7890 C   0  0  0  0  0  0  0  0  0  0  0  0
  -27.0690   14.3330  -20.1000 C   0  0  0  0  0  0  0  0  0  0  0  0
  -27.8250   15.3150  -18.0210 C   0  0  0  0  0  0  0  0  0  0  0  0
  -27.1960   14.1310  -18.6410 N   0  0  0  0  0  0  0  0  0  0  0  0
  -26.2670   14.0020  -18.2420 H   0  0  0  0  0  0  0  0  0  0  0  0
  -28.0060   12.9260  -18.3680 C   0  0  0  0  0  0  0  0  0  0  0  0
  2  1  2  0  0  0  0
  2  3  1  0  0  0  0
  3  8  1  0  0  0  0
  3  4  2  0  0  0  0
  4  9  1  0  0  0  0
  4  5  1  0  0  0  0
  5  6  1  0  0  0  0
  7  5  1  0  0  0  0
  8  7  2  0  0  0  0
  9 10  1  0  0  0  0
  9 13  2  0  0  0  0
 10 11  1  0  0  0  0
 12 10  1  0  0  0  0
 14 16  1  0  0  0  0
 14  1  1  0  0  0  0
 15 14  1  0  0  0  0
 16 17  1  0  0  0  0
 17 18  1  0  0  0  0
 18 20  1  0  0  0  0
 20 22  1  0  0  0  0
 20 21  1  0  0  0  0
 20 19  1  0  0  0  0
M  END
>  <MODEL>
1

>  <REMARK>
 VINA RESULT:      -6.2      0.000      0.000
  Name = ZINC17002242
                            x       y       z     vdW  Elec       q    Type
                         _______ _______ _______ _____ _____    ______ ____

>  <TORSDO>
F 7

>  <vina_score>
-6.2

$$$$
ZINC04226538
 OpenBabel01081722003D

 22 23  0  0  1  0  0  0  0  0999 V2000
  -33.0270   10.9890  -21.3980 C   0  0  0  0  0  0  0  0  0  0  0  0
  -31.9720   11.5540  -20.4830 C   0  0  0  0  0  0  0  0  0  0  0  0
  -30.7750   11.8270  -21.0510 N   0  0  0  0  0  0  0  0  0  0  0  0
  -30.6020   11.6670  -22.0070 H   0  0  0  0  0  0  0  0  0  0  0  0
  -29.8130   12.3430  -20.2080 C   0  0  0  0  0  0  0  0  0  0  0  0
  -28.5530   12.6410  -20.7520 C   0  0  0  0  0  0  0  0  0  0  0  0
  -27.5630   13.1600  -19.9350 C   0  0  1  0  0  0  0  0  0  0  0  0
  -27.8080   13.3890  -18.5700 C   0  0  0  0  0  0  0  0  0  0  0  0
  -29.0210   13.1050  -18.0270 C   0  0  0  0  0  0  0  0  0  0  0  0
  -30.0440   12.5790  -18.8310 C   0  0  0  0  0  0  0  0  0  0  0  0
  -31.3180   12.2750  -18.2900 C   0  0  0  0  0  0  0  0  0  0  0  0
  -32.2770   11.7520  -19.1420 C   0  0  0  0  0  0  0  0  0  0  0  0
  -26.2360   13.4760  -20.5030 C   0  0  0  0  0  0  0  0  0  0  0  0
  -25.2520   12.5560  -20.4720 O   0  0  0  0  0  0  0  0  0  0  0  0
  -26.0310   14.5660  -20.9990 O   0  0  0  0  0  0  0  0  0  0  0  0
  -31.5930   12.4870  -16.9480 N   0  0  0  0  0  0  0  0  0  0  0  0
  -30.9940   13.0490  -16.4050 H   0  0  0  0  0  0  0  0  0  0  0  0
  -32.7770   11.8780  -16.3380 C   0  0  0  0  0  0  0  0  0  0  0  0
  -33.7580   12.9760  -15.9210 C   0  0  0  0  0  0  0  0  0  0  0  0
  -34.6270   12.4720  -14.7660 C   0  0  0  0  0  0  0  0  0  0  0  0
  -34.6690   13.4620  -13.7350 O   0  0  0  0  0  0  0  0  0  0  0  0
  -35.5630   13.8360  -13.6850 H   0  0  0  0  0  0  0  0  0  0  0  0
  1  2  1  0  0  0  0
  2 12  2  0  0  0  0
  3  2  1  0  0  0  0
  3  5  1  0  0  0  0
  4  3  1  0  0  0  0
  5 10  1  0  0  0  0
  6  5  2  0  0  0  0
  6  7  1  0  0  0  0
  7 13  1  1  0  0  0
  7  8  1  0  0  0  0
  8  9  2  0  0  0  0
 10 11  2  0  0  0  0
 10  9  1  0  0  0  0
 11 16  1  0  0  0  0
 12 11  1  0  0  0  0
 13 14  1  0  0  0  0
 15 13  2  0  0  0  0
 16 17  1  0  0  0  0
 16 18  1  0  0  0  0
 18 19  1  0  0  0  0
 19 20  1  0  0  0  0
 20 21  1  0  0  0  0
 21 22  1  0  0  0  0
M  END
>  <MODEL>
1

>  <REMARK>
 VINA RESULT:      -6.2      0.000      0.000
  Name = ZINC04226538
                            x       y       z     vdW  Elec       q    Type
                         _______ _______ _______ _____ _____    ______ ____

>  <TORSDO>
F 6

>  <vina_score>
-6.2

$$$$
ZINC29823259
 OpenBabel01081722003D

 27 28  0  0  0  0  0  0  0  0999 V2000
  -29.9030   13.0920  -19.5150 N   0  0  0  0  0  0  0  0  0  0  0  0
  -31.0660   13.6990  -20.1780 C   0  0  0  0  0  0  0  0  0  0  0  0
  -32.3380   13.3220  -19.4160 C   0  0  0  0  0  0  0  0  0  0  0  0
  -32.4650   11.8590  -19.3730 N   0  0  0  0  0  0  0  0  0  0  0  0
  -32.4930   11.5160  -20.3330 H   0  0  0  0  0  0  0  0  0  0  0  0
  -31.3020   11.2520  -18.7100 C   0  0  0  0  0  0  0  0  0  0  0  0
  -30.0290   11.6290  -19.4720 C   0  0  0  0  0  0  0  0  0  0  0  0
  -28.9110   12.0740  -22.2410 C   0  0  0  0  0  0  0  0  0  0  0  0
  -28.2520   13.0350  -21.3540 N   0  0  0  0  0  0  0  0  0  0  0  0
  -27.0650   13.6620  -21.5790 C   0  0  0  0  0  0  0  0  0  0  0  0
  -26.8030   14.4380  -20.5650 N   0  0  0  0  0  0  0  0  0  0  0  0
  -27.7950   14.3460  -19.6650 C   0  0  0  0  0  0  0  0  0  0  0  0
  -28.7160   13.4740  -20.1420 C   0  0  0  0  0  0  0  0  0  0  0  0
  -27.8710   15.0720  -18.3760 N   0  0  0  0  0  0  0  0  0  0  0  0
  -28.3740   16.1790  -18.3310 O   0  0  0  0  0  0  0  0  0  0  0  0
  -27.4310   14.5610  -17.3620 O   0  0  0  0  0  0  0  0  0  0  0  0
  -33.7150   11.4570  -18.7140 C   0  0  0  0  0  0  0  0  0  0  0  0
  -33.3950   10.8030  -17.3680 C   0  0  0  0  0  0  0  0  0  0  0  0
  -33.8280   11.7170  -16.2510 C   0  0  0  0  0  0  0  0  0  0  0  0
  -34.5850   11.2390  -15.2440 N   0  0  0  0  0  0  0  0  0  0  0  0
  -34.8550   10.2920  -15.2370 H   0  0  0  0  0  0  0  0  0  0  0  0
  -34.9730   12.0560  -14.2450 C   0  0  0  0  0  0  0  0  0  0  0  0
  -35.7300   11.5770  -13.2380 N   0  0  0  0  0  0  0  0  0  0  0  0
  -36.0130   12.1740  -12.5080 H   0  0  0  0  0  0  0  0  0  0  0  0
  -35.9990   10.6310  -13.2310 H   0  0  0  0  0  0  0  0  0  0  0  0
  -34.6410   13.2250  -14.2530 O   0  0  0  0  0  0  0  0  0  0  0  0
  -33.4970   12.8830  -16.2590 O   0  0  0  0  0  0  0  0  0  0  0  0
  1  7  1  0  0  0  0
  2  1  1  0  0  0  0
  2  3  1  0  0  0  0
  3  4  1  0  0  0  0
  4 17  1  0  0  0  0
  4  6  1  0  0  0  0
  5  4  1  0  0  0  0
  7  6  1  0  0  0  0
  8  9  1  0  0  0  0
  9 13  1  0  0  0  0
 10  9  1  0  0  0  0
 10 11  2  0  0  0  0
 11 12  1  0  0  0  0
 12 14  1  0  0  0  0
 13 12  2  0  0  0  0
 13  1  1  0  0  0  0
 14 15  2  0  0  0  0
 14 16  2  0  0  0  0
 17 18  1  0  0  0  0
 18 19  1  0  0  0  0
 19 20  1  0  0  0  0
 20 21  1  0  0  0  0
 20 22  1  0  0  0  0
 22 23  1  0  0  0  0
 23 25  1  0  0  0  0
 23 24  1  0  0  0  0
 26 22  2  0  0  0  0
 27 19  2  0  0  0  0
M  END
>  <MODEL>
1

>  <REMARK>
 VINA RESULT:      -6.2      0.000      0.000
  Name = ZINC29823259
                            x       y       z     vdW  Elec       q    Type
                         _______ _______ _______ _____ _____    ______ ____

>  <TORSDO>
F 5

>  <vina_score>
-6.2

$$$$
ZINC07699012
 OpenBabel01081722013D

 24 25  0  0  0  0  0  0  0  0999 V2000
  -29.1600   11.5020  -21.4310 N   0  0  0  0  0  0  0  0  0  0  0  0
  -28.7380   11.2430  -20.5800 H   0  0  0  0  0  0  0  0  0  0  0  0
  -30.5030   11.5160  -21.5410 C   0  0  0  0  0  0  0  0  0  0  0  0
  -31.2690   11.1730  -20.4860 N   0  0  0  0  0  0  0  0  0  0  0  0
  -30.8470   10.9140  -19.6350 H   0  0  0  0  0  0  0  0  0  0  0  0
  -32.6120   11.1860  -20.5950 C   0  0  0  0  0  0  0  0  0  0  0  0
  -33.1320   11.5060  -21.6430 O   0  0  0  0  0  0  0  0  0  0  0  0
  -31.0240   11.8360  -22.5910 O   0  0  0  0  0  0  0  0  0  0  0  0
  -28.3280   11.8740  -22.5780 C   0  0  0  0  0  0  0  0  0  0  0  0
  -27.8340   13.3120  -22.4050 C   0  0  0  0  0  0  0  0  0  0  0  0
  -26.1580   14.3890  -21.0720 C   0  0  0  0  0  0  0  0  0  0  0  0
  -27.2440   13.4610  -21.1120 O   0  0  0  0  0  0  0  0  0  0  0  0
  -33.4680   10.8030  -19.4160 C   0  0  0  0  0  0  0  0  0  0  0  0
  -33.7510   12.2610  -18.3750 S   0  0  0  0  0  0  0  0  0  0  0  0
  -32.2910   13.2250  -18.5830 C   0  0  0  0  0  0  0  0  0  0  0  0
  -32.2600   14.2460  -19.5250 C   0  0  0  0  0  0  0  0  0  0  0  0
  -31.1150   15.0000  -19.6890 C   0  0  0  0  0  0  0  0  0  0  0  0
  -29.9930   14.7410  -18.9160 C   0  0  0  0  0  0  0  0  0  0  0  0
  -30.0210   13.7220  -17.9720 C   0  0  0  0  0  0  0  0  0  0  0  0
  -28.9320   13.4590  -17.1980 O   0  0  0  0  0  0  0  0  0  0  0  0
  -27.6800   13.9880  -17.6470 C   0  0  0  0  0  0  0  0  0  0  0  0
  -27.8940   15.4530  -18.0510 C   0  0  0  0  0  0  0  0  0  0  0  0
  -28.8690   15.4900  -19.0990 O   0  0  0  0  0  0  0  0  0  0  0  0
  -31.1700   12.9640  -17.8070 C   0  0  0  0  0  0  0  0  0  0  0  0
  1  2  1  0  0  0  0
  3  1  1  0  0  0  0
  3  4  1  0  0  0  0
  4  5  1  0  0  0  0
  6  4  1  0  0  0  0
  6 13  1  0  0  0  0
  7  6  2  0  0  0  0
  8  3  2  0  0  0  0
  9 10  1  0  0  0  0
  9  1  1  0  0  0  0
 10 12  1  0  0  0  0
 12 11  1  0  0  0  0
 13 14  1  0  0  0  0
 15 14  1  0  0  0  0
 15 24  2  0  0  0  0
 16 15  1  0  0  0  0
 17 16  2  0  0  0  0
 17 18  1  0  0  0  0
 18 19  2  0  0  0  0
 19 24  1  0  0  0  0
 19 20  1  0  0  0  0
 21 20  1  0  0  0  0
 22 21  1  0  0  0  0
 23 18  1  0  0  0  0
 23 22  1  0  0  0  0
M  END
>  <MODEL>
1

>  <REMARK>
 VINA RESULT:      -6.2      0.000      0.000
  Name = ZINC07699012
                            x       y       z     vdW  Elec       q    Type
                         _______ _______ _______ _____ _____    ______ ____

>  <TORSDO>
F 6

>  <vina_score>
-6.2

$$$$
ZINC10186482
 OpenBabel01081721453D

 25 25  0  0  1  0  0  0  0  0999 V2000
  -30.4980   14.0200  -20.6960 N   0  0  0  0  0  0  0  0  0  0  0  0
  -30.8080   14.9530  -20.7560 H   0  0  0  0  0  0  0  0  0  0  0  0
  -31.3620   13.0090  -20.9130 C   0  0  0  0  0  0  0  0  0  0  0  0
  -30.9610   11.8640  -20.9390 O   0  0  0  0  0  0  0  0  0  0  0  0
  -29.6870   14.1990  -17.9750 C   0  0  0  0  0  0  0  0  0  0  0  0
  -28.7220   13.8210  -19.0700 C   0  0  0  0  0  0  0  0  0  0  0  0
  -27.4040   13.5450  -18.7640 C   0  0  0  0  0  0  0  0  0  0  0  0
  -26.5150   13.2030  -19.7710 C   0  0  0  0  0  0  0  0  0  0  0  0
  -26.9500   13.1320  -21.0870 C   0  0  0  0  0  0  0  0  0  0  0  0
  -28.2680   13.4030  -21.3940 C   0  0  0  0  0  0  0  0  0  0  0  0
  -29.1590   13.7450  -20.3850 C   0  0  0  0  0  0  0  0  0  0  0  0
  -25.2150   12.9370  -19.4700 O   0  0  0  0  0  0  0  0  0  0  0  0
  -24.8370   13.2790  -18.6840 H   0  0  0  0  0  0  0  0  0  0  0  0
  -32.8250   13.3000  -21.1240 C   0  0  0  0  0  0  0  0  0  0  0  0
  -33.6330   12.7100  -19.9660 C   0  0  2  0  0  0  0  0  0  0  0  0
  -32.7450   12.5180  -18.8040 N   0  0  0  0  0  0  0  0  0  0  0  0
  -32.5090   11.5280  -18.7270 H   0  0  0  0  0  0  0  0  0  0  0  0
  -31.8970   13.0700  -18.9340 H   0  0  0  0  0  0  0  0  0  0  0  0
  -33.4220   12.9470  -17.5660 C   0  0  0  0  0  0  0  0  0  0  0  0
  -32.9060   12.1090  -16.3950 C   0  0  0  0  0  0  0  0  0  0  0  0
  -32.1800   10.8730  -16.9330 C   0  0  0  0  0  0  0  0  0  0  0  0
  -34.0830   11.6700  -15.5230 C   0  0  0  0  0  0  0  0  0  0  0  0
  -34.2110   11.3810  -20.3830 C   0  0  0  0  0  0  0  0  0  0  0  0
  -35.1690   10.8030  -19.6420 O   0  0  0  0  0  0  0  0  0  0  0  0
  -33.8110   10.8380  -21.3850 O   0  0  0  0  0  0  0  0  0  0  0  0
  1 11  1  0  0  0  0
  2  1  1  0  0  0  0
  3  1  1  0  0  0  0
  4  3  2  0  0  0  0
  6  7  1  0  0  0  0
  6  5  1  0  0  0  0
  8 12  1  0  0  0  0
  8  7  2  0  0  0  0
  9  8  1  0  0  0  0
 10  9  2  0  0  0  0
 10 11  1  0  0  0  0
 11  6  2  0  0  0  0
 12 13  1  0  0  0  0
 14  3  1  0  0  0  0
 15 14  1  6  0  0  0
 15 16  1  0  0  0  0
 16 17  1  0  0  0  0
 16 19  1  0  0  0  0
 18 16  1  0  0  0  0
 19 20  1  0  0  0  0
 20 22  1  0  0  0  0
 21 20  1  0  0  0  0
 23 15  1  0  0  0  0
 23 24  1  0  0  0  0
 25 23  2  0  0  0  0
M  END
>  <MODEL>
1

>  <REMARK>
 VINA RESULT:      -6.2      0.000      0.000
  Name = ZINC10186482
                            x       y       z     vdW  Elec       q    Type
                         _______ _______ _______ _____ _____    ______ ____

>  <TORSDO>
F 8

>  <vina_score>
-6.2

$$$$
ZINC05116227
 OpenBabel01081721463D

 22 22  0  0  0  0  0  0  0  0999 V2000
  -31.0920   12.4350  -20.6050 N   0  0  0  0  0  0  0  0  0  0  0  0
  -27.7550   15.2420  -18.3350 C   0  0  0  0  0  0  0  0  0  0  0  0
  -28.1720   14.3770  -19.4960 C   0  0  0  0  0  0  0  0  0  0  0  0
  -29.4310   13.8090  -19.5160 C   0  0  0  0  0  0  0  0  0  0  0  0
  -29.8160   13.0120  -20.5860 C   0  0  0  0  0  0  0  0  0  0  0  0
  -28.9340   12.7820  -21.6330 C   0  0  0  0  0  0  0  0  0  0  0  0
  -27.6770   13.3540  -21.6150 C   0  0  0  0  0  0  0  0  0  0  0  0
  -27.2920   14.1520  -20.5460 C   0  0  0  0  0  0  0  0  0  0  0  0
  -26.0170   14.7280  -20.5260 N   0  0  0  0  0  0  0  0  0  0  0  0
  -25.8940   15.6630  -20.8090 H   0  0  0  0  0  0  0  0  0  0  0  0
  -25.2410   14.1980  -20.2300 H   0  0  0  0  0  0  0  0  0  0  0  0
  -32.2410   13.2120  -21.0770 C   0  0  0  0  0  0  0  0  0  0  0  0
  -33.5260   12.4170  -20.8400 C   0  0  0  0  0  0  0  0  0  0  0  0
  -32.3110   14.5350  -20.3110 C   0  0  0  0  0  0  0  0  0  0  0  0
  -31.2770   11.0540  -20.1540 C   0  0  0  0  0  0  0  0  0  0  0  0
  -30.6350   10.8780  -18.7750 C   0  0  0  0  0  0  0  0  0  0  0  0
  -31.7270   10.8670  -17.7030 C   0  0  0  0  0  0  0  0  0  0  0  0
  -31.8080   12.2460  -17.0450 C   0  0  0  0  0  0  0  0  0  0  0  0
  -33.5220   12.5810  -16.5540 S   0  0  0  0  0  0  0  0  0  0  0  0
  -33.4100   13.5180  -15.3580 O   0  0  0  0  0  0  0  0  0  0  0  0
  -34.1220   11.4020  -16.0360 O   0  0  0  0  0  0  0  0  0  0  0  0
  -34.1770   13.3480  -17.5550 O   0  0  0  0  0  0  0  0  0  0  0  0
  1  5  1  0  0  0  0
  1 15  1  0  0  0  0
  3  2  1  0  0  0  0
  4  3  1  0  0  0  0
  5  4  2  0  0  0  0
  6  7  2  0  0  0  0
  6  5  1  0  0  0  0
  7  8  1  0  0  0  0
  8  9  1  0  0  0  0
  8  3  2  0  0  0  0
  9 11  1  0  0  0  0
 10  9  1  0  0  0  0
 12 13  1  0  0  0  0
 12  1  1  0  0  0  0
 12 14  1  0  0  0  0
 15 16  1  0  0  0  0
 16 17  1  0  0  0  0
 17 18  1  0  0  0  0
 18 19  1  0  0  0  0
 19 21  2  0  0  0  0
 19 20  1  0  0  0  0
 22 19  2  0  0  0  0
M  END
>  <MODEL>
1

>  <REMARK>
 VINA RESULT:      -6.1      0.000      0.000
  Name = ZINC05116227
                            x       y       z     vdW  Elec       q    Type
                         _______ _______ _______ _____ _____    ______ ____

>  <TORSDO>
F 8

>  <vina_score>
-6.1

$$$$
ZINC05838514
 OpenBabel01081721513D

 29 31  0  0  1  0  0  0  0  0999 V2000
  -32.1030   12.6640  -17.9760 C   0  0  2  0  0  0  0  0  0  0  0  0
  -33.3310   12.0510  -18.6850 C   0  0  2  0  0  0  0  0  0  0  0  0
  -32.7390   10.9050  -19.5380 C   0  0  2  0  0  0  0  0  0  0  0  0
  -31.3600   11.2770  -19.7480 O   0  0  0  0  0  0  0  0  0  0  0  0
  -30.9150   11.8170  -18.4840 C   0  0  1  0  0  0  0  0  0  0  0  0
  -29.7330   12.6620  -18.6790 N   0  0  0  0  0  0  0  0  0  0  0  0
  -29.1260   13.4300  -17.7320 C   0  0  0  0  0  0  0  0  0  0  0  0
  -28.1040   14.0490  -18.2480 N   0  0  0  0  0  0  0  0  0  0  0  0
  -27.9930   13.7190  -19.5580 C   0  0  0  0  0  0  0  0  0  0  0  0
  -27.1060   14.0640  -20.5910 C   0  0  0  0  0  0  0  0  0  0  0  0
  -27.3010   13.5360  -21.7950 N   0  0  0  0  0  0  0  0  0  0  0  0
  -28.2980   12.7000  -22.0220 C   0  0  0  0  0  0  0  0  0  0  0  0
  -29.1490   12.3450  -21.0840 N   0  0  0  0  0  0  0  0  0  0  0  0
  -29.0370   12.8250  -19.8500 C   0  0  0  0  0  0  0  0  0  0  0  0
  -26.0540   14.9340  -20.3620 N   0  0  0  0  0  0  0  0  0  0  0  0
  -26.1470   15.8880  -20.5850 H   0  0  0  0  0  0  0  0  0  0  0  0
  -25.2130   14.5980  -19.9750 H   0  0  0  0  0  0  0  0  0  0  0  0
  -32.2320   12.5330  -16.5130 N   0  0  0  0  0  0  0  0  0  0  0  0
  -32.0460   13.4380  -16.0810 H   0  0  0  0  0  0  0  0  0  0  0  0
  -31.5620   11.8420  -16.1770 H   0  0  0  0  0  0  0  0  0  0  0  0
  -33.5970   12.1020  -16.1550 C   0  0  0  0  0  0  0  0  0  0  0  0
  -34.1670   13.0600  -15.1080 C   0  0  0  0  0  0  0  0  0  0  0  0
  -34.8630   10.8030  -14.2930 C   0  0  0  0  0  0  0  0  0  0  0  0
  -35.1410   12.3040  -14.2020 C   0  0  0  0  0  0  0  0  0  0  0  0
  -33.9660   13.0220  -19.5180 O   0  0  0  0  0  0  0  0  0  0  0  0
  -34.2710   13.7650  -18.9730 H   0  0  0  0  0  0  0  0  0  0  0  0
  -33.4740   10.8030  -20.8760 C   0  0  0  0  0  0  0  0  0  0  0  0
  -32.7140   11.4660  -21.8880 O   0  0  0  0  0  0  0  0  0  0  0  0
  -32.6110   12.4020  -21.6550 H   0  0  0  0  0  0  0  0  0  0  0  0
  1 18  1  1  0  0  0
  2 25  1  6  0  0  0
  2  1  1  0  0  0  0
  3 27  1  6  0  0  0
  3  2  1  0  0  0  0
  4  3  1  0  0  0  0
  4  5  1  0  0  0  0
  5  6  1  6  0  0  0
  5  1  1  0  0  0  0
  6  7  1  0  0  0  0
  8  7  2  0  0  0  0
  9  8  1  0  0  0  0
 10 15  1  0  0  0  0
 10  9  2  0  0  0  0
 11 10  1  0  0  0  0
 12 11  2  0  0  0  0
 12 13  1  0  0  0  0
 13 14  2  0  0  0  0
 14  9  1  0  0  0  0
 14  6  1  0  0  0  0
 15 17  1  0  0  0  0
 16 15  1  0  0  0  0
 18 20  1  0  0  0  0
 18 21  1  0  0  0  0
 18 19  1  0  0  0  0
 21 22  1  0  0  0  0
 22 24  1  0  0  0  0
 23 24  1  0  0  0  0
 25 26  1  0  0  0  0
 28 29  1  0  0  0  0
 28 27  1  0  0  0  0
M  END
>  <MODEL>
1

>  <REMARK>
 VINA RESULT:      -6.1      0.000      0.000
  Name = ZINC05838514
                            x       y       z     vdW  Elec       q    Type
                         _______ _______ _______ _____ _____    ______ ____

>  <TORSDO>
F 9

>  <vina_score>
-6.1

$$$$
ZINC21953394
 OpenBabel01081721583D

 23 24  0  0  1  0  0  0  0  0999 V2000
  -28.8030   13.0210  -18.7690 C   0  0  1  0  0  0  0  0  0  0  0  0
  -29.2260   13.5120  -17.3810 C   0  0  0  0  0  0  0  0  0  0  0  0
  -30.4090   12.8120  -16.9790 O   0  0  0  0  0  0  0  0  0  0  0  0
  -31.3960   12.7410  -17.9430 C   0  0  0  0  0  0  0  0  0  0  0  0
  -31.1160   12.9960  -19.2890 C   0  0  0  0  0  0  0  0  0  0  0  0
  -32.1680   12.9060  -20.2000 C   0  0  0  0  0  0  0  0  0  0  0  0
  -33.5520   12.4610  -19.1700 S   0  0  0  0  0  0  0  0  0  0  0  0
  -32.7090   12.4160  -17.6010 C   0  0  0  0  0  0  0  0  0  0  0  0
  -29.8420   13.3260  -19.7060 O   0  0  0  0  0  0  0  0  0  0  0  0
  -27.3440   13.6190  -20.7080 C   0  0  0  0  0  0  0  0  0  0  0  0
  -27.5110   13.7230  -19.1910 C   0  0  1  0  0  0  0  0  0  0  0  0
  -27.5720   15.1370  -18.8000 N   0  0  0  0  0  0  0  0  0  0  0  0
  -28.0100   15.6770  -19.5450 H   0  0  0  0  0  0  0  0  0  0  0  0
  -28.1220   15.2300  -17.9450 H   0  0  0  0  0  0  0  0  0  0  0  0
  -26.6280   15.4850  -18.6360 H   0  0  0  0  0  0  0  0  0  0  0  0
  -32.1430   13.1240  -21.6490 C   0  0  0  0  0  0  0  0  0  0  0  0
  -32.9060   13.9220  -22.1560 O   0  0  0  0  0  0  0  0  0  0  0  0
  -31.2730   12.4390  -22.4180 O   0  0  0  0  0  0  0  0  0  0  0  0
  -31.3100   10.9900  -22.3240 C   0  0  0  0  0  0  0  0  0  0  0  0
  -33.2580   12.1100  -16.2770 C   0  0  0  0  0  0  0  0  0  0  0  0
  -33.3380   10.9550  -15.9040 O   0  0  0  0  0  0  0  0  0  0  0  0
  -33.6720   13.1100  -15.4720 O   0  0  0  0  0  0  0  0  0  0  0  0
  -34.7500   12.8060  -14.5470 C   0  0  0  0  0  0  0  0  0  0  0  0
  1  9  1  6  0  0  0
  1  2  1  0  0  0  0
  2  3  1  0  0  0  0
  4  8  2  0  0  0  0
  4  3  1  0  0  0  0
  5  4  1  0  0  0  0
  6  5  2  0  0  0  0
  6  7  1  0  0  0  0
  7  8  1  0  0  0  0
  8 20  1  0  0  0  0
  9  5  1  0  0  0  0
 11 10  1  6  0  0  0
 11 12  1  0  0  0  0
 11  1  1  0  0  0  0
 12 15  1  0  0  0  0
 12 14  1  0  0  0  0
 13 12  1  0  0  0  0
 16  6  1  0  0  0  0
 17 16  2  0  0  0  0
 18 19  1  0  0  0  0
 18 16  1  0  0  0  0
 20 21  2  0  0  0  0
 20 22  1  0  0  0  0
 22 23  1  0  0  0  0
M  END
>  <MODEL>
1

>  <REMARK>
 VINA RESULT:      -6.1      0.000      0.000
  Name = ZINC21953394
                            x       y       z     vdW  Elec       q    Type
                         _______ _______ _______ _____ _____    ______ ____

>  <TORSDO>
F 6

>  <vina_score>
-6.1

$$$$
ZINC22205845
 OpenBabel01081722033D

 27 27  0  0  1  0  0  0  0  0999 V2000
  -32.2320   16.4370  -20.3640 C   0  0  0  0  0  0  0  0  0  0  0  0
  -31.4880   15.1730  -20.4570 N   0  0  0  0  0  0  0  0  0  0  0  0
  -30.9360   15.1970  -21.3150 H   0  0  0  0  0  0  0  0  0  0  0  0
  -32.4040   14.0280  -20.5420 C   0  0  0  0  0  0  0  0  0  0  0  0
  -31.7210   12.8830  -21.2920 C   0  0  1  0  0  0  0  0  0  0  0  0
  -30.3320   13.1780  -21.4500 O   0  0  0  0  0  0  0  0  0  0  0  0
  -29.8710   12.3930  -21.7870 H   0  0  0  0  0  0  0  0  0  0  0  0
  -31.8780   11.5860  -20.4950 C   0  0  0  0  0  0  0  0  0  0  0  0
  -31.2390   11.7260  -19.2240 O   0  0  0  0  0  0  0  0  0  0  0  0
  -32.0460   11.8250  -18.1350 C   0  0  0  0  0  0  0  0  0  0  0  0
  -31.9790   12.9470  -17.3210 C   0  0  0  0  0  0  0  0  0  0  0  0
  -32.8040   13.0500  -16.2190 C   0  0  0  0  0  0  0  0  0  0  0  0
  -33.6880   12.0300  -15.9180 C   0  0  0  0  0  0  0  0  0  0  0  0
  -34.8110   12.1680  -14.4040 Br  0  0  0  0  0  0  0  0  0  0  0  0
  -33.7520   10.9070  -16.7240 C   0  0  0  0  0  0  0  0  0  0  0  0
  -32.9330   10.8030  -17.8320 C   0  0  0  0  0  0  0  0  0  0  0  0
  -30.5610   15.0230  -19.3280 C   0  0  0  0  0  0  0  0  0  0  0  0
  -29.2930   15.8380  -19.5970 C   0  0  2  0  0  0  0  0  0  0  0  0
  -28.9590   15.7550  -20.9830 O   0  0  0  0  0  0  0  0  0  0  0  0
  -27.9960   15.8060  -21.0870 H   0  0  0  0  0  0  0  0  0  0  0  0
  -28.1410   15.2790  -18.7590 C   0  0  0  0  0  0  0  0  0  0  0  0
  -27.0290   14.9150  -19.6410 N   0  0  0  0  0  0  0  0  0  0  0  0
  -26.1720   15.0350  -19.1020 H   0  0  0  0  0  0  0  0  0  0  0  0
  -26.9650   13.4010  -20.3090 S   0  0  0  0  0  0  0  0  0  0  0  0
  -27.4210   13.5270  -21.7560 O   0  0  0  0  0  0  0  0  0  0  0  0
  -27.9480   12.6210  -19.6410 O   0  0  0  0  0  0  0  0  0  0  0  0
  -25.5940   13.0300  -20.3460 O   0  0  0  0  0  0  0  0  0  0  0  0
  2  1  1  0  0  0  0
  2 17  1  0  0  0  0
  3  2  1  0  0  0  0
  4  2  1  0  0  0  0
  5  6  1  1  0  0  0
  5  4  1  0  0  0  0
  5  8  1  0  0  0  0
  7  6  1  0  0  0  0
  8  9  1  0  0  0  0
  9 10  1  0  0  0  0
 10 16  2  0  0  0  0
 10 11  1  0  0  0  0
 11 12  2  0  0  0  0
 12 13  1  0  0  0  0
 13 14  1  0  0  0  0
 15 13  2  0  0  0  0
 16 15  1  0  0  0  0
 18 19  1  6  0  0  0
 18 17  1  0  0  0  0
 18 21  1  0  0  0  0
 20 19  1  0  0  0  0
 22 23  1  0  0  0  0
 22 21  1  0  0  0  0
 24 22  1  0  0  0  0
 24 26  1  0  0  0  0
 25 24  2  0  0  0  0
 27 24  2  0  0  0  0
M  END
>  <MODEL>
1

>  <REMARK>
 VINA RESULT:      -6.1      0.000      0.000
  Name = ZINC22205845
                            x       y       z     vdW  Elec       q    Type
                         _______ _______ _______ _____ _____    ______ ____

>  <TORSDO>
F 12

>  <vina_score>
-6.1

$$$$
ZINC05637890
 OpenBabel01081721393D

 26 27  0  0  0  0  0  0  0  0999 V2000
  -28.4320   12.2640  -21.2190 C   0  0  0  0  0  0  0  0  0  0  0  0
  -29.7690   12.1080  -21.5300 C   0  0  0  0  0  0  0  0  0  0  0  0
  -30.6920   13.0610  -21.1200 C   0  0  0  0  0  0  0  0  0  0  0  0
  -30.2670   14.1680  -20.3950 C   0  0  0  0  0  0  0  0  0  0  0  0
  -28.9300   14.3150  -20.0820 C   0  0  0  0  0  0  0  0  0  0  0  0
  -28.0140   13.3630  -20.4910 C   0  0  0  0  0  0  0  0  0  0  0  0
  -31.2460   15.1880  -19.9560 N   0  0  0  0  0  0  0  0  0  0  0  0
  -32.3530   14.8450  -19.5810 O   0  0  0  0  0  0  0  0  0  0  0  0
  -30.9440   16.3670  -19.9700 O   0  0  0  0  0  0  0  0  0  0  0  0
  -26.3080   13.5530  -20.0910 S   0  0  0  0  0  0  0  0  0  0  0  0
  -25.8590   14.7190  -20.7690 O   0  0  0  0  0  0  0  0  0  0  0  0
  -26.2030   13.4030  -18.6820 O   0  0  0  0  0  0  0  0  0  0  0  0
  -25.5020   12.2730  -20.7650 N   0  0  0  0  0  0  0  0  0  0  0  0
  -24.8450   12.6170  -21.4650 H   0  0  0  0  0  0  0  0  0  0  0  0
  -24.9930   11.7710  -20.0380 H   0  0  0  0  0  0  0  0  0  0  0  0
  -32.0430   12.9100  -21.4370 N   0  0  0  0  0  0  0  0  0  0  0  0
  -32.5810   13.6960  -21.6880 H   0  0  0  0  0  0  0  0  0  0  0  0
  -32.6610   11.5830  -21.3970 C   0  0  0  0  0  0  0  0  0  0  0  0
  -33.8900   11.6190  -20.4870 C   0  0  0  0  0  0  0  0  0  0  0  0
  -33.6140   10.8030  -19.2230 C   0  0  0  0  0  0  0  0  0  0  0  0
  -33.0000   11.6650  -18.2100 N   0  0  0  0  0  0  0  0  0  0  0  0
  -33.7240   12.6830  -17.4400 C   0  0  0  0  0  0  0  0  0  0  0  0
  -32.8150   13.0090  -16.2320 C   0  0  0  0  0  0  0  0  0  0  0  0
  -31.4180   12.6450  -16.7850 C   0  0  0  0  0  0  0  0  0  0  0  0
  -31.7000   11.6280  -17.8680 C   0  0  0  0  0  0  0  0  0  0  0  0
  -30.8740   10.8860  -18.3580 O   0  0  0  0  0  0  0  0  0  0  0  0
  1  6  1  0  0  0  0
  2  1  2  0  0  0  0
  2  3  1  0  0  0  0
  3  4  2  0  0  0  0
  4  5  1  0  0  0  0
  4  7  1  0  0  0  0
  6 10  1  0  0  0  0
  6  5  2  0  0  0  0
  7  8  2  0  0  0  0
  9  7  2  0  0  0  0
 10 12  2  0  0  0  0
 11 10  2  0  0  0  0
 13 10  1  0  0  0  0
 13 15  1  0  0  0  0
 14 13  1  0  0  0  0
 16 18  1  0  0  0  0
 16  3  1  0  0  0  0
 17 16  1  0  0  0  0
 18 19  1  0  0  0  0
 19 20  1  0  0  0  0
 20 21  1  0  0  0  0
 21 25  1  0  0  0  0
 21 22  1  0  0  0  0
 22 23  1  0  0  0  0
 24 23  1  0  0  0  0
 25 24  1  0  0  0  0
 26 25  2  0  0  0  0
M  END
>  <MODEL>
1

>  <REMARK>
 VINA RESULT:      -6.1      0.000      0.000
  Name = ZINC05637890
                            x       y       z     vdW  Elec       q    Type
                         _______ _______ _______ _____ _____    ______ ____

>  <TORSDO>
F 8

>  <vina_score>
-6.1

$$$$
ZINC04226595
 OpenBabel01081721403D

 24 25  0  0  1  0  0  0  0  0999 V2000
  -28.8250   15.0220  -16.8070 C   0  0  0  0  0  0  0  0  0  0  0  0
  -29.2610   14.2250  -18.0090 C   0  0  0  0  0  0  0  0  0  0  0  0
  -28.2990   13.9460  -18.9220 N   0  0  0  0  0  0  0  0  0  0  0  0
  -27.3690   14.2460  -18.8070 H   0  0  0  0  0  0  0  0  0  0  0  0
  -28.7030   13.2190  -20.0160 C   0  0  0  0  0  0  0  0  0  0  0  0
  -27.7330   12.9000  -21.0010 C   0  0  0  0  0  0  0  0  0  0  0  0
  -28.1110   12.1610  -22.1140 C   0  0  0  0  0  0  0  0  0  0  0  0
  -29.4240   11.7420  -22.2720 C   0  0  0  0  0  0  0  0  0  0  0  0
  -30.3760   12.0400  -21.3400 C   0  0  0  0  0  0  0  0  0  0  0  0
  -30.0360   12.7830  -20.2020 C   0  0  0  0  0  0  0  0  0  0  0  0
  -31.0040   13.1060  -19.2190 C   0  0  2  0  0  0  0  0  0  0  0  0
  -30.5870   13.8320  -18.1120 C   0  0  0  0  0  0  0  0  0  0  0  0
  -26.3380   13.3430  -20.8410 C   0  0  0  0  0  0  0  0  0  0  0  0
  -25.3770   12.4480  -20.5400 O   0  0  0  0  0  0  0  0  0  0  0  0
  -26.0540   14.5170  -20.9770 O   0  0  0  0  0  0  0  0  0  0  0  0
  -32.3210   12.6990  -19.3520 N   0  0  0  0  0  0  0  0  0  0  0  0
  -32.6650   12.4280  -20.2340 H   0  0  0  0  0  0  0  0  0  0  0  0
  -33.2000   12.6690  -18.1820 C   0  0  0  0  0  0  0  0  0  0  0  0
  -33.1680   11.2750  -17.5540 C   0  0  0  0  0  0  0  0  0  0  0  0
  -33.5110   11.3670  -16.1700 O   0  0  0  0  0  0  0  0  0  0  0  0
  -33.8670   12.6840  -15.7460 C   0  0  0  0  0  0  0  0  0  0  0  0
  -34.8740   12.5950  -14.5970 C   0  0  0  0  0  0  0  0  0  0  0  0
  -34.5700   13.5910  -13.6190 O   0  0  0  0  0  0  0  0  0  0  0  0
  -33.6710   13.9240  -13.7640 H   0  0  0  0  0  0  0  0  0  0  0  0
  2  1  1  0  0  0  0
  3  4  1  0  0  0  0
  3  2  1  0  0  0  0
  5  3  1  0  0  0  0
  6 13  1  0  0  0  0
  6  5  1  0  0  0  0
  7  6  2  0  0  0  0
  8  7  1  0  0  0  0
  8  9  2  0  0  0  0
  9 10  1  0  0  0  0
 10  5  2  0  0  0  0
 10 11  1  0  0  0  0
 11 16  1  1  0  0  0
 11 12  1  0  0  0  0
 12  2  2  0  0  0  0
 13 14  1  0  0  0  0
 15 13  2  0  0  0  0
 16 18  1  0  0  0  0
 17 16  1  0  0  0  0
 18 19  1  0  0  0  0
 19 20  1  0  0  0  0
 20 21  1  0  0  0  0
 21 22  1  0  0  0  0
 22 23  1  0  0  0  0
 24 23  1  0  0  0  0
M  END
>  <MODEL>
1

>  <REMARK>
 VINA RESULT:      -6.1      0.000      0.000
  Name = ZINC04226595
                            x       y       z     vdW  Elec       q    Type
                         _______ _______ _______ _____ _____    ______ ____

>  <TORSDO>
F 8

>  <vina_score>
-6.1

$$$$
ZINC26449470
 OpenBabel01081721413D

 27 28  0  0  0  0  0  0  0  0999 V2000
  -32.8560   11.9690  -21.0460 C   0  0  0  0  0  0  0  0  0  0  0  0
  -33.6800   12.1850  -19.7740 C   0  0  0  0  0  0  0  0  0  0  0  0
  -33.2800   13.4470  -19.1400 N   0  0  0  0  0  0  0  0  0  0  0  0
  -34.1230   13.9070  -18.7970 H   0  0  0  0  0  0  0  0  0  0  0  0
  -32.6390   14.3450  -20.1100 C   0  0  0  0  0  0  0  0  0  0  0  0
  -31.3070   14.8400  -19.5440 C   0  0  0  0  0  0  0  0  0  0  0  0
  -32.1950   16.9360  -20.2970 C   0  0  0  0  0  0  0  0  0  0  0  0
  -31.0280   16.1450  -20.0550 O   0  0  0  0  0  0  0  0  0  0  0  0
  -32.4000   13.2020  -17.9890 C   0  0  0  0  0  0  0  0  0  0  0  0
  -33.2180   12.6920  -16.8310 C   0  0  0  0  0  0  0  0  0  0  0  0
  -33.3080   11.4090  -16.4360 C   0  0  0  0  0  0  0  0  0  0  0  0
  -34.1760   11.3840  -15.3190 C   0  0  0  0  0  0  0  0  0  0  0  0
  -34.5640   12.6540  -15.0990 C   0  0  0  0  0  0  0  0  0  0  0  0
  -33.9760   13.4420  -16.0140 O   0  0  0  0  0  0  0  0  0  0  0  0
  -31.8010   11.0430  -20.7780 O   0  0  0  0  0  0  0  0  0  0  0  0
  -30.5520   11.5570  -20.6230 C   0  0  0  0  0  0  0  0  0  0  0  0
  -29.9980   11.6690  -19.3560 C   0  0  0  0  0  0  0  0  0  0  0  0
  -28.7280   12.1910  -19.2030 C   0  0  0  0  0  0  0  0  0  0  0  0
  -28.0100   12.6030  -20.3100 C   0  0  0  0  0  0  0  0  0  0  0  0
  -28.5610   12.4930  -21.5740 C   0  0  0  0  0  0  0  0  0  0  0  0
  -29.8300   11.9710  -21.7330 C   0  0  0  0  0  0  0  0  0  0  0  0
  -26.3920   13.2690  -20.1120 S   0  0  0  0  0  0  0  0  0  0  0  0
  -26.1280   13.2870  -18.7150 O   0  0  0  0  0  0  0  0  0  0  0  0
  -26.3330   14.4410  -20.9120 O   0  0  0  0  0  0  0  0  0  0  0  0
  -25.3310   12.1870  -20.7780 N   0  0  0  0  0  0  0  0  0  0  0  0
  -24.8460   11.6830  -20.0360 H   0  0  0  0  0  0  0  0  0  0  0  0
  -25.8430   11.5240  -21.3610 H   0  0  0  0  0  0  0  0  0  0  0  0
  1 15  1  0  0  0  0
  1  2  1  0  0  0  0
  2  3  1  0  0  0  0
  3  4  1  0  0  0  0
  3  9  1  0  0  0  0
  5  6  1  0  0  0  0
  5  3  1  0  0  0  0
  7  8  1  0  0  0  0
  8  6  1  0  0  0  0
  9 10  1  0  0  0  0
 10 11  2  0  0  0  0
 10 14  1  0  0  0  0
 11 12  1  0  0  0  0
 12 13  2  0  0  0  0
 14 13  1  0  0  0  0
 15 16  1  0  0  0  0
 16 17  2  0  0  0  0
 17 18  1  0  0  0  0
 19 22  1  0  0  0  0
 19 18  2  0  0  0  0
 20 19  1  0  0  0  0
 21 20  2  0  0  0  0
 21 16  1  0  0  0  0
 22 23  2  0  0  0  0
 24 22  2  0  0  0  0
 25 22  1  0  0  0  0
 25 26  1  0  0  0  0
 27 25  1  0  0  0  0
M  END
>  <MODEL>
1

>  <REMARK>
 VINA RESULT:      -6.1      0.000      0.000
  Name = ZINC26449470
                            x       y       z     vdW  Elec       q    Type
                         _______ _______ _______ _____ _____    ______ ____

>  <TORSDO>
F 11

>  <vina_score>
-6.1

$$$$
ZINC00481078
 OpenBabel01081721423D

 24 24  0  0  0  0  0  0  0  0999 V2000
  -31.3470   12.6730  -19.9600 C   0  0  0  0  0  0  0  0  0  0  0  0
  -30.0080   12.9210  -19.7210 C   0  0  0  0  0  0  0  0  0  0  0  0
  -29.0900   12.5630  -20.6550 N   0  0  0  0  0  0  0  0  0  0  0  0
  -29.4520   11.9780  -21.8070 C   0  0  0  0  0  0  0  0  0  0  0  0
  -30.7340   11.7050  -22.0980 N   0  0  0  0  0  0  0  0  0  0  0  0
  -30.9600   11.2660  -22.9500 H   0  0  0  0  0  0  0  0  0  0  0  0
  -28.5900   11.6820  -22.6120 O   0  0  0  0  0  0  0  0  0  0  0  0
  -31.7160   12.0250  -21.2290 C   0  0  0  0  0  0  0  0  0  0  0  0
  -32.8800   11.7840  -21.4880 O   0  0  0  0  0  0  0  0  0  0  0  0
  -33.5380   12.5850  -17.0060 C   0  0  0  0  0  0  0  0  0  0  0  0
  -32.5310   12.3090  -17.8570 N   0  0  0  0  0  0  0  0  0  0  0  0
  -31.9120   11.5680  -17.6630 H   0  0  0  0  0  0  0  0  0  0  0  0
  -32.3720   13.0450  -18.9750 C   0  0  0  0  0  0  0  0  0  0  0  0
  -33.0760   14.0180  -19.1670 O   0  0  0  0  0  0  0  0  0  0  0  0
  -34.3030   13.4990  -17.2450 O   0  0  0  0  0  0  0  0  0  0  0  0
  -33.6970   11.8500  -15.8890 O   0  0  0  0  0  0  0  0  0  0  0  0
  -35.2820   11.3330  -14.1140 C   0  0  0  0  0  0  0  0  0  0  0  0
  -34.4910   12.4340  -14.8230 C   0  0  0  0  0  0  0  0  0  0  0  0
  -27.6710   12.8270  -20.4010 C   0  0  0  0  0  0  0  0  0  0  0  0
  -27.4510   14.3330  -20.2460 C   0  0  0  0  0  0  0  0  0  0  0  0
  -26.9110   14.6000  -18.8960 N   0  0  0  0  0  0  0  0  0  0  0  0
  -26.0470   15.1340  -18.9850 H   0  0  0  0  0  0  0  0  0  0  0  0
  -26.6200   13.3260  -18.2070 C   0  0  0  0  0  0  0  0  0  0  0  0
  -27.8830   15.3890  -18.1100 C   0  0  0  0  0  0  0  0  0  0  0  0
  1  2  2  0  0  0  0
  1 13  1  0  0  0  0
  3 19  1  0  0  0  0
  3  2  1  0  0  0  0
  4  3  1  0  0  0  0
  5  4  1  0  0  0  0
  5  8  1  0  0  0  0
  6  5  1  0  0  0  0
  7  4  2  0  0  0  0
  8  1  1  0  0  0  0
  9  8  2  0  0  0  0
 10 16  1  0  0  0  0
 11 12  1  0  0  0  0
 11 10  1  0  0  0  0
 13 11  1  0  0  0  0
 14 13  2  0  0  0  0
 15 10  2  0  0  0  0
 16 18  1  0  0  0  0
 18 17  1  0  0  0  0
 19 20  1  0  0  0  0
 20 21  1  0  0  0  0
 21 23  1  0  0  0  0
 21 24  1  0  0  0  0
 22 21  1  0  0  0  0
M  END
>  <MODEL>
1

>  <REMARK>
 VINA RESULT:      -6.1      0.000      0.000
  Name = ZINC00481078
                            x       y       z     vdW  Elec       q    Type
                         _______ _______ _______ _____ _____    ______ ____

>  <TORSDO>
F 6

>  <vina_score>
-6.1

$$$$
ZINC27654081
 OpenBabel01081721433D

 27 28  0  0  0  0  0  0  0  0999 V2000
  -28.5510   14.7890  -17.6710 C   0  0  0  0  0  0  0  0  0  0  0  0
  -27.5200   14.9980  -18.4370 N   0  0  0  0  0  0  0  0  0  0  0  0
  -27.6270   14.2370  -19.5550 C   0  0  0  0  0  0  0  0  0  0  0  0
  -26.8350   14.0490  -20.6980 C   0  0  0  0  0  0  0  0  0  0  0  0
  -25.6710   14.7240  -20.8510 O   0  0  0  0  0  0  0  0  0  0  0  0
  -27.2510   13.1970  -21.6260 N   0  0  0  0  0  0  0  0  0  0  0  0
  -26.7040   13.0560  -22.4320 H   0  0  0  0  0  0  0  0  0  0  0  0
  -28.3900   12.5310  -21.4860 C   0  0  0  0  0  0  0  0  0  0  0  0
  -29.1690   12.6810  -20.4270 N   0  0  0  0  0  0  0  0  0  0  0  0
  -28.8270   13.5110  -19.4480 C   0  0  0  0  0  0  0  0  0  0  0  0
  -29.3870   13.8800  -18.2510 N   0  0  0  0  0  0  0  0  0  0  0  0
  -28.7760   11.6500  -22.4810 N   0  0  0  0  0  0  0  0  0  0  0  0
  -28.4190   11.7500  -23.3940 H   0  0  0  0  0  0  0  0  0  0  0  0
  -29.4090   10.9230  -22.2780 H   0  0  0  0  0  0  0  0  0  0  0  0
  -30.6500   13.3870  -17.6970 C   0  0  0  0  0  0  0  0  0  0  0  0
  -30.5190   12.0020  -17.3710 O   0  0  0  0  0  0  0  0  0  0  0  0
  -31.7270   11.2540  -17.5180 C   0  0  0  0  0  0  0  0  0  0  0  0
  -31.8750   10.8050  -18.9740 C   0  0  0  0  0  0  0  0  0  0  0  0
  -33.2620   10.9380  -19.3820 O   0  0  0  0  0  0  0  0  0  0  0  0
  -33.5000   11.6110  -20.5200 C   0  0  0  0  0  0  0  0  0  0  0  0
  -34.6310   11.7250  -20.9300 O   0  0  0  0  0  0  0  0  0  0  0  0
  -32.3560   12.2240  -21.2850 C   0  0  0  0  0  0  0  0  0  0  0  0
  -32.3900   13.7450  -21.1240 C   0  0  0  0  0  0  0  0  0  0  0  0
  -33.1450   14.0920  -19.9130 N   0  0  0  0  0  0  0  0  0  0  0  0
  -32.6230   14.7790  -19.3710 H   0  0  0  0  0  0  0  0  0  0  0  0
  -34.0490   14.4830  -20.1770 H   0  0  0  0  0  0  0  0  0  0  0  0
  -33.2890   13.2530  -19.3500 H   0  0  0  0  0  0  0  0  0  0  0  0
  2  1  2  0  0  0  0
  3 10  2  0  0  0  0
  3  2  1  0  0  0  0
  4  3  1  0  0  0  0
  5  4  2  0  0  0  0
  6  8  1  0  0  0  0
  6  4  1  0  0  0  0
  7  6  1  0  0  0  0
  8  9  2  0  0  0  0
  9 10  1  0  0  0  0
 10 11  1  0  0  0  0
 11 15  1  0  0  0  0
 11  1  1  0  0  0  0
 12 14  1  0  0  0  0
 12  8  1  0  0  0  0
 13 12  1  0  0  0  0
 15 16  1  0  0  0  0
 17 16  1  0  0  0  0
 18 17  1  0  0  0  0
 19 18  1  0  0  0  0
 20 19  1  0  0  0  0
 21 20  2  0  0  0  0
 22 23  1  0  0  0  0
 22 20  1  0  0  0  0
 23 24  1  0  0  0  0
 24 25  1  0  0  0  0
 24 27  1  0  0  0  0
 26 24  1  0  0  0  0
M  END
>  <MODEL>
1

>  <REMARK>
 VINA RESULT:      -6.1      0.000      0.000
  Name = ZINC27654081
                            x       y       z     vdW  Elec       q    Type
                         _______ _______ _______ _____ _____    ______ ____

>  <TORSDO>
F 10

>  <vina_score>
-6.1

$$$$
ZINC06382443
 OpenBabel01081721443D

 22 23  0  0  1  0  0  0  0  0999 V2000
  -31.6510   15.4070  -20.1380 C   0  0  0  0  0  0  0  0  0  0  0  0
  -30.2010   15.4650  -20.3330 N   0  0  0  0  0  0  0  0  0  0  0  0
  -29.8250   15.9840  -21.0800 H   0  0  0  0  0  0  0  0  0  0  0  0
  -29.3800   14.8060  -19.4890 C   0  0  0  0  0  0  0  0  0  0  0  0
  -29.0390   15.3210  -18.3220 N   0  0  0  0  0  0  0  0  0  0  0  0
  -28.1890   14.7480  -17.4770 C   0  0  0  0  0  0  0  0  0  0  0  0
  -27.3590   13.7800  -17.8480 N   0  0  0  0  0  0  0  0  0  0  0  0
  -27.4810   13.3650  -19.1080 C   0  0  0  0  0  0  0  0  0  0  0  0
  -26.6150   13.0080  -20.0310 N   0  0  0  0  0  0  0  0  0  0  0  0
  -27.1620   13.0240  -21.2530 C   0  0  0  0  0  0  0  0  0  0  0  0
  -28.4310   13.3160  -21.2480 N   0  0  0  0  0  0  0  0  0  0  0  0
  -28.8120   13.4590  -19.8440 C   0  0  2  0  0  0  0  0  0  0  0  0
  -32.1720   14.0390  -20.5850 C   0  0  2  0  0  0  0  0  0  0  0  0
  -32.9420   14.1890  -21.7780 O   0  0  0  0  0  0  0  0  0  0  0  0
  -33.8690   14.3570  -21.5460 H   0  0  0  0  0  0  0  0  0  0  0  0
  -33.0500   13.4420  -19.4820 C   0  0  0  0  0  0  0  0  0  0  0  0
  -32.2970   12.3620  -18.8100 N   0  0  0  0  0  0  0  0  0  0  0  0
  -31.4920   12.1120  -19.3830 H   0  0  0  0  0  0  0  0  0  0  0  0
  -33.0050   12.8360  -16.5180 C   0  0  0  0  0  0  0  0  0  0  0  0
  -31.8220   12.8250  -17.4890 C   0  0  0  0  0  0  0  0  0  0  0  0
  -33.1590   11.1710  -18.6480 C   0  0  0  0  0  0  0  0  0  0  0  0
  -34.0490   10.9820  -19.8780 C   0  0  0  0  0  0  0  0  0  0  0  0
  2  1  1  0  0  0  0
  2  4  1  0  0  0  0
  3  2  1  0  0  0  0
  4  5  2  0  0  0  0
  5  6  1  0  0  0  0
  7  6  2  0  0  0  0
  8  7  1  0  0  0  0
  9  8  2  0  0  0  0
 10 11  2  0  0  0  0
 10  9  1  0  0  0  0
 12 11  1  6  0  0  0
 12  4  1  0  0  0  0
 12  8  1  0  0  0  0
 13 14  1  6  0  0  0
 13  1  1  0  0  0  0
 13 16  1  0  0  0  0
 14 15  1  0  0  0  0
 16 17  1  0  0  0  0
 17 21  1  0  0  0  0
 17 20  1  0  0  0  0
 18 17  1  0  0  0  0
 20 19  1  0  0  0  0
 22 21  1  0  0  0  0
M  END
>  <MODEL>
1

>  <REMARK>
 VINA RESULT:      -6.1      0.000      0.000
  Name = ZINC06382443
                            x       y       z     vdW  Elec       q    Type
                         _______ _______ _______ _____ _____    ______ ____

>  <TORSDO>
F 8

>  <vina_score>
-6.1

$$$$
ZINC26540596
 OpenBabel01081721453D

 26 27  0  0  0  0  0  0  0  0999 V2000
  -32.1100   13.2670  -19.5890 C   0  0  0  0  0  0  0  0  0  0  0  0
  -32.5290   13.2930  -18.2680 C   0  0  0  0  0  0  0  0  0  0  0  0
  -33.1600   12.1900  -17.7210 C   0  0  0  0  0  0  0  0  0  0  0  0
  -33.3680   11.0590  -18.4860 C   0  0  0  0  0  0  0  0  0  0  0  0
  -32.9590   11.0260  -19.8060 C   0  0  0  0  0  0  0  0  0  0  0  0
  -32.3260   12.1280  -20.3630 C   0  0  0  0  0  0  0  0  0  0  0  0
  -33.6060   12.2200  -16.3100 N   0  0  0  0  0  0  0  0  0  0  0  0
  -33.5860   13.2670  -15.6870 O   0  0  0  0  0  0  0  0  0  0  0  0
  -33.9880   11.1970  -15.7690 O   0  0  0  0  0  0  0  0  0  0  0  0
  -31.9050   12.0950  -21.6980 N   0  0  0  0  0  0  0  0  0  0  0  0
  -31.9000   12.9220  -22.2320 H   0  0  0  0  0  0  0  0  0  0  0  0
  -31.4750   10.8310  -22.2990 C   0  0  0  0  0  0  0  0  0  0  0  0
  -29.9470   10.8030  -22.3890 C   0  0  0  0  0  0  0  0  0  0  0  0
  -29.3900   10.9940  -21.0870 O   0  0  0  0  0  0  0  0  0  0  0  0
  -29.5650   10.2090  -20.5430 H   0  0  0  0  0  0  0  0  0  0  0  0
  -31.4730   14.3830  -20.1450 N   0  0  0  0  0  0  0  0  0  0  0  0
  -30.1230   15.0130  -19.4200 S   0  0  0  0  0  0  0  0  0  0  0  0
  -30.1270   14.5440  -18.0790 O   0  0  0  0  0  0  0  0  0  0  0  0
  -30.0950   16.3960  -19.7440 O   0  0  0  0  0  0  0  0  0  0  0  0
  -25.4330   12.8180  -20.3710 C   0  0  0  0  0  0  0  0  0  0  0  0
  -26.7730   13.3760  -20.5650 N   0  0  0  0  0  0  0  0  0  0  0  0
  -27.4300   13.4920  -21.7400 C   0  0  0  0  0  0  0  0  0  0  0  0
  -28.5950   14.0360  -21.5170 N   0  0  0  0  0  0  0  0  0  0  0  0
  -28.7230   14.2830  -20.2040 C   0  0  0  0  0  0  0  0  0  0  0  0
  -27.5910   13.8820  -19.5920 C   0  0  0  0  0  0  0  0  0  0  0  0
  -27.2410   13.9850  -17.8950 Cl  0  0  0  0  0  0  0  0  0  0  0  0
  1  2  2  0  0  0  0
  2  3  1  0  0  0  0
  3  7  1  0  0  0  0
  4  3  2  0  0  0  0
  5  4  1  0  0  0  0
  6  5  2  0  0  0  0
  6  1  1  0  0  0  0
  7  9  2  0  0  0  0
  7  8  2  0  0  0  0
 10  6  1  0  0  0  0
 11 10  1  0  0  0  0
 12 10  1  0  0  0  0
 13 12  1  0  0  0  0
 13 14  1  0  0  0  0
 14 15  1  0  0  0  0
 16  1  1  0  0  0  0
 16 17  1  0  0  0  0
 17 18  2  0  0  0  0
 19 17  2  0  0  0  0
 21 20  1  0  0  0  0
 21 25  1  0  0  0  0
 22 23  2  0  0  0  0
 22 21  1  0  0  0  0
 23 24  1  0  0  0  0
 24 25  2  0  0  0  0
 24 17  1  0  0  0  0
 25 26  1  0  0  0  0
M  END
>  <MODEL>
1

>  <REMARK>
 VINA RESULT:      -6.1      0.000      0.000
  Name = ZINC26540596
                            x       y       z     vdW  Elec       q    Type
                         _______ _______ _______ _____ _____    ______ ____

>  <TORSDO>
F 8

>  <vina_score>
-6.1

$$$$
ZINC29829551
 OpenBabel01081721463D

 26 28  0  0  0  0  0  0  0  0999 V2000
  -30.8060   13.8130  -20.0220 C   0  0  0  0  0  0  0  0  0  0  0  0
  -31.3180   12.8310  -20.7900 N   0  0  0  0  0  0  0  0  0  0  0  0
  -30.8430   11.9730  -20.8720 H   0  0  0  0  0  0  0  0  0  0  0  0
  -31.3930   14.8740  -19.9200 O   0  0  0  0  0  0  0  0  0  0  0  0
  -30.3940   13.9330  -16.9310 C   0  0  0  0  0  0  0  0  0  0  0  0
  -29.3330   13.6520  -17.9620 C   0  0  0  0  0  0  0  0  0  0  0  0
  -29.5360   13.6030  -19.3070 C   0  0  0  0  0  0  0  0  0  0  0  0
  -28.2220   13.3000  -19.8950 C   0  0  0  0  0  0  0  0  0  0  0  0
  -27.7340   13.1140  -21.2070 C   0  0  0  0  0  0  0  0  0  0  0  0
  -26.4190   12.8380  -21.3630 N   0  0  0  0  0  0  0  0  0  0  0  0
  -26.0480   12.7040  -22.2650 H   0  0  0  0  0  0  0  0  0  0  0  0
  -25.6110   12.7460  -20.2780 C   0  0  0  0  0  0  0  0  0  0  0  0
  -26.0510   12.9160  -19.0630 N   0  0  0  0  0  0  0  0  0  0  0  0
  -28.4760   13.2010  -22.1710 O   0  0  0  0  0  0  0  0  0  0  0  0
  -27.3410   13.1920  -18.8200 C   0  0  0  0  0  0  0  0  0  0  0  0
  -28.0420   13.4090  -17.6950 O   0  0  0  0  0  0  0  0  0  0  0  0
  -32.5810   13.0410  -21.5020 C   0  0  0  0  0  0  0  0  0  0  0  0
  -33.7130   12.3400  -20.7490 C   0  0  0  0  0  0  0  0  0  0  0  0
  -34.0480   13.1050  -19.5450 N   0  0  0  0  0  0  0  0  0  0  0  0
  -34.4710   13.9910  -19.6270 H   0  0  0  0  0  0  0  0  0  0  0  0
  -33.7690   12.5820  -18.2890 C   0  0  0  0  0  0  0  0  0  0  0  0
  -33.2330   11.3010  -18.1690 C   0  0  0  0  0  0  0  0  0  0  0  0
  -32.9690   10.8080  -16.9730 N   0  0  0  0  0  0  0  0  0  0  0  0
  -33.2130   11.5280  -15.8910 C   0  0  0  0  0  0  0  0  0  0  0  0
  -33.7430   12.7980  -16.0060 C   0  0  0  0  0  0  0  0  0  0  0  0
  -34.0060   13.3020  -17.2000 N   0  0  0  0  0  0  0  0  0  0  0  0
  1  4  2  0  0  0  0
  1  7  1  0  0  0  0
  2  1  1  0  0  0  0
  3  2  1  0  0  0  0
  6 16  1  0  0  0  0
  6  5  1  0  0  0  0
  7  6  2  0  0  0  0
  8  7  1  0  0  0  0
  8 15  2  0  0  0  0
  9  8  1  0  0  0  0
 10  9  1  0  0  0  0
 10 12  1  0  0  0  0
 11 10  1  0  0  0  0
 12 13  2  0  0  0  0
 13 15  1  0  0  0  0
 14  9  2  0  0  0  0
 15 16  1  0  0  0  0
 17  2  1  0  0  0  0
 17 18  1  0  0  0  0
 18 19  1  0  0  0  0
 19 21  1  0  0  0  0
 20 19  1  0  0  0  0
 21 22  2  0  0  0  0
 21 26  1  0  0  0  0
 22 23  1  0  0  0  0
 23 24  2  0  0  0  0
 25 24  1  0  0  0  0
 26 25  2  0  0  0  0
M  END
>  <MODEL>
1

>  <REMARK>
 VINA RESULT:      -6.0      0.000      0.000
  Name = ZINC29829551
                            x       y       z     vdW  Elec       q    Type
                         _______ _______ _______ _____ _____    ______ ____

>  <TORSDO>
F 5

>  <vina_score>
-6.0

$$$$
ZINC29484918
 OpenBabel01081721483D

 23 24  0  0  0  0  0  0  0  0999 V2000
  -32.3780   11.8950  -20.9390 C   0  0  0  0  0  0  0  0  0  0  0  0
  -31.4480   12.9210  -20.3450 C   0  0  0  0  0  0  0  0  0  0  0  0
  -31.7400   14.2660  -20.4610 C   0  0  0  0  0  0  0  0  0  0  0  0
  -30.8620   15.2010  -19.9010 C   0  0  0  0  0  0  0  0  0  0  0  0
  -29.7560   14.7590  -19.2650 N   0  0  0  0  0  0  0  0  0  0  0  0
  -28.8910   15.6560  -18.7150 C   0  0  0  0  0  0  0  0  0  0  0  0
  -27.7770   15.2380  -18.0740 C   0  0  0  0  0  0  0  0  0  0  0  0
  -27.4970   13.8680  -17.9680 C   0  0  0  0  0  0  0  0  0  0  0  0
  -28.3570   12.9630  -18.5130 C   0  0  0  0  0  0  0  0  0  0  0  0
  -29.5110   13.4170  -19.1770 C   0  0  0  0  0  0  0  0  0  0  0  0
  -31.0930   16.3970  -19.9860 O   0  0  0  0  0  0  0  0  0  0  0  0
  -30.3520   12.5340  -19.7130 N   0  0  0  0  0  0  0  0  0  0  0  0
  -33.9690   11.9550  -20.0790 S   0  0  0  0  0  0  0  0  0  0  0  0
  -33.6530   12.9060  -17.6100 N   0  0  0  0  0  0  0  0  0  0  0  0
  -34.1910   13.6690  -17.9240 H   0  0  0  0  0  0  0  0  0  0  0  0
  -33.4150   11.9030  -18.4070 C   0  0  0  0  0  0  0  0  0  0  0  0
  -32.7300   10.8030  -17.9440 N   0  0  0  0  0  0  0  0  0  0  0  0
  -33.0170   10.3570  -17.1150 H   0  0  0  0  0  0  0  0  0  0  0  0
  -31.9520   10.4620  -18.4430 H   0  0  0  0  0  0  0  0  0  0  0  0
  -33.1210   12.9000  -16.2450 C   0  0  0  0  0  0  0  0  0  0  0  0
  -34.2660   12.6850  -15.2520 C   0  0  0  0  0  0  0  0  0  0  0  0
  -35.2150   10.8680  -14.0120 C   0  0  0  0  0  0  0  0  0  0  0  0
  -34.6370   11.3060  -15.2430 O   0  0  0  0  0  0  0  0  0  0  0  0
  1  2  1  0  0  0  0
  1 13  1  0  0  0  0
  2 12  2  0  0  0  0
  3  2  1  0  0  0  0
  3  4  1  0  0  0  0
  4  5  1  0  0  0  0
  5 10  1  0  0  0  0
  5  6  1  0  0  0  0
  6  7  2  0  0  0  0
  7  8  1  0  0  0  0
  9  8  1  0  0  0  0
 10  9  2  0  0  0  0
 11  4  2  0  0  0  0
 12 10  1  0  0  0  0
 13 16  1  0  0  0  0
 14 20  1  0  0  0  0
 15 14  1  0  0  0  0
 16 17  2  0  0  0  0
 16 14  1  0  0  0  0
 17 18  1  0  0  0  0
 19 17  1  0  0  0  0
 20 21  1  0  0  0  0
 21 23  1  0  0  0  0
 23 22  1  0  0  0  0
M  END
>  <MODEL>
1

>  <REMARK>
 VINA RESULT:      -6.0      0.000      0.000
  Name = ZINC29484918
                            x       y       z     vdW  Elec       q    Type
                         _______ _______ _______ _____ _____    ______ ____

>  <TORSDO>
F 7

>  <vina_score>
-6.0

$$$$
ZINC15690560
 OpenBabel01081721493D

 21 22  0  0  1  0  0  0  0  0999 V2000
  -28.6930   14.9430  -18.0000 C   0  0  0  0  0  0  0  0  0  0  0  0
  -29.5790   13.7370  -17.8220 C   0  0  0  0  0  0  0  0  0  0  0  0
  -29.1170   12.7050  -17.3980 O   0  0  0  0  0  0  0  0  0  0  0  0
  -30.8830   13.8100  -18.1360 O   0  0  0  0  0  0  0  0  0  0  0  0
  -32.1740   14.5310  -20.0830 C   0  0  0  0  0  0  0  0  0  0  0  0
  -32.8290   14.0120  -21.3870 C   0  0  0  0  0  0  0  0  0  0  0  0
  -32.8840   12.1950  -21.1150 S   0  0  0  0  0  0  0  0  0  0  0  0
  -32.0350   12.1040  -19.4830 C   0  0  0  0  0  0  0  0  0  0  0  0
  -34.2380   11.7910  -20.9550 O   0  0  0  0  0  0  0  0  0  0  0  0
  -32.0750   11.5560  -22.0930 O   0  0  0  0  0  0  0  0  0  0  0  0
  -31.2550   13.4500  -19.4920 C   0  0  2  0  0  0  0  0  0  0  0  0
  -27.1250   14.4350  -18.7580 S   0  0  0  0  0  0  0  0  0  0  0  0
  -27.5980   13.8030  -20.3320 C   0  0  0  0  0  0  0  0  0  0  0  0
  -28.1210   12.5640  -20.5770 N   0  0  0  0  0  0  0  0  0  0  0  0
  -28.3030   11.8690  -19.9030 H   0  0  0  0  0  0  0  0  0  0  0  0
  -28.3500   12.4600  -21.9200 C   0  0  0  0  0  0  0  0  0  0  0  0
  -27.9930   13.5890  -22.4800 N   0  0  0  0  0  0  0  0  0  0  0  0
  -27.5160   14.4410  -21.4750 N   0  0  0  0  0  0  0  0  0  0  0  0
  -28.8740   11.3530  -22.5750 N   0  0  0  0  0  0  0  0  0  0  0  0
  -28.7270   10.4500  -22.2100 H   0  0  0  0  0  0  0  0  0  0  0  0
  -29.3920   11.4720  -23.4040 H   0  0  0  0  0  0  0  0  0  0  0  0
  1  2  1  0  0  0  0
  2  3  2  0  0  0  0
  4  2  1  0  0  0  0
  5 11  1  0  0  0  0
  6  7  1  0  0  0  0
  6  5  1  0  0  0  0
  7  9  2  0  0  0  0
  7  8  1  0  0  0  0
 10  7  2  0  0  0  0
 11  8  1  0  0  0  0
 11  4  1  1  0  0  0
 12  1  1  0  0  0  0
 13 12  1  0  0  0  0
 14 13  1  0  0  0  0
 14 15  1  0  0  0  0
 16 14  1  0  0  0  0
 17 16  2  0  0  0  0
 17 18  1  0  0  0  0
 18 13  2  0  0  0  0
 19 20  1  0  0  0  0
 19 16  1  0  0  0  0
 21 19  1  0  0  0  0
M  END
>  <MODEL>
1

>  <REMARK>
 VINA RESULT:      -6.0      0.000      0.000
  Name = ZINC15690560
                            x       y       z     vdW  Elec       q    Type
                         _______ _______ _______ _____ _____    ______ ____

>  <TORSDO>
F 6

>  <vina_score>
-6.0

$$$$
ZINC20292668
 OpenBabel01081721363D

 24 24  0  0  1  0  0  0  0  0999 V2000
  -31.2800   11.3200  -21.4150 C   0  0  0  0  0  0  0  0  0  0  0  0
  -31.7580   12.6800  -20.9780 C   0  0  0  0  0  0  0  0  0  0  0  0
  -30.8800   13.5590  -20.3710 C   0  0  1  0  0  0  0  0  0  0  0  0
  -31.2730   14.9440  -20.0570 C   0  0  0  0  0  0  0  0  0  0  0  0
  -30.3640   15.7460  -19.4640 N   0  0  0  0  0  0  0  0  0  0  0  0
  -30.6110   16.6740  -19.2480 H   0  0  0  0  0  0  0  0  0  0  0  0
  -29.1340   15.3070  -19.1620 C   0  0  0  0  0  0  0  0  0  0  0  0
  -28.7110   14.0610  -19.4170 N   0  0  0  0  0  0  0  0  0  0  0  0
  -28.3640   16.0800  -18.6280 O   0  0  0  0  0  0  0  0  0  0  0  0
  -32.3880   15.3540  -20.3240 O   0  0  0  0  0  0  0  0  0  0  0  0
  -29.5120   13.1500  -20.0070 C   0  0  0  0  0  0  0  0  0  0  0  0
  -29.1150   12.0230  -20.2340 O   0  0  0  0  0  0  0  0  0  0  0  0
  -33.0410   13.0400  -21.1810 N   0  0  0  0  0  0  0  0  0  0  0  0
  -33.2490   13.8450  -21.7090 H   0  0  0  0  0  0  0  0  0  0  0  0
  -34.1270   12.2350  -20.6150 C   0  0  0  0  0  0  0  0  0  0  0  0
  -33.7550   11.8030  -19.1950 C   0  0  0  0  0  0  0  0  0  0  0  0
  -33.8660   13.0020  -18.2510 C   0  0  0  0  0  0  0  0  0  0  0  0
  -32.9160   12.8410  -17.1430 N   0  0  0  0  0  0  0  0  0  0  0  0
  -32.3200   13.6690  -17.1180 H   0  0  0  0  0  0  0  0  0  0  0  0
  -32.0540   11.6710  -17.3530 C   0  0  0  0  0  0  0  0  0  0  0  0
  -33.6190   12.7520  -15.8560 C   0  0  0  0  0  0  0  0  0  0  0  0
  -27.3460   13.6790  -19.0460 C   0  0  0  0  0  0  0  0  0  0  0  0
  -26.4610   13.7260  -20.2660 C   0  0  0  0  0  0  0  0  0  0  0  0
  -25.5860   12.7750  -20.4760 C   0  0  0  0  0  0  0  0  0  0  0  0
  1  2  1  0  0  0  0
  3  2  1  1  0  0  0
  3  4  1  0  0  0  0
  3 11  1  0  0  0  0
  4  5  1  0  0  0  0
  5  6  1  0  0  0  0
  5  7  1  0  0  0  0
  7  9  2  0  0  0  0
  8  7  1  0  0  0  0
  8 22  1  0  0  0  0
 10  4  2  0  0  0  0
 11  8  1  0  0  0  0
 12 11  2  0  0  0  0
 13  2  2  0  0  0  0
 13 15  1  0  0  0  0
 14 13  1  0  0  0  0
 15 16  1  0  0  0  0
 16 17  1  0  0  0  0
 17 18  1  0  0  0  0
 18 19  1  0  0  0  0
 18 21  1  0  0  0  0
 20 18  1  0  0  0  0
 23 22  1  0  0  0  0
 24 23  2  0  0  0  0
M  END
>  <MODEL>
1

>  <REMARK>
 VINA RESULT:      -6.0      0.000      0.000
  Name = ZINC20292668
                            x       y       z     vdW  Elec       q    Type
                         _______ _______ _______ _____ _____    ______ ____

>  <TORSDO>
F 7

>  <vina_score>
-6.0

$$$$
ZINC05679876
 OpenBabel01081721513D

 28 30  0  0  0  0  0  0  0  0999 V2000
  -32.2630   10.9780  -18.3140 N   0  0  0  0  0  0  0  0  0  0  0  0
  -31.7320   10.1190  -18.1730 H   0  0  0  0  0  0  0  0  0  0  0  0
  -31.4550   12.1320  -17.8790 C   0  0  0  0  0  0  0  0  0  0  0  0
  -30.1350   12.0270  -18.5060 N   0  0  0  0  0  0  0  0  0  0  0  0
  -29.2880   12.0550  -18.0030 H   0  0  0  0  0  0  0  0  0  0  0  0
  -30.2040   11.8870  -19.8650 C   0  0  0  0  0  0  0  0  0  0  0  0
  -29.0860   12.1860  -20.6150 N   0  0  0  0  0  0  0  0  0  0  0  0
  -29.0990   12.0470  -21.9510 C   0  0  0  0  0  0  0  0  0  0  0  0
  -28.1010   12.3140  -22.5910 O   0  0  0  0  0  0  0  0  0  0  0  0
  -30.2010   11.6160  -22.5910 N   0  0  0  0  0  0  0  0  0  0  0  0
  -30.1910   11.5170  -23.5700 H   0  0  0  0  0  0  0  0  0  0  0  0
  -31.3180   11.3190  -21.8990 C   0  0  0  0  0  0  0  0  0  0  0  0
  -32.3160   10.9330  -22.4840 O   0  0  0  0  0  0  0  0  0  0  0  0
  -31.3290   11.4570  -20.5000 C   0  0  0  0  0  0  0  0  0  0  0  0
  -32.5880   11.1240  -19.7430 C   0  0  0  0  0  0  0  0  0  0  0  0
  -33.5090   10.8970  -17.5140 C   0  0  0  0  0  0  0  0  0  0  0  0
  -33.2880   11.5980  -16.1720 C   0  0  0  0  0  0  0  0  0  0  0  0
  -34.0020   10.8190  -15.0660 C   0  0  0  0  0  0  0  0  0  0  0  0
  -35.9540   10.8030  -13.6340 C   0  0  0  0  0  0  0  0  0  0  0  0
  -35.2330   11.5450  -14.6900 N   0  0  0  0  0  0  0  0  0  0  0  0
  -35.8350   11.6250  -15.5090 H   0  0  0  0  0  0  0  0  0  0  0  0
  -34.8920   12.9010  -14.2100 C   0  0  0  0  0  0  0  0  0  0  0  0
  -27.8710   12.6600  -19.9470 C   0  0  0  0  0  0  0  0  0  0  0  0
  -28.1610   13.9580  -19.2370 C   0  0  0  0  0  0  0  0  0  0  0  0
  -27.5700   14.3860  -18.1070 C   0  0  0  0  0  0  0  0  0  0  0  0
  -28.1390   15.6420  -17.7980 C   0  0  0  0  0  0  0  0  0  0  0  0
  -29.0500   15.9040  -18.7530 C   0  0  0  0  0  0  0  0  0  0  0  0
  -29.0600   14.8800  -19.6220 O   0  0  0  0  0  0  0  0  0  0  0  0
  1  2  1  0  0  0  0
  1  3  1  0  0  0  0
  1 16  1  0  0  0  0
  4  5  1  0  0  0  0
  4  3  1  0  0  0  0
  6  4  1  0  0  0  0
  7 23  1  0  0  0  0
  7  6  1  0  0  0  0
  8  7  1  0  0  0  0
  9  8  2  0  0  0  0
 10  8  1  0  0  0  0
 10 12  1  0  0  0  0
 11 10  1  0  0  0  0
 12 14  1  0  0  0  0
 13 12  2  0  0  0  0
 14  6  2  0  0  0  0
 14 15  1  0  0  0  0
 15  1  1  0  0  0  0
 16 17  1  0  0  0  0
 17 18  1  0  0  0  0
 18 20  1  0  0  0  0
 20 22  1  0  0  0  0
 20 19  1  0  0  0  0
 21 20  1  0  0  0  0
 23 24  1  0  0  0  0
 24 25  2  0  0  0  0
 25 26  1  0  0  0  0
 27 26  2  0  0  0  0
 28 24  1  0  0  0  0
 28 27  1  0  0  0  0
M  END
>  <MODEL>
1

>  <REMARK>
 VINA RESULT:      -6.0      0.000      0.000
  Name = ZINC05679876
                            x       y       z     vdW  Elec       q    Type
                         _______ _______ _______ _____ _____    ______ ____

>  <TORSDO>
F 6

>  <vina_score>
-6.0

$$$$
ZINC31561356
 OpenBabel01081722013D

 21 21  0  0  0  0  0  0  0  0999 V2000
  -29.7340   11.8950  -21.5430 C   0  0  0  0  0  0  0  0  0  0  0  0
  -30.7980   12.7630  -22.0630 N   0  0  0  0  0  0  0  0  0  0  0  0
  -30.5580   13.7320  -21.8540 H   0  0  0  0  0  0  0  0  0  0  0  0
  -30.8800   12.6250  -23.0700 H   0  0  0  0  0  0  0  0  0  0  0  0
  -32.0870   12.4540  -21.4300 C   0  0  0  0  0  0  0  0  0  0  0  0
  -31.8630   12.1130  -19.9550 C   0  0  0  0  0  0  0  0  0  0  0  0
  -33.0620   13.0150  -18.9370 S   0  0  0  0  0  0  0  0  0  0  0  0
  -32.7030   12.3060  -16.9720 P   0  0  0  0  0  0  0  0  0  0  0  0
  -33.2210   13.3960  -15.9060 O   0  0  0  0  0  0  0  0  0  0  0  0
  -31.1240   12.0640  -16.7680 O   0  0  0  0  0  0  0  0  0  0  0  0
  -33.4280   11.0320  -16.7670 O   0  0  0  0  0  0  0  0  0  0  0  0
  -28.3790   12.3830  -22.0590 C   0  0  0  0  0  0  0  0  0  0  0  0
  -28.1810   13.8490  -21.6660 C   0  0  0  0  0  0  0  0  0  0  0  0
  -27.7370   14.7580  -17.5560 C   0  0  0  0  0  0  0  0  0  0  0  0
  -27.0370   13.4840  -18.0380 C   0  0  0  0  0  0  0  0  0  0  0  0
  -27.1230   13.4110  -19.5400 C   0  0  0  0  0  0  0  0  0  0  0  0
  -28.1480   13.9630  -20.2060 N   0  0  0  0  0  0  0  0  0  0  0  0
  -29.1410   14.6210  -19.5890 C   0  0  0  0  0  0  0  0  0  0  0  0
  -30.0320   15.1100  -20.2510 O   0  0  0  0  0  0  0  0  0  0  0  0
  -26.2490   12.8430  -20.1580 O   0  0  0  0  0  0  0  0  0  0  0  0
  -29.1740   14.7580  -18.0900 C   0  0  0  0  0  0  0  0  0  0  0  0
  2  3  1  0  0  0  0
  2  1  1  0  0  0  0
  2  5  1  0  0  0  0
  4  2  1  0  0  0  0
  5  6  1  0  0  0  0
  6  7  1  0  0  0  0
  7  8  1  0  0  0  0
  8 10  2  0  0  0  0
  8 11  1  0  0  0  0
  8  9  1  0  0  0  0
 12 13  1  0  0  0  0
 12  1  1  0  0  0  0
 13 17  1  0  0  0  0
 15 14  1  0  0  0  0
 16 15  1  0  0  0  0
 17 18  1  0  0  0  0
 17 16  1  0  0  0  0
 18 21  1  0  0  0  0
 19 18  2  0  0  0  0
 20 16  2  0  0  0  0
 21 14  1  0  0  0  0
M  END
>  <MODEL>
1

>  <REMARK>
 VINA RESULT:      -6.0      0.000      0.000
  Name = ZINC31561356
                            x       y       z     vdW  Elec       q    Type
                         _______ _______ _______ _____ _____    ______ ____

>  <TORSDO>
F 8

>  <vina_score>
-6.0

$$$$
ZINC29840100
 OpenBabel01081721383D

 23 23  0  0  1  0  0  0  0  0999 V2000
  -30.4570   13.8860  -20.4720 N   0  0  0  0  0  0  0  0  0  0  0  0
  -30.5170   14.8530  -20.6480 H   0  0  0  0  0  0  0  0  0  0  0  0
  -29.3520   13.2030  -20.8290 C   0  0  0  0  0  0  0  0  0  0  0  0
  -29.2770   12.0120  -20.6110 O   0  0  0  0  0  0  0  0  0  0  0  0
  -32.9040   12.2510  -18.3120 C   0  0  1  0  0  0  0  0  0  0  0  0
  -32.6490   10.8610  -17.7230 C   0  0  0  0  0  0  0  0  0  0  0  0
  -31.5950   12.9840  -18.5250 C   0  0  0  0  0  0  0  0  0  0  0  0
  -31.5220   13.2200  -19.8490 N   0  0  0  0  0  0  0  0  0  0  0  0
  -32.5880   12.7380  -20.4970 C   0  0  0  0  0  0  0  0  0  0  0  0
  -32.7460   12.8260  -21.6990 O   0  0  0  0  0  0  0  0  0  0  0  0
  -30.7830   13.2940  -17.6800 O   0  0  0  0  0  0  0  0  0  0  0  0
  -33.4660   12.1440  -19.6690 N   0  0  0  0  0  0  0  0  0  0  0  0
  -33.6390   12.6190  -15.9520 C   0  0  0  0  0  0  0  0  0  0  0  0
  -33.8380   13.0530  -17.4050 C   0  0  0  0  0  0  0  0  0  0  0  0
  -28.2070   13.9200  -21.4990 C   0  0  0  0  0  0  0  0  0  0  0  0
  -27.3430   14.5260  -20.4760 N   0  0  0  0  0  0  0  0  0  0  0  0
  -27.4640   15.5380  -20.5230 H   0  0  0  0  0  0  0  0  0  0  0  0
  -27.7350   14.0870  -19.1290 C   0  0  0  0  0  0  0  0  0  0  0  0
  -27.8410   15.3030  -18.2080 C   0  0  0  0  0  0  0  0  0  0  0  0
  -25.9290   14.2280  -20.7370 C   0  0  0  0  0  0  0  0  0  0  0  0
  -25.5370   12.9380  -20.0150 C   0  0  0  0  0  0  0  0  0  0  0  0
  -25.2320   11.9280  -20.9780 O   0  0  0  0  0  0  0  0  0  0  0  0
  -26.0500   11.4850  -21.2530 H   0  0  0  0  0  0  0  0  0  0  0  0
  1  8  1  0  0  0  0
  2  1  1  0  0  0  0
  3  4  2  0  0  0  0
  3  1  1  0  0  0  0
  5  6  1  1  0  0  0
  5 14  1  0  0  0  0
  7  5  1  0  0  0  0
  7 11  2  0  0  0  0
  8  7  1  0  0  0  0
  9  8  1  0  0  0  0
  9 12  1  0  0  0  0
 10  9  2  0  0  0  0
 12  5  1  0  0  0  0
 14 13  1  0  0  0  0
 15  3  1  0  0  0  0
 15 16  1  0  0  0  0
 16 18  1  0  0  0  0
 17 16  1  0  0  0  0
 18 19  1  0  0  0  0
 20 16  1  0  0  0  0
 20 21  1  0  0  0  0
 22 21  1  0  0  0  0
 23 22  1  0  0  0  0
M  END
>  <MODEL>
1

>  <REMARK>
 VINA RESULT:      -6.0      0.000      0.000
  Name = ZINC29840100
                            x       y       z     vdW  Elec       q    Type
                         _______ _______ _______ _____ _____    ______ ____

>  <TORSDO>
F 8

>  <vina_score>
-6.0

$$$$
ZINC19731960
 OpenBabel01081721403D

 23 24  0  0  1  0  0  0  0  0999 V2000
  -32.1490   15.2920  -20.1180 C   0  0  0  0  0  0  0  0  0  0  0  0
  -32.3410   14.1750  -21.1470 C   0  0  0  0  0  0  0  0  0  0  0  0
  -32.0110   11.7820  -20.9890 C   0  0  0  0  0  0  0  0  0  0  0  0
  -32.7430   12.9400  -20.4590 N   0  0  0  0  0  0  0  0  0  0  0  0
  -33.7360   12.7910  -20.6370 H   0  0  0  0  0  0  0  0  0  0  0  0
  -32.5570   13.0620  -19.0080 C   0  0  2  0  0  0  0  0  0  0  0  0
  -31.3980   12.1590  -18.5540 C   0  0  0  0  0  0  0  0  0  0  0  0
  -31.4000   12.0330  -17.0120 C   0  0  0  0  0  0  0  0  0  0  0  0
  -33.1750   12.2640  -16.5900 S   0  0  0  0  0  0  0  0  0  0  0  0
  -33.7020   11.0320  -16.1180 O   0  0  0  0  0  0  0  0  0  0  0  0
  -33.3120   13.4350  -15.7960 O   0  0  0  0  0  0  0  0  0  0  0  0
  -33.8480   12.5990  -18.2720 C   0  0  0  0  0  0  0  0  0  0  0  0
  -30.7310   15.8520  -20.2310 C   0  0  0  0  0  0  0  0  0  0  0  0
  -30.0170   15.5900  -19.0220 O   0  0  0  0  0  0  0  0  0  0  0  0
  -28.9640   14.7340  -19.0990 C   0  0  0  0  0  0  0  0  0  0  0  0
  -28.1900   14.4820  -17.9750 C   0  0  0  0  0  0  0  0  0  0  0  0
  -27.1190   13.6120  -18.0510 C   0  0  0  0  0  0  0  0  0  0  0  0
  -26.8160   12.9900  -19.2470 C   0  0  0  0  0  0  0  0  0  0  0  0
  -27.5830   13.2440  -20.3770 C   0  0  0  0  0  0  0  0  0  0  0  0
  -28.6620   14.1130  -20.3000 C   0  0  0  0  0  0  0  0  0  0  0  0
  -27.2720   12.6190  -21.5880 N   0  0  0  0  0  0  0  0  0  0  0  0
  -26.6620   11.8470  -21.6010 H   0  0  0  0  0  0  0  0  0  0  0  0
  -27.6650   12.9520  -22.4280 H   0  0  0  0  0  0  0  0  0  0  0  0
  2  4  1  0  0  0  0
  2  1  1  0  0  0  0
  3  4  1  0  0  0  0
  5  4  1  0  0  0  0
  6  4  1  6  0  0  0
  6  7  1  0  0  0  0
  6 12  1  0  0  0  0
  7  8  1  0  0  0  0
  8  9  1  0  0  0  0
  9 10  2  0  0  0  0
  9 11  2  0  0  0  0
 12  9  1  0  0  0  0
 13  1  1  0  0  0  0
 13 14  1  0  0  0  0
 15 14  1  0  0  0  0
 15 16  2  0  0  0  0
 17 16  1  0  0  0  0
 18 17  2  0  0  0  0
 19 20  2  0  0  0  0
 19 18  1  0  0  0  0
 20 15  1  0  0  0  0
 21 19  1  0  0  0  0
 22 21  1  0  0  0  0
 23 21  1  0  0  0  0
M  END
>  <MODEL>
1

>  <REMARK>
 VINA RESULT:      -6.0      0.000      0.000
  Name = ZINC19731960
                            x       y       z     vdW  Elec       q    Type
                         _______ _______ _______ _____ _____    ______ ____

>  <TORSDO>
F 7

>  <vina_score>
-6.0

$$$$
ZINC05114539
 OpenBabel01081721403D

 30 32  0  0  1  0  0  0  0  0999 V2000
  -27.3110   15.3170  -19.7440 C   0  0  0  0  0  0  0  0  0  0  0  0
  -26.9850   13.9280  -19.1940 C   0  0  1  0  0  0  0  0  0  0  0  0
  -28.0410   13.5210  -18.1800 C   0  0  0  0  0  0  0  0  0  0  0  0
  -29.3110   13.0110  -18.7030 C   0  0  0  0  0  0  0  0  0  0  0  0
  -29.4480   12.5720  -20.0330 C   0  0  0  0  0  0  0  0  0  0  0  0
  -28.3050   12.6120  -20.9740 C   0  0  0  0  0  0  0  0  0  0  0  0
  -28.4260   12.4170  -22.1670 O   0  0  0  0  0  0  0  0  0  0  0  0
  -30.7650   12.1530  -20.1900 C   0  0  0  0  0  0  0  0  0  0  0  0
  -31.3960   12.3450  -18.9970 C   0  0  0  0  0  0  0  0  0  0  0  0
  -32.7590   12.1730  -18.3560 C   0  0  2  0  0  0  0  0  0  0  0  0
  -32.6930   13.0450  -17.0830 C   0  0  2  0  0  0  0  0  0  0  0  0
  -31.1760   13.0590  -16.7900 C   0  0  0  0  0  0  0  0  0  0  0  0
  -30.5190   12.8550  -18.0940 N   0  0  0  0  0  0  0  0  0  0  0  0
  -27.8410   13.6160  -16.9870 O   0  0  0  0  0  0  0  0  0  0  0  0
  -26.9840   12.9190  -20.3280 C   0  0  0  0  0  0  0  0  0  0  0  0
  -25.9030   12.3540  -20.7180 N   0  0  0  0  0  0  0  0  0  0  0  0
  -25.0480   12.5710  -20.2790 H   0  0  0  0  0  0  0  0  0  0  0  0
  -33.4170   12.3960  -15.9750 N   0  0  0  0  0  0  0  0  0  0  0  0
  -34.2960   12.0120  -16.3220 H   0  0  0  0  0  0  0  0  0  0  0  0
  -32.8460   11.6450  -15.5890 H   0  0  0  0  0  0  0  0  0  0  0  0
  -33.6100   13.0850  -15.2470 H   0  0  0  0  0  0  0  0  0  0  0  0
  -32.9810   10.8030  -18.0160 O   0  0  0  0  0  0  0  0  0  0  0  0
  -32.4990   10.5890  -17.2020 H   0  0  0  0  0  0  0  0  0  0  0  0
  -31.3820   11.5970  -21.4470 C   0  0  0  0  0  0  0  0  0  0  0  0
  -31.9540   12.6810  -22.2260 O   0  0  0  0  0  0  0  0  0  0  0  0
  -32.9210   13.4110  -21.6400 C   0  0  0  0  0  0  0  0  0  0  0  0
  -32.7190   14.7210  -21.3900 N   0  0  0  0  0  0  0  0  0  0  0  0
  -33.4280   15.2550  -20.9660 H   0  0  0  0  0  0  0  0  0  0  0  0
  -31.8640   15.1420  -21.6330 H   0  0  0  0  0  0  0  0  0  0  0  0
  -33.9780   12.8920  -21.3410 O   0  0  0  0  0  0  0  0  0  0  0  0
  2  1  1  6  0  0  0
  2  3  1  0  0  0  0
  3 14  2  0  0  0  0
  4  3  1  0  0  0  0
  4 13  1  0  0  0  0
  5  4  2  0  0  0  0
  6 15  1  0  0  0  0
  6  5  1  0  0  0  0
  7  6  2  0  0  0  0
  8  5  1  0  0  0  0
  8  9  2  0  0  0  0
  9 10  1  0  0  0  0
  9 13  1  0  0  0  0
 10 22  1  1  0  0  0
 10 11  1  0  0  0  0
 11 12  1  0  0  0  0
 11 18  1  1  0  0  0
 13 12  1  0  0  0  0
 15  2  1  0  0  0  0
 16 15  2  0  0  0  0
 16 17  1  0  0  0  0
 18 20  1  0  0  0  0
 18 21  1  0  0  0  0
 19 18  1  0  0  0  0
 22 23  1  0  0  0  0
 24  8  1  0  0  0  0
 25 26  1  0  0  0  0
 25 24  1  0  0  0  0
 26 27  1  0  0  0  0
 26 30  2  0  0  0  0
 27 28  1  0  0  0  0
 29 27  1  0  0  0  0
M  END
>  <MODEL>
1

>  <REMARK>
 VINA RESULT:      -6.0      0.000      0.000
  Name = ZINC05114539
                            x       y       z     vdW  Elec       q    Type
                         _______ _______ _______ _____ _____    ______ ____

>  <TORSDO>
F 5

>  <vina_score>
-6.0

$$$$
ZINC29918169
 OpenBabel01081721433D

 28 29  0  0  0  0  0  0  0  0999 V2000
  -28.9630   13.8660  -19.5730 N   0  0  0  0  0  0  0  0  0  0  0  0
  -29.9090   13.1900  -20.2880 C   0  0  0  0  0  0  0  0  0  0  0  0
  -31.1300   13.8260  -20.5730 C   0  0  0  0  0  0  0  0  0  0  0  0
  -31.3220   15.1950  -20.0770 C   0  0  0  0  0  0  0  0  0  0  0  0
  -30.3240   15.7760  -19.3790 N   0  0  0  0  0  0  0  0  0  0  0  0
  -30.4370   16.6940  -19.0410 H   0  0  0  0  0  0  0  0  0  0  0  0
  -32.3590   15.7950  -20.2940 O   0  0  0  0  0  0  0  0  0  0  0  0
  -29.1790   15.1180  -19.1380 C   0  0  0  0  0  0  0  0  0  0  0  0
  -28.3040   15.6760  -18.5040 O   0  0  0  0  0  0  0  0  0  0  0  0
  -29.6740   11.9210  -20.7190 N   0  0  0  0  0  0  0  0  0  0  0  0
  -30.4080   11.3860  -21.0990 H   0  0  0  0  0  0  0  0  0  0  0  0
  -28.7700   11.5380  -20.6530 H   0  0  0  0  0  0  0  0  0  0  0  0
  -32.1410   13.1680  -21.3040 C   0  0  0  0  0  0  0  0  0  0  0  0
  -31.9300   12.8080  -22.4440 O   0  0  0  0  0  0  0  0  0  0  0  0
  -33.4840   12.9090  -20.6680 C   0  0  0  0  0  0  0  0  0  0  0  0
  -33.5960   11.1700  -20.1830 S   0  0  0  0  0  0  0  0  0  0  0  0
  -33.2760   11.3130  -18.4560 C   0  0  0  0  0  0  0  0  0  0  0  0
  -32.2620   11.9320  -17.9010 N   0  0  0  0  0  0  0  0  0  0  0  0
  -32.3540   11.8370  -16.6220 N   0  0  0  0  0  0  0  0  0  0  0  0
  -33.4150   11.1510  -16.3110 C   0  0  0  0  0  0  0  0  0  0  0  0
  -34.0250   10.8030  -17.4610 O   0  0  0  0  0  0  0  0  0  0  0  0
  -33.8780   10.8100  -14.9170 C   0  0  0  0  0  0  0  0  0  0  0  0
  -35.0330   12.0810  -14.3350 S   0  0  0  0  0  0  0  0  0  0  0  0
  -36.3150   11.1420  -13.4610 C   0  0  0  0  0  0  0  0  0  0  0  0
  -27.6870   13.2110  -19.2710 C   0  0  0  0  0  0  0  0  0  0  0  0
  -25.4970   12.7490  -20.3800 C   0  0  0  0  0  0  0  0  0  0  0  0
  -26.5900   13.7970  -20.1610 C   0  0  0  0  0  0  0  0  0  0  0  0
  -27.1890   14.1960  -21.5120 C   0  0  0  0  0  0  0  0  0  0  0  0
  1 25  1  0  0  0  0
  1  8  1  0  0  0  0
  2  1  1  0  0  0  0
  3  2  2  0  0  0  0
  3  4  1  0  0  0  0
  4  5  1  0  0  0  0
  5  8  1  0  0  0  0
  5  6  1  0  0  0  0
  7  4  2  0  0  0  0
  8  9  2  0  0  0  0
 10 12  1  0  0  0  0
 10  2  1  0  0  0  0
 11 10  1  0  0  0  0
 13 15  1  0  0  0  0
 13  3  1  0  0  0  0
 14 13  2  0  0  0  0
 15 16  1  0  0  0  0
 16 17  1  0  0  0  0
 17 18  2  0  0  0  0
 17 21  1  0  0  0  0
 18 19  1  0  0  0  0
 19 20  2  0  0  0  0
 20 22  1  0  0  0  0
 21 20  1  0  0  0  0
 22 23  1  0  0  0  0
 23 24  1  0  0  0  0
 26 27  1  0  0  0  0
 27 25  1  0  0  0  0
 28 27  1  0  0  0  0
M  END
>  <MODEL>
1

>  <REMARK>
 VINA RESULT:      -6.0      0.000      0.000
  Name = ZINC29918169
                            x       y       z     vdW  Elec       q    Type
                         _______ _______ _______ _____ _____    ______ ____

>  <TORSDO>
F 9

>  <vina_score>
-6.0

$$$$
ZINC32036344
 OpenBabel01081721433D

 25 27  0  0  0  0  0  0  0  0999 V2000
  -31.1010   11.5420  -20.7700 C   0  0  0  0  0  0  0  0  0  0  0  0
  -30.0010   12.1710  -20.4760 N   0  0  0  0  0  0  0  0  0  0  0  0
  -30.2630   13.4910  -20.3130 C   0  0  0  0  0  0  0  0  0  0  0  0
  -31.6400   13.6670  -20.5280 C   0  0  0  0  0  0  0  0  0  0  0  0
  -32.1600   14.8880  -20.4280 N   0  0  0  0  0  0  0  0  0  0  0  0
  -31.3930   15.9230  -20.1280 C   0  0  0  0  0  0  0  0  0  0  0  0
  -30.0890   15.8010  -19.9170 N   0  0  0  0  0  0  0  0  0  0  0  0
  -29.4880   14.6200  -19.9980 C   0  0  0  0  0  0  0  0  0  0  0  0
  -32.1420   12.4230  -20.8140 N   0  0  0  0  0  0  0  0  0  0  0  0
  -28.1260   14.5030  -19.7810 N   0  0  0  0  0  0  0  0  0  0  0  0
  -27.8430   13.5640  -18.6650 C   0  0  0  0  0  0  0  0  0  0  0  0
  -26.3690   13.1560  -18.9090 C   0  0  0  0  0  0  0  0  0  0  0  0
  -26.2840   13.0680  -20.4500 C   0  0  0  0  0  0  0  0  0  0  0  0
  -27.4480   13.9350  -20.9660 C   0  0  0  0  0  0  0  0  0  0  0  0
  -31.9710   17.1780  -20.0320 N   0  0  0  0  0  0  0  0  0  0  0  0
  -31.8120   17.7340  -19.2350 H   0  0  0  0  0  0  0  0  0  0  0  0
  -32.5410   17.5140  -20.7610 H   0  0  0  0  0  0  0  0  0  0  0  0
  -33.5390   12.1000  -21.1140 C   0  0  0  0  0  0  0  0  0  0  0  0
  -33.9410   10.8300  -20.3630 C   0  0  0  0  0  0  0  0  0  0  0  0
  -33.5890   10.9620  -18.9830 O   0  0  0  0  0  0  0  0  0  0  0  0
  -33.9590   12.2180  -18.4080 C   0  0  0  0  0  0  0  0  0  0  0  0
  -33.0740   12.4490  -16.8320 P   0  0  0  0  0  0  0  0  0  0  0  0
  -32.8690   11.0200  -16.1170 O   0  0  0  0  0  0  0  0  0  0  0  0
  -33.9330   13.4120  -15.8690 O   0  0  0  0  0  0  0  0  0  0  0  0
  -31.7530   13.0630  -17.0940 O   0  0  0  0  0  0  0  0  0  0  0  0
  1  2  2  0  0  0  0
  2  3  1  0  0  0  0
  3  8  2  0  0  0  0
  4  5  2  0  0  0  0
  4  3  1  0  0  0  0
  5  6  1  0  0  0  0
  6 15  1  0  0  0  0
  6  7  2  0  0  0  0
  8  7  1  0  0  0  0
  8 10  1  0  0  0  0
  9  1  1  0  0  0  0
  9  4  1  0  0  0  0
 10 11  1  0  0  0  0
 12 11  1  0  0  0  0
 13 12  1  0  0  0  0
 14 13  1  0  0  0  0
 14 10  1  0  0  0  0
 15 16  1  0  0  0  0
 17 15  1  0  0  0  0
 18  9  1  0  0  0  0
 18 19  1  0  0  0  0
 19 20  1  0  0  0  0
 20 21  1  0  0  0  0
 21 22  1  0  0  0  0
 22 23  1  0  0  0  0
 22 24  1  0  0  0  0
 25 22  2  0  0  0  0
M  END
>  <MODEL>
1

>  <REMARK>
 VINA RESULT:      -6.0      0.000      0.000
  Name = ZINC32036344
                            x       y       z     vdW  Elec       q    Type
                         _______ _______ _______ _____ _____    ______ ____

>  <TORSDO>
F 7

>  <vina_score>
-6.0

$$$$
ZINC00399536
 OpenBabel01081721473D

 26 27  0  0  1  0  0  0  0  0999 V2000
  -32.2150   13.4550  -21.0560 C   0  0  0  0  0  0  0  0  0  0  0  0
  -32.1560   14.5810  -20.2470 C   0  0  0  0  0  0  0  0  0  0  0  0
  -30.9370   15.0250  -19.7730 C   0  0  0  0  0  0  0  0  0  0  0  0
  -29.7750   14.3550  -20.1120 C   0  0  0  0  0  0  0  0  0  0  0  0
  -29.8320   13.2370  -20.9220 C   0  0  0  0  0  0  0  0  0  0  0  0
  -31.0490   12.7860  -21.3950 C   0  0  0  0  0  0  0  0  0  0  0  0
  -33.4130   13.0130  -21.5210 O   0  0  0  0  0  0  0  0  0  0  0  0
  -33.8380   11.8180  -21.0750 C   0  0  0  0  0  0  0  0  0  0  0  0
  -33.5340   10.8030  -21.6690 O   0  0  0  0  0  0  0  0  0  0  0  0
  -34.6050   11.7450  -19.9710 O   0  0  0  0  0  0  0  0  0  0  0  0
  -34.1510   10.8670  -18.9080 C   0  0  0  0  0  0  0  0  0  0  0  0
  -30.7720   12.6140  -16.9650 C   0  0  0  0  0  0  0  0  0  0  0  0
  -30.6000   11.5380  -17.8140 C   0  0  0  0  0  0  0  0  0  0  0  0
  -31.6930   10.9720  -18.4430 C   0  0  0  0  0  0  0  0  0  0  0  0
  -32.9590   11.4830  -18.2220 C   0  0  0  0  0  0  0  0  0  0  0  0
  -33.1290   12.5640  -17.3770 C   0  0  0  0  0  0  0  0  0  0  0  0
  -32.0370   13.1260  -16.7440 C   0  0  0  0  0  0  0  0  0  0  0  0
  -28.4470   14.8470  -19.5980 C   0  0  0  0  0  0  0  0  0  0  0  0
  -27.5230   13.6540  -19.3470 C   0  0  2  0  0  0  0  0  0  0  0  0
  -26.9300   13.7820  -18.0040 N   0  0  0  0  0  0  0  0  0  0  0  0
  -26.0510   14.2950  -18.0680 H   0  0  0  0  0  0  0  0  0  0  0  0
  -27.5750   14.2850  -17.3950 H   0  0  0  0  0  0  0  0  0  0  0  0
  -26.7540   12.8530  -17.6210 H   0  0  0  0  0  0  0  0  0  0  0  0
  -26.4440   13.6240  -20.3990 C   0  0  0  0  0  0  0  0  0  0  0  0
  -25.5610   12.6130  -20.4260 O   0  0  0  0  0  0  0  0  0  0  0  0
  -26.3730   14.5100  -21.2180 O   0  0  0  0  0  0  0  0  0  0  0  0
  1  2  1  0  0  0  0
  2  3  2  0  0  0  0
  4  3  1  0  0  0  0
  4 18  1  0  0  0  0
  5  4  2  0  0  0  0
  6  1  2  0  0  0  0
  6  5  1  0  0  0  0
  7  8  1  0  0  0  0
  7  1  1  0  0  0  0
  8 10  1  0  0  0  0
  9  8  2  0  0  0  0
 10 11  1  0  0  0  0
 11 15  1  0  0  0  0
 12 17  1  0  0  0  0
 13 12  2  0  0  0  0
 14 15  2  0  0  0  0
 14 13  1  0  0  0  0
 15 16  1  0  0  0  0
 16 17  2  0  0  0  0
 18 19  1  0  0  0  0
 19 24  1  6  0  0  0
 19 20  1  0  0  0  0
 20 23  1  0  0  0  0
 20 22  1  0  0  0  0
 21 20  1  0  0  0  0
 25 24  1  0  0  0  0
 26 24  2  0  0  0  0
M  END
>  <MODEL>
1

>  <REMARK>
 VINA RESULT:      -5.9      0.000      0.000
  Name = ZINC00399536
                            x       y       z     vdW  Elec       q    Type
                         _______ _______ _______ _____ _____    ______ ____

>  <TORSDO>
F 9

>  <vina_score>
-5.9

$$$$
ZINC04839229
 OpenBabel01081721503D

 26 27  0  0  0  0  0  0  0  0999 V2000
  -32.0730   12.9830  -19.2830 C   0  0  0  0  0  0  0  0  0  0  0  0
  -33.4330   13.2460  -19.1720 C   0  0  0  0  0  0  0  0  0  0  0  0
  -34.0740   13.0720  -17.9640 C   0  0  0  0  0  0  0  0  0  0  0  0
  -33.3700   12.6350  -16.8520 C   0  0  0  0  0  0  0  0  0  0  0  0
  -32.0210   12.3690  -16.9430 C   0  0  0  0  0  0  0  0  0  0  0  0
  -31.3590   12.5360  -18.1610 C   0  0  0  0  0  0  0  0  0  0  0  0
  -29.9160   12.2480  -18.2660 C   0  0  0  0  0  0  0  0  0  0  0  0
  -29.0180   13.2430  -18.1280 N   0  0  0  0  0  0  0  0  0  0  0  0
  -29.4490   14.6070  -17.7860 C   0  0  0  0  0  0  0  0  0  0  0  0
  -28.8300   15.5840  -18.7840 C   0  0  0  0  0  0  0  0  0  0  0  0
  -27.3670   15.3930  -18.8220 N   0  0  0  0  0  0  0  0  0  0  0  0
  -26.9610   16.0780  -19.4590 H   0  0  0  0  0  0  0  0  0  0  0  0
  -26.9870   15.5160  -17.8830 H   0  0  0  0  0  0  0  0  0  0  0  0
  -27.0360   14.0370  -19.3050 C   0  0  0  0  0  0  0  0  0  0  0  0
  -27.5810   12.9960  -18.3220 C   0  0  0  0  0  0  0  0  0  0  0  0
  -29.5370   11.1120  -18.4770 O   0  0  0  0  0  0  0  0  0  0  0  0
  -34.0710   12.4520  -15.5610 N   0  0  0  0  0  0  0  0  0  0  0  0
  -34.4330   11.3420  -15.2160 O   0  0  0  0  0  0  0  0  0  0  0  0
  -34.2870   13.4140  -14.8440 O   0  0  0  0  0  0  0  0  0  0  0  0
  -31.4260   13.1570  -20.4990 N   0  0  0  0  0  0  0  0  0  0  0  0
  -30.6240   13.7270  -20.5540 H   0  0  0  0  0  0  0  0  0  0  0  0
  -31.9340   12.4940  -21.7020 C   0  0  0  0  0  0  0  0  0  0  0  0
  -31.6040   11.0020  -21.6410 C   0  0  0  0  0  0  0  0  0  0  0  0
  -30.1020   10.8030  -21.8570 C   0  0  0  0  0  0  0  0  0  0  0  0
  -28.2310   12.2710  -22.1570 C   0  0  0  0  0  0  0  0  0  0  0  0
  -29.5660   11.9360  -22.5430 O   0  0  0  0  0  0  0  0  0  0  0  0
  1  2  2  0  0  0  0
  1  6  1  0  0  0  0
  2  3  1  0  0  0  0
  3  4  2  0  0  0  0
  4 17  1  0  0  0  0
  5  4  1  0  0  0  0
  6  5  2  0  0  0  0
  7  6  1  0  0  0  0
  7  8  1  0  0  0  0
  8  9  1  0  0  0  0
 10  9  1  0  0  0  0
 11 10  1  0  0  0  0
 11 13  1  0  0  0  0
 12 11  1  0  0  0  0
 14 11  1  0  0  0  0
 14 15  1  0  0  0  0
 15  8  1  0  0  0  0
 16  7  2  0  0  0  0
 17 18  2  0  0  0  0
 17 19  2  0  0  0  0
 20  1  1  0  0  0  0
 21 20  1  0  0  0  0
 22 23  1  0  0  0  0
 22 20  1  0  0  0  0
 24 23  1  0  0  0  0
 26 25  1  0  0  0  0
 26 24  1  0  0  0  0
M  END
>  <MODEL>
1

>  <REMARK>
 VINA RESULT:      -5.9      0.000      0.000
  Name = ZINC04839229
                            x       y       z     vdW  Elec       q    Type
                         _______ _______ _______ _____ _____    ______ ____

>  <TORSDO>
F 7

>  <vina_score>
-5.9

$$$$
ZINC05594650
 OpenBabel01081721513D

 22 23  0  0  1  0  0  0  0  0999 V2000
  -28.3860   12.5270  -21.8820 C   0  0  0  0  0  0  0  0  0  0  0  0
  -27.3510   13.3410  -21.7790 N   0  0  0  0  0  0  0  0  0  0  0  0
  -27.0680   13.9530  -20.6330 C   0  0  0  0  0  0  0  0  0  0  0  0
  -27.8990   13.7140  -19.5240 C   0  0  0  0  0  0  0  0  0  0  0  0
  -28.9860   12.8400  -19.6860 C   0  0  0  0  0  0  0  0  0  0  0  0
  -29.6160   12.7900  -18.4680 N   0  0  0  0  0  0  0  0  0  0  0  0
  -28.9270   13.6030  -17.6190 C   0  0  0  0  0  0  0  0  0  0  0  0
  -27.9200   14.1440  -18.2390 N   0  0  0  0  0  0  0  0  0  0  0  0
  -29.1900   12.2740  -20.8710 N   0  0  0  0  0  0  0  0  0  0  0  0
  -25.9820   14.8040  -20.5340 N   0  0  0  0  0  0  0  0  0  0  0  0
  -26.1230   15.7760  -20.4720 H   0  0  0  0  0  0  0  0  0  0  0  0
  -25.0680   14.4380  -20.5260 H   0  0  0  0  0  0  0  0  0  0  0  0
  -30.8090   12.0060  -18.1410 C   0  0  0  0  0  0  0  0  0  0  0  0
  -31.8660   12.9210  -17.5190 C   0  0  0  0  0  0  0  0  0  0  0  0
  -32.5740   13.6030  -18.5560 O   0  0  0  0  0  0  0  0  0  0  0  0
  -32.7060   12.8470  -19.7630 C   0  0  0  0  0  0  0  0  0  0  0  0
  -32.7030   13.7970  -20.9620 C   0  0  2  0  0  0  0  0  0  0  0  0
  -31.7360   13.3550  -21.9160 O   0  0  0  0  0  0  0  0  0  0  0  0
  -32.0870   13.4730  -22.8120 H   0  0  0  0  0  0  0  0  0  0  0  0
  -32.3460   15.2090  -20.4930 C   0  0  0  0  0  0  0  0  0  0  0  0
  -30.9260   15.3350  -20.3960 O   0  0  0  0  0  0  0  0  0  0  0  0
  -30.6300   16.0810  -20.9420 H   0  0  0  0  0  0  0  0  0  0  0  0
  1  2  2  0  0  0  0
  1  9  1  0  0  0  0
  2  3  1  0  0  0  0
  3 10  1  0  0  0  0
  3  4  2  0  0  0  0
  4  8  1  0  0  0  0
  5  4  1  0  0  0  0
  5  6  1  0  0  0  0
  6 13  1  0  0  0  0
  6  7  1  0  0  0  0
  8  7  2  0  0  0  0
  9  5  2  0  0  0  0
 10 12  1  0  0  0  0
 10 11  1  0  0  0  0
 13 14  1  0  0  0  0
 15 14  1  0  0  0  0
 16 15  1  0  0  0  0
 17 18  1  6  0  0  0
 17 20  1  0  0  0  0
 17 16  1  0  0  0  0
 19 18  1  0  0  0  0
 20 21  1  0  0  0  0
 22 21  1  0  0  0  0
M  END
>  <MODEL>
1

>  <REMARK>
 VINA RESULT:      -5.9      0.000      0.000
  Name = ZINC05594650
                            x       y       z     vdW  Elec       q    Type
                         _______ _______ _______ _____ _____    ______ ____

>  <TORSDO>
F 9

>  <vina_score>
-5.9

$$$$
ZINC10569467
 OpenBabel01081721523D

 23 23  0  0  1  0  0  0  0  0999 V2000
  -31.5320   13.9060  -19.8800 C   0  0  1  0  0  0  0  0  0  0  0  0
  -32.1170   15.2440  -20.3370 C   0  0  0  0  0  0  0  0  0  0  0  0
  -32.0590   12.9090  -17.6790 N   0  0  0  0  0  0  0  0  0  0  0  0
  -31.1310   13.0930  -17.4090 H   0  0  0  0  0  0  0  0  0  0  0  0
  -32.4820   13.2460  -18.9130 C   0  0  0  0  0  0  0  0  0  0  0  0
  -33.6250   13.0190  -19.2470 O   0  0  0  0  0  0  0  0  0  0  0  0
  -35.3130   12.0210  -14.0070 C   0  0  0  0  0  0  0  0  0  0  0  0
  -34.3650   11.9170  -15.1750 C   0  0  0  0  0  0  0  0  0  0  0  0
  -33.6730   12.9290  -15.7460 C   0  0  0  0  0  0  0  0  0  0  0  0
  -32.9380   12.2980  -16.7840 C   0  0  0  0  0  0  0  0  0  0  0  0
  -33.2490   11.0290  -16.7320 N   0  0  0  0  0  0  0  0  0  0  0  0
  -34.0390   10.8030  -15.8450 O   0  0  0  0  0  0  0  0  0  0  0  0
  -31.2900   12.8300  -21.3210 S   0  0  0  0  0  0  0  0  0  0  0  0
  -29.8380   11.8340  -20.8860 C   0  0  0  0  0  0  0  0  0  0  0  0
  -28.5840   12.6010  -21.2180 C   0  0  0  0  0  0  0  0  0  0  0  0
  -28.3790   12.9600  -22.3530 O   0  0  0  0  0  0  0  0  0  0  0  0
  -27.6970   12.8880  -20.2520 O   0  0  0  0  0  0  0  0  0  0  0  0
  -28.1760   12.8470  -18.8830 C   0  0  0  0  0  0  0  0  0  0  0  0
  -28.2590   14.2490  -18.3380 C   0  0  0  0  0  0  0  0  0  0  0  0
  -27.3980   15.1920  -18.7700 N   0  0  0  0  0  0  0  0  0  0  0  0
  -27.4520   16.1080  -18.4140 H   0  0  0  0  0  0  0  0  0  0  0  0
  -26.7150   14.9650  -19.4420 H   0  0  0  0  0  0  0  0  0  0  0  0
  -29.1000   14.5290  -17.5100 O   0  0  0  0  0  0  0  0  0  0  0  0
  1 13  1  6  0  0  0
  1  5  1  0  0  0  0
  2  1  1  0  0  0  0
  3  4  1  0  0  0  0
  3 10  1  0  0  0  0
  5  3  1  0  0  0  0
  6  5  2  0  0  0  0
  8  7  1  0  0  0  0
  9  8  2  0  0  0  0
 10 11  2  0  0  0  0
 10  9  1  0  0  0  0
 11 12  1  0  0  0  0
 12  8  1  0  0  0  0
 13 14  1  0  0  0  0
 15 14  1  0  0  0  0
 15 17  1  0  0  0  0
 16 15  2  0  0  0  0
 17 18  1  0  0  0  0
 18 19  1  0  0  0  0
 19 23  2  0  0  0  0
 20 21  1  0  0  0  0
 20 19  1  0  0  0  0
 22 20  1  0  0  0  0
M  END
>  <MODEL>
1

>  <REMARK>
 VINA RESULT:      -5.9      0.000      0.000
  Name = ZINC10569467
                            x       y       z     vdW  Elec       q    Type
                         _______ _______ _______ _____ _____    ______ ____

>  <TORSDO>
F 8

>  <vina_score>
-5.9

$$$$
ZINC06382444
 OpenBabel01081721543D

 22 23  0  0  1  0  0  0  0  0999 V2000
  -31.9020   15.0890  -20.1250 C   0  0  0  0  0  0  0  0  0  0  0  0
  -30.4850   15.3850  -20.3490 N   0  0  0  0  0  0  0  0  0  0  0  0
  -30.2130   15.9340  -21.1200 H   0  0  0  0  0  0  0  0  0  0  0  0
  -29.5530   14.9050  -19.5000 C   0  0  0  0  0  0  0  0  0  0  0  0
  -29.8710   14.5280  -18.2750 N   0  0  0  0  0  0  0  0  0  0  0  0
  -29.0110   13.9850  -17.4190 C   0  0  0  0  0  0  0  0  0  0  0  0
  -27.8390   13.4920  -17.8000 N   0  0  0  0  0  0  0  0  0  0  0  0
  -27.5440   13.6310  -19.0930 C   0  0  0  0  0  0  0  0  0  0  0  0
  -26.9530   12.8540  -19.9530 N   0  0  0  0  0  0  0  0  0  0  0  0
  -27.2080   13.2360  -21.2110 C   0  0  0  0  0  0  0  0  0  0  0  0
  -27.9110   14.3320  -21.2850 N   0  0  0  0  0  0  0  0  0  0  0  0
  -28.1100   14.7840  -19.9110 C   0  0  1  0  0  0  0  0  0  0  0  0
  -32.3370   13.9470  -21.0450 C   0  0  2  0  0  0  0  0  0  0  0  0
  -33.1050   14.4730  -22.1280 O   0  0  0  0  0  0  0  0  0  0  0  0
  -32.6060   15.1830  -22.5640 H   0  0  0  0  0  0  0  0  0  0  0  0
  -33.1860   12.9500  -20.2540 C   0  0  0  0  0  0  0  0  0  0  0  0
  -32.4870   12.6280  -18.9920 N   0  0  0  0  0  0  0  0  0  0  0  0
  -31.6930   13.2600  -18.8830 H   0  0  0  0  0  0  0  0  0  0  0  0
  -32.6220   12.8390  -16.5330 C   0  0  0  0  0  0  0  0  0  0  0  0
  -33.4040   12.8070  -17.8480 C   0  0  0  0  0  0  0  0  0  0  0  0
  -31.9910   11.2360  -19.0310 C   0  0  0  0  0  0  0  0  0  0  0  0
  -30.5020   11.2520  -19.3820 C   0  0  0  0  0  0  0  0  0  0  0  0
  2  1  1  0  0  0  0
  2  4  1  0  0  0  0
  3  2  1  0  0  0  0
  4  5  2  0  0  0  0
  5  6  1  0  0  0  0
  7  6  2  0  0  0  0
  8  7  1  0  0  0  0
  9  8  2  0  0  0  0
 10  9  1  0  0  0  0
 11 10  2  0  0  0  0
 12 11  1  6  0  0  0
 12  4  1  0  0  0  0
 12  8  1  0  0  0  0
 13 14  1  6  0  0  0
 13 16  1  0  0  0  0
 13  1  1  0  0  0  0
 15 14  1  0  0  0  0
 16 17  1  0  0  0  0
 17 18  1  0  0  0  0
 17 20  1  0  0  0  0
 20 19  1  0  0  0  0
 21 17  1  0  0  0  0
 22 21  1  0  0  0  0
M  END
>  <MODEL>
1

>  <REMARK>
 VINA RESULT:      -5.9      0.000      0.000
  Name = ZINC06382444
                            x       y       z     vdW  Elec       q    Type
                         _______ _______ _______ _____ _____    ______ ____

>  <TORSDO>
F 8

>  <vina_score>
-5.9

$$$$
ZINC06041659
 OpenBabel01081721573D

 26 27  0  0  0  0  0  0  0  0999 V2000
  -29.7460   13.0870  -20.5440 C   0  0  0  0  0  0  0  0  0  0  0  0
  -30.5530   14.2140  -20.5120 C   0  0  0  0  0  0  0  0  0  0  0  0
  -31.6840   14.2430  -19.7240 C   0  0  0  0  0  0  0  0  0  0  0  0
  -32.0180   13.1360  -18.9570 C   0  0  0  0  0  0  0  0  0  0  0  0
  -31.2040   11.9920  -18.9850 C   0  0  0  0  0  0  0  0  0  0  0  0
  -31.7700   11.0790  -18.1540 N   0  0  0  0  0  0  0  0  0  0  0  0
  -32.8540   11.5810  -17.6200 C   0  0  0  0  0  0  0  0  0  0  0  0
  -33.0540   12.8490  -18.0860 N   0  0  0  0  0  0  0  0  0  0  0  0
  -33.7980   13.4480  -17.8460 H   0  0  0  0  0  0  0  0  0  0  0  0
  -30.0620   11.9800  -19.7890 C   0  0  0  0  0  0  0  0  0  0  0  0
  -33.6780   10.9240  -16.7230 N   0  0  0  0  0  0  0  0  0  0  0  0
  -33.9280    9.9850  -16.8820 H   0  0  0  0  0  0  0  0  0  0  0  0
  -34.1380   11.5690  -15.6330 C   0  0  0  0  0  0  0  0  0  0  0  0
  -33.8290   12.7280  -15.4370 O   0  0  0  0  0  0  0  0  0  0  0  0
  -34.9390   10.9290  -14.7600 O   0  0  0  0  0  0  0  0  0  0  0  0
  -35.6090   11.7440  -13.7620 C   0  0  0  0  0  0  0  0  0  0  0  0
  -28.3040   13.0710  -21.5580 S   0  0  0  0  0  0  0  0  0  0  0  0
  -27.9610   14.4300  -21.7970 O   0  0  0  0  0  0  0  0  0  0  0  0
  -28.5590   12.1520  -22.6110 O   0  0  0  0  0  0  0  0  0  0  0  0
  -27.0760   12.4250  -20.6540 N   0  0  0  0  0  0  0  0  0  0  0  0
  -27.4880   11.6870  -20.0820 H   0  0  0  0  0  0  0  0  0  0  0  0
  -26.3040   13.2800  -19.7500 C   0  0  0  0  0  0  0  0  0  0  0  0
  -27.1250   13.5870  -18.5240 C   0  0  0  0  0  0  0  0  0  0  0  0
  -27.4630   12.6940  -17.7840 O   0  0  0  0  0  0  0  0  0  0  0  0
  -28.6400   15.0430  -17.4010 C   0  0  0  0  0  0  0  0  0  0  0  0
  -27.4820   14.8520  -18.2550 O   0  0  0  0  0  0  0  0  0  0  0  0
  1  2  2  0  0  0  0
  1 10  1  0  0  0  0
  2  3  1  0  0  0  0
  3  4  2  0  0  0  0
  4  8  1  0  0  0  0
  5  4  1  0  0  0  0
  5  6  1  0  0  0  0
  6  7  2  0  0  0  0
  7 11  1  0  0  0  0
  8  9  1  0  0  0  0
  8  7  1  0  0  0  0
 10  5  2  0  0  0  0
 11 13  1  0  0  0  0
 12 11  1  0  0  0  0
 13 14  2  0  0  0  0
 13 15  1  0  0  0  0
 15 16  1  0  0  0  0
 17 20  1  0  0  0  0
 17  1  1  0  0  0  0
 18 17  2  0  0  0  0
 19 17  2  0  0  0  0
 20 21  1  0  0  0  0
 20 22  1  0  0  0  0
 22 23  1  0  0  0  0
 23 26  1  0  0  0  0
 23 24  2  0  0  0  0
 26 25  1  0  0  0  0
M  END
>  <MODEL>
1

>  <REMARK>
 VINA RESULT:      -5.9      0.000      0.000
  Name = ZINC06041659
                            x       y       z     vdW  Elec       q    Type
                         _______ _______ _______ _____ _____    ______ ____

>  <TORSDO>
F 7

>  <vina_score>
-5.9

$$$$
ZINC04771070
 OpenBabel01081721583D

 24 25  0  0  0  0  0  0  0  0999 V2000
  -30.5410   12.6640  -18.5400 C   0  0  0  0  0  0  0  0  0  0  0  0
  -29.7070   12.2860  -19.5800 C   0  0  0  0  0  0  0  0  0  0  0  0
  -30.2440   11.8940  -20.7910 C   0  0  0  0  0  0  0  0  0  0  0  0
  -31.6150   11.8770  -20.9700 C   0  0  0  0  0  0  0  0  0  0  0  0
  -32.4550   12.2470  -19.9350 C   0  0  0  0  0  0  0  0  0  0  0  0
  -34.3290   12.2140  -20.1790 Br  0  0  0  0  0  0  0  0  0  0  0  0
  -31.9210   12.6460  -18.7190 C   0  0  0  0  0  0  0  0  0  0  0  0
  -30.0130   13.0500  -17.3480 O   0  0  0  0  0  0  0  0  0  0  0  0
  -28.6690   15.0570  -17.4130 C   0  0  0  0  0  0  0  0  0  0  0  0
  -28.6670   13.5280  -17.3600 C   0  0  0  0  0  0  0  0  0  0  0  0
  -29.3350   11.4840  -21.9210 C   0  0  0  0  0  0  0  0  0  0  0  0
  -28.6710   12.6730  -22.4720 N   0  0  0  0  0  0  0  0  0  0  0  0
  -28.9000   13.0900  -23.3320 H   0  0  0  0  0  0  0  0  0  0  0  0
  -27.6930   13.1210  -21.6290 N   0  0  0  0  0  0  0  0  0  0  0  0
  -27.6180   14.3310  -21.0290 C   0  0  0  0  0  0  0  0  0  0  0  0
  -26.5170   14.3380  -20.3090 N   0  0  0  0  0  0  0  0  0  0  0  0
  -25.9010   13.2170  -20.4180 N   0  0  0  0  0  0  0  0  0  0  0  0
  -26.5520   12.4230  -21.1970 N   0  0  0  0  0  0  0  0  0  0  0  0
  -28.5280   15.3670  -21.1490 N   0  0  0  0  0  0  0  0  0  0  0  0
  -28.3920   16.0650  -21.8300 H   0  0  0  0  0  0  0  0  0  0  0  0
  -29.3110   15.4050  -20.5530 H   0  0  0  0  0  0  0  0  0  0  0  0
  -32.7450   13.0160  -17.7010 O   0  0  0  0  0  0  0  0  0  0  0  0
  -33.1280   11.9970  -16.7750 C   0  0  0  0  0  0  0  0  0  0  0  0
  -33.9670   12.6150  -15.6540 C   0  0  0  0  0  0  0  0  0  0  0  0
  1  8  1  0  0  0  0
  2  1  2  0  0  0  0
  3  2  1  0  0  0  0
  4  3  2  0  0  0  0
  4  5  1  0  0  0  0
  5  7  2  0  0  0  0
  6  5  1  0  0  0  0
  7  1  1  0  0  0  0
  7 22  1  0  0  0  0
  9 10  1  0  0  0  0
 10  8  1  0  0  0  0
 11  3  1  0  0  0  0
 12 11  1  0  0  0  0
 12 14  1  0  0  0  0
 13 12  1  0  0  0  0
 14 18  1  0  0  0  0
 14 15  1  0  0  0  0
 15 16  2  0  0  0  0
 17 16  1  0  0  0  0
 18 17  2  0  0  0  0
 19 15  1  0  0  0  0
 19 21  1  0  0  0  0
 20 19  1  0  0  0  0
 22 23  1  0  0  0  0
 23 24  1  0  0  0  0
M  END
>  <MODEL>
1

>  <REMARK>
 VINA RESULT:      -5.9      0.000      0.000
  Name = ZINC04771070
                            x       y       z     vdW  Elec       q    Type
                         _______ _______ _______ _____ _____    ______ ____

>  <TORSDO>
F 8

>  <vina_score>
-5.9

$$$$
ZINC20423296
 OpenBabel01081721593D

 21 21  0  0  1  0  0  0  0  0999 V2000
  -29.6740   13.4540  -19.9390 C   0  0  1  0  0  0  0  0  0  0  0  0
  -33.1870   13.0940  -18.5970 C   0  0  0  0  0  0  0  0  0  0  0  0
  -33.8590   12.5980  -19.7050 C   0  0  0  0  0  0  0  0  0  0  0  0
  -33.1760   12.3790  -20.8840 C   0  0  0  0  0  0  0  0  0  0  0  0
  -31.8190   12.6570  -20.9630 C   0  0  0  0  0  0  0  0  0  0  0  0
  -31.1490   13.1530  -19.8550 C   0  0  0  0  0  0  0  0  0  0  0  0
  -31.8310   13.3670  -18.6720 C   0  0  0  0  0  0  0  0  0  0  0  0
  -33.4910   12.5060  -16.3120 C   0  0  0  0  0  0  0  0  0  0  0  0
  -33.8610   13.3090  -17.4340 O   0  0  0  0  0  0  0  0  0  0  0  0
  -31.1470   12.4420  -22.1250 O   0  0  0  0  0  0  0  0  0  0  0  0
  -30.9690   11.0830  -22.5290 C   0  0  0  0  0  0  0  0  0  0  0  0
  -29.4680   14.6790  -20.7230 N   0  0  0  0  0  0  0  0  0  0  0  0
  -29.3960   14.4410  -21.7130 H   0  0  0  0  0  0  0  0  0  0  0  0
  -30.2560   15.3110  -20.5810 H   0  0  0  0  0  0  0  0  0  0  0  0
  -28.6070   15.1360  -20.4210 H   0  0  0  0  0  0  0  0  0  0  0  0
  -29.1120   13.6500  -18.5300 C   0  0  0  0  0  0  0  0  0  0  0  0
  -27.6900   14.2070  -18.6200 C   0  0  0  0  0  0  0  0  0  0  0  0
  -26.7060   13.0580  -18.8520 C   0  0  0  0  0  0  0  0  0  0  0  0
  -26.0590   13.2180  -20.2040 C   0  0  0  0  0  0  0  0  0  0  0  0
  -26.3990   14.2490  -20.9920 O   0  0  0  0  0  0  0  0  0  0  0  0
  -25.2360   12.4170  -20.5780 O   0  0  0  0  0  0  0  0  0  0  0  0
  1 12  1  6  0  0  0
  1  6  1  0  0  0  0
  1 16  1  0  0  0  0
  2  9  1  0  0  0  0
  3  2  2  0  0  0  0
  4  3  1  0  0  0  0
  5  4  2  0  0  0  0
  5  6  1  0  0  0  0
  6  7  2  0  0  0  0
  7  2  1  0  0  0  0
  9  8  1  0  0  0  0
 10  5  1  0  0  0  0
 11 10  1  0  0  0  0
 12 14  1  0  0  0  0
 12 15  1  0  0  0  0
 13 12  1  0  0  0  0
 17 16  1  0  0  0  0
 18 17  1  0  0  0  0
 19 18  1  0  0  0  0
 20 19  2  0  0  0  0
 21 19  1  0  0  0  0
M  END
>  <MODEL>
1

>  <REMARK>
 VINA RESULT:      -5.9      0.000      0.000
  Name = ZINC20423296
                            x       y       z     vdW  Elec       q    Type
                         _______ _______ _______ _____ _____    ______ ____

>  <TORSDO>
F 8

>  <vina_score>
-5.9

$$$$
ZINC26654237
 OpenBabel01081721393D

 25 26  0  0  1  0  0  0  0  0999 V2000
  -30.9920   12.4420  -19.7670 N   0  0  0  0  0  0  0  0  0  0  0  0
  -31.0950   11.6620  -20.4160 H   0  0  0  0  0  0  0  0  0  0  0  0
  -29.9960   13.3660  -20.3240 C   0  0  1  0  0  0  0  0  0  0  0  0
  -30.2340   14.7760  -19.7570 C   0  0  0  0  0  0  0  0  0  0  0  0
  -28.9980   15.6530  -20.1040 C   0  0  0  0  0  0  0  0  0  0  0  0
  -27.6350   14.4520  -19.7980 S   0  0  0  0  0  0  0  0  0  0  0  0
  -26.6990   14.5340  -20.8640 O   0  0  0  0  0  0  0  0  0  0  0  0
  -27.1840   14.5970  -18.4580 O   0  0  0  0  0  0  0  0  0  0  0  0
  -28.5760   12.8790  -19.9470 C   0  0  0  0  0  0  0  0  0  0  0  0
  -32.3020   13.0970  -19.6380 C   0  0  0  0  0  0  0  0  0  0  0  0
  -32.6830   11.1800  -21.1950 C   0  0  0  0  0  0  0  0  0  0  0  0
  -33.2880   12.4620  -20.6210 C   0  0  0  0  0  0  0  0  0  0  0  0
  -34.5910   12.1300  -19.8920 C   0  0  0  0  0  0  0  0  0  0  0  0
  -30.5450   11.9010  -18.4770 C   0  0  0  0  0  0  0  0  0  0  0  0
  -31.6840   11.9460  -17.4910 C   0  0  0  0  0  0  0  0  0  0  0  0
  -32.4220   10.8030  -17.2380 C   0  0  0  0  0  0  0  0  0  0  0  0
  -33.4620   10.8370  -16.3330 C   0  0  0  0  0  0  0  0  0  0  0  0
  -33.7760   12.0300  -15.6800 C   0  0  0  0  0  0  0  0  0  0  0  0
  -33.0300   13.1800  -15.9440 C   0  0  0  0  0  0  0  0  0  0  0  0
  -31.9890   13.1310  -16.8470 C   0  0  0  0  0  0  0  0  0  0  0  0
  -34.8920   12.0740  -14.7120 C   0  0  0  0  0  0  0  0  0  0  0  0
  -34.9940   13.1020  -13.8470 N   0  0  0  0  0  0  0  0  0  0  0  0
  -35.7370   13.1320  -13.2020 H   0  0  0  0  0  0  0  0  0  0  0  0
  -34.3250   13.8240  -13.8590 H   0  0  0  0  0  0  0  0  0  0  0  0
  -35.7190   11.1830  -14.6970 O   0  0  0  0  0  0  0  0  0  0  0  0
  1 10  1  0  0  0  0
  1 14  1  0  0  0  0
  2  1  1  0  0  0  0
  3  9  1  0  0  0  0
  3  1  1  1  0  0  0
  3  4  1  0  0  0  0
  5  6  1  0  0  0  0
  5  4  1  0  0  0  0
  6  8  2  0  0  0  0
  7  6  2  0  0  0  0
  9  6  1  0  0  0  0
 11 12  1  0  0  0  0
 12 13  1  0  0  0  0
 12 10  1  0  0  0  0
 14 15  1  0  0  0  0
 15 16  2  0  0  0  0
 15 20  1  0  0  0  0
 16 17  1  0  0  0  0
 17 18  2  0  0  0  0
 18 21  1  0  0  0  0
 19 18  1  0  0  0  0
 20 19  2  0  0  0  0
 21 25  2  0  0  0  0
 21 22  1  0  0  0  0
 22 23  1  0  0  0  0
 24 22  1  0  0  0  0
M  END
>  <MODEL>
1

>  <REMARK>
 VINA RESULT:      -5.9      0.000      0.000
  Name = ZINC26654237
                            x       y       z     vdW  Elec       q    Type
                         _______ _______ _______ _____ _____    ______ ____

>  <TORSDO>
F 6

>  <vina_score>
-5.9

$$$$
ZINC06088021
 OpenBabel01081721413D

 25 26  0  0  1  0  0  0  0  0999 V2000
  -29.2440   12.4960  -21.9900 N   0  0  0  0  0  0  0  0  0  0  0  0
  -28.8570   12.7100  -22.9100 H   0  0  0  0  0  0  0  0  0  0  0  0
  -30.0210   13.1220  -21.7830 H   0  0  0  0  0  0  0  0  0  0  0  0
  -29.7280   11.1020  -21.9860 C   0  0  0  0  0  0  0  0  0  0  0  0
  -31.2430   11.0970  -22.1940 C   0  0  0  0  0  0  0  0  0  0  0  0
  -31.8520   12.2750  -21.4770 C   0  0  0  0  0  0  0  0  0  0  0  0
  -31.9560   13.3420  -22.0420 O   0  0  0  0  0  0  0  0  0  0  0  0
  -32.0950   10.9360  -19.3950 C   0  0  0  0  0  0  0  0  0  0  0  0
  -32.5300   10.8080  -18.0930 C   0  0  0  0  0  0  0  0  0  0  0  0
  -33.1990   11.8530  -17.4770 C   0  0  0  0  0  0  0  0  0  0  0  0
  -33.7500   11.6810  -15.8400 Cl  0  0  0  0  0  0  0  0  0  0  0  0
  -33.4290   13.0360  -18.1610 C   0  0  0  0  0  0  0  0  0  0  0  0
  -32.9940   13.1790  -19.4610 C   0  0  0  0  0  0  0  0  0  0  0  0
  -32.3180   12.1290  -20.0890 C   0  0  0  0  0  0  0  0  0  0  0  0
  -28.1890   12.6750  -20.9740 C   0  0  1  0  0  0  0  0  0  0  0  0
  -27.2870   13.8110  -21.3810 C   0  0  0  0  0  0  0  0  0  0  0  0
  -26.1160   13.9960  -20.7510 O   0  0  0  0  0  0  0  0  0  0  0  0
  -27.6160   14.5550  -22.2740 O   0  0  0  0  0  0  0  0  0  0  0  0
  -28.8390   12.9980  -19.6270 C   0  0  0  0  0  0  0  0  0  0  0  0
  -29.1790   14.4650  -19.5710 C   0  0  0  0  0  0  0  0  0  0  0  0
  -28.6420   15.3820  -18.7440 C   0  0  0  0  0  0  0  0  0  0  0  0
  -29.2140   16.5650  -19.0090 N   0  0  0  0  0  0  0  0  0  0  0  0
  -30.0810   16.4180  -19.9740 C   0  0  0  0  0  0  0  0  0  0  0  0
  -30.0920   15.1220  -20.3520 N   0  0  0  0  0  0  0  0  0  0  0  0
  -30.6520   14.7230  -21.0560 H   0  0  0  0  0  0  0  0  0  0  0  0
  1  4  1  0  0  0  0
  1  3  1  0  0  0  0
  2  1  1  0  0  0  0
  5  4  1  0  0  0  0
  5  6  1  0  0  0  0
  6 14  1  0  0  0  0
  7  6  2  0  0  0  0
  8  9  2  0  0  0  0
  9 10  1  0  0  0  0
 10 11  1  0  0  0  0
 12 10  2  0  0  0  0
 13 12  1  0  0  0  0
 14 13  2  0  0  0  0
 14  8  1  0  0  0  0
 15  1  1  6  0  0  0
 15 19  1  0  0  0  0
 16 15  1  0  0  0  0
 16 17  1  0  0  0  0
 18 16  2  0  0  0  0
 19 20  1  0  0  0  0
 20 21  2  0  0  0  0
 22 21  1  0  0  0  0
 23 22  2  0  0  0  0
 24 23  1  0  0  0  0
 24 20  1  0  0  0  0
 25 24  1  0  0  0  0
M  END
>  <MODEL>
1

>  <REMARK>
 VINA RESULT:      -5.9      0.000      0.000
  Name = ZINC06088021
                            x       y       z     vdW  Elec       q    Type
                         _______ _______ _______ _____ _____    ______ ____

>  <TORSDO>
F 8

>  <vina_score>
-5.9

$$$$
ZINC05266223
 OpenBabel01081721423D

 26 27  0  0  0  0  0  0  0  0999 V2000
  -33.0590   11.9230  -16.9410 N   0  0  0  0  0  0  0  0  0  0  0  0
  -31.9370   12.6910  -16.7430 C   0  0  0  0  0  0  0  0  0  0  0  0
  -31.3310   12.9260  -17.9210 C   0  0  0  0  0  0  0  0  0  0  0  0
  -32.1240   12.2480  -18.9530 C   0  0  0  0  0  0  0  0  0  0  0  0
  -32.0080   12.1240  -20.3380 C   0  0  0  0  0  0  0  0  0  0  0  0
  -32.9400   11.4080  -21.0360 C   0  0  0  0  0  0  0  0  0  0  0  0
  -34.0020   10.8040  -20.3780 C   0  0  0  0  0  0  0  0  0  0  0  0
  -34.1360   10.9140  -19.0110 C   0  0  0  0  0  0  0  0  0  0  0  0
  -33.1990   11.6370  -18.2810 C   0  0  0  0  0  0  0  0  0  0  0  0
  -30.1580   13.6780  -18.1250 N   0  0  0  0  0  0  0  0  0  0  0  0
  -30.1860   14.6600  -18.0660 H   0  0  0  0  0  0  0  0  0  0  0  0
  -28.9970   13.0520  -18.4030 C   0  0  0  0  0  0  0  0  0  0  0  0
  -27.8740   13.7700  -18.5990 N   0  0  0  0  0  0  0  0  0  0  0  0
  -28.9630   11.8380  -18.4770 O   0  0  0  0  0  0  0  0  0  0  0  0
  -27.9160   15.2330  -18.5100 C   0  0  0  0  0  0  0  0  0  0  0  0
  -29.0300   15.7650  -19.4130 C   0  0  0  0  0  0  0  0  0  0  0  0
  -28.8530   15.2610  -20.7390 O   0  0  0  0  0  0  0  0  0  0  0  0
  -28.7880   14.2940  -20.7100 H   0  0  0  0  0  0  0  0  0  0  0  0
  -26.6120   13.0900  -18.9010 C   0  0  0  0  0  0  0  0  0  0  0  0
  -26.2710   13.2830  -20.3790 C   0  0  0  0  0  0  0  0  0  0  0  0
  -27.2070   12.5620  -21.1830 O   0  0  0  0  0  0  0  0  0  0  0  0
  -27.0070   11.6140  -21.1410 H   0  0  0  0  0  0  0  0  0  0  0  0
  -33.9710   11.4750  -15.8860 C   0  0  0  0  0  0  0  0  0  0  0  0
  -34.4920   12.6890  -15.1140 C   0  0  0  0  0  0  0  0  0  0  0  0
  -35.3680   10.9280  -13.7440 C   0  0  0  0  0  0  0  0  0  0  0  0
  -35.5140   12.2730  -14.2060 O   0  0  0  0  0  0  0  0  0  0  0  0
  1  2  1  0  0  0  0
  1 23  1  0  0  0  0
  3  2  2  0  0  0  0
  4  9  1  0  0  0  0
  4  3  1  0  0  0  0
  5  4  2  0  0  0  0
  6  7  2  0  0  0  0
  6  5  1  0  0  0  0
  7  8  1  0  0  0  0
  8  9  2  0  0  0  0
  9  1  1  0  0  0  0
 10 11  1  0  0  0  0
 10  3  1  0  0  0  0
 12 10  1  0  0  0  0
 13 15  1  0  0  0  0
 13 12  1  0  0  0  0
 14 12  2  0  0  0  0
 16 15  1  0  0  0  0
 17 18  1  0  0  0  0
 17 16  1  0  0  0  0
 19 13  1  0  0  0  0
 20 19  1  0  0  0  0
 21 22  1  0  0  0  0
 21 20  1  0  0  0  0
 23 24  1  0  0  0  0
 24 26  1  0  0  0  0
 26 25  1  0  0  0  0
M  END
>  <MODEL>
1

>  <REMARK>
 VINA RESULT:      -5.9      0.000      0.000
  Name = ZINC05266223
                            x       y       z     vdW  Elec       q    Type
                         _______ _______ _______ _____ _____    ______ ____

>  <TORSDO>
F 10

>  <vina_score>
-5.9

$$$$
ZINC20636295
 OpenBabel01081721413D

 27 28  0  0  1  0  0  0  0  0999 V2000
  -33.1550   12.3670  -20.4580 C   0  0  1  0  0  0  0  0  0  0  0  0
  -34.1830   11.5640  -19.6690 C   0  0  0  0  0  0  0  0  0  0  0  0
  -34.1410   11.7670  -18.3790 N   0  0  0  0  0  0  0  0  0  0  0  0
  -33.2930   12.5880  -17.7810 C   0  0  0  0  0  0  0  0  0  0  0  0
  -34.9720   10.8040  -20.1940 O   0  0  0  0  0  0  0  0  0  0  0  0
  -32.3430   13.2570  -19.0710 S   0  0  0  0  0  0  0  0  0  0  0  0
  -33.1890   12.8530  -16.4410 N   0  0  0  0  0  0  0  0  0  0  0  0
  -32.4920   13.4660  -16.1140 H   0  0  0  0  0  0  0  0  0  0  0  0
  -34.0590   12.2580  -15.5510 C   0  0  0  0  0  0  0  0  0  0  0  0
  -34.2310   10.9670  -15.5710 N   0  0  0  0  0  0  0  0  0  0  0  0
  -34.8530   10.5430  -14.9360 H   0  0  0  0  0  0  0  0  0  0  0  0
  -33.7390   10.4160  -16.2210 H   0  0  0  0  0  0  0  0  0  0  0  0
  -34.7470   13.0270  -14.6430 N   0  0  0  0  0  0  0  0  0  0  0  0
  -34.5620   13.9920  -14.5740 H   0  0  0  0  0  0  0  0  0  0  0  0
  -35.4240   12.6130  -14.0590 H   0  0  0  0  0  0  0  0  0  0  0  0
  -32.1690   11.4500  -21.1850 C   0  0  0  0  0  0  0  0  0  0  0  0
  -29.7700   11.8380  -20.7230 N   0  0  0  0  0  0  0  0  0  0  0  0
  -29.8100   11.1040  -20.0690 H   0  0  0  0  0  0  0  0  0  0  0  0
  -30.8740   12.1860  -21.4150 C   0  0  0  0  0  0  0  0  0  0  0  0
  -30.8260   13.0900  -22.2210 O   0  0  0  0  0  0  0  0  0  0  0  0
  -28.5110   12.5540  -20.9470 C   0  0  0  0  0  0  0  0  0  0  0  0
  -27.8540   15.3100  -17.7490 C   0  0  0  0  0  0  0  0  0  0  0  0
  -28.7110   15.6420  -18.7830 C   0  0  0  0  0  0  0  0  0  0  0  0
  -28.9230   14.7490  -19.8180 C   0  0  0  0  0  0  0  0  0  0  0  0
  -28.2800   13.5260  -19.8190 C   0  0  0  0  0  0  0  0  0  0  0  0
  -27.4270   13.1930  -18.7830 C   0  0  0  0  0  0  0  0  0  0  0  0
  -27.2090   14.0860  -17.7510 C   0  0  0  0  0  0  0  0  0  0  0  0
  1 16  1  1  0  0  0
  1  2  1  0  0  0  0
  1  6  1  0  0  0  0
  2  3  1  0  0  0  0
  3  4  2  0  0  0  0
  4  7  1  0  0  0  0
  5  2  2  0  0  0  0
  6  4  1  0  0  0  0
  7  8  1  0  0  0  0
  7  9  1  0  0  0  0
  9 13  1  0  0  0  0
 10  9  2  0  0  0  0
 10 11  1  0  0  0  0
 12 10  1  0  0  0  0
 13 14  1  0  0  0  0
 13 15  1  0  0  0  0
 17 18  1  0  0  0  0
 19 16  1  0  0  0  0
 19 17  1  0  0  0  0
 20 19  2  0  0  0  0
 21 17  1  0  0  0  0
 21 25  1  0  0  0  0
 23 22  2  0  0  0  0
 24 23  1  0  0  0  0
 25 24  2  0  0  0  0
 25 26  1  0  0  0  0
 26 27  2  0  0  0  0
 27 22  1  0  0  0  0
M  END
>  <MODEL>
1

>  <REMARK>
 VINA RESULT:      -5.9      0.000      0.000
  Name = ZINC20636295
                            x       y       z     vdW  Elec       q    Type
                         _______ _______ _______ _____ _____    ______ ____

>  <TORSDO>
F 7

>  <vina_score>
-5.9

$$$$
ZINC01591785
 OpenBabel01081721423D

 24 24  0  0  1  0  0  0  0  0999 V2000
  -33.2090   11.1450  -18.4390 C   0  0  0  0  0  0  0  0  0  0  0  0
  -34.2450   10.8750  -19.5330 C   0  0  0  0  0  0  0  0  0  0  0  0
  -34.0210   11.8430  -20.6960 C   0  0  0  0  0  0  0  0  0  0  0  0
  -32.6170   11.7920  -21.1110 N   0  0  0  0  0  0  0  0  0  0  0  0
  -32.1450   10.9280  -21.1450 H   0  0  0  0  0  0  0  0  0  0  0  0
  -31.9580   12.9500  -21.4510 C   0  0  0  0  0  0  0  0  0  0  0  0
  -32.6260   14.0860  -21.3150 N   0  0  0  0  0  0  0  0  0  0  0  0
  -33.5530   14.0750  -20.9820 H   0  0  0  0  0  0  0  0  0  0  0  0
  -32.1970   14.9400  -21.5460 H   0  0  0  0  0  0  0  0  0  0  0  0
  -30.6630   12.8940  -21.9100 N   0  0  0  0  0  0  0  0  0  0  0  0
  -30.4860   12.7390  -22.8660 H   0  0  0  0  0  0  0  0  0  0  0  0
  -29.9130   13.0100  -21.2820 H   0  0  0  0  0  0  0  0  0  0  0  0
  -33.4450   12.5350  -17.8450 C   0  0  1  0  0  0  0  0  0  0  0  0
  -33.7040   12.4110  -16.3650 C   0  0  0  0  0  0  0  0  0  0  0  0
  -33.8280   11.1970  -15.8050 O   0  0  0  0  0  0  0  0  0  0  0  0
  -33.8010   13.4040  -15.6840 O   0  0  0  0  0  0  0  0  0  0  0  0
  -32.2600   13.3680  -18.0660 N   0  0  0  0  0  0  0  0  0  0  0  0
  -31.0800   12.8690  -17.8980 C   0  0  0  0  0  0  0  0  0  0  0  0
  -29.8850   13.7080  -18.1220 C   0  0  0  0  0  0  0  0  0  0  0  0
  -28.6620   13.3500  -17.5520 C   0  0  0  0  0  0  0  0  0  0  0  0
  -27.5480   14.1340  -17.7700 C   0  0  0  0  0  0  0  0  0  0  0  0
  -27.6440   15.2800  -18.5410 C   0  0  0  0  0  0  0  0  0  0  0  0
  -28.8540   15.6420  -19.1040 C   0  0  0  0  0  0  0  0  0  0  0  0
  -29.9750   14.8640  -18.8990 C   0  0  0  0  0  0  0  0  0  0  0  0
  2  1  1  0  0  0  0
  3  2  1  0  0  0  0
  4  3  1  0  0  0  0
  5  4  1  0  0  0  0
  6  7  1  0  0  0  0
  6  4  1  0  0  0  0
  7  8  1  0  0  0  0
  9  7  1  0  0  0  0
 10  6  2  0  0  0  0
 10 12  1  0  0  0  0
 11 10  1  0  0  0  0
 13  1  1  1  0  0  0
 13 14  1  0  0  0  0
 14 15  2  0  0  0  0
 14 16  1  0  0  0  0
 17 18  2  0  0  0  0
 17 13  1  0  0  0  0
 19 18  1  0  0  0  0
 19 20  2  0  0  0  0
 21 20  1  0  0  0  0
 22 21  2  0  0  0  0
 23 24  2  0  0  0  0
 23 22  1  0  0  0  0
 24 19  1  0  0  0  0
M  END
>  <MODEL>
1

>  <REMARK>
 VINA RESULT:      -5.9      0.000      0.000
  Name = ZINC01591785
                            x       y       z     vdW  Elec       q    Type
                         _______ _______ _______ _____ _____    ______ ____

>  <TORSDO>
F 9

>  <vina_score>
-5.9

$$$$
ZINC01603645
 OpenBabel01081721423D

 21 21  0  0  1  0  0  0  0  0999 V2000
  -30.1630   13.9200  -20.3570 C   0  0  0  0  0  0  0  0  0  0  0  0
  -29.8260   13.1480  -21.3790 N   0  0  0  0  0  0  0  0  0  0  0  0
  -30.5120   12.8800  -22.0330 H   0  0  0  0  0  0  0  0  0  0  0  0
  -28.5720   12.7290  -21.5340 C   0  0  1  0  0  0  0  0  0  0  0  0
  -27.6100   13.1060  -20.5950 C   0  0  0  0  0  0  0  0  0  0  0  0
  -28.0070   13.9160  -19.5300 C   0  0  0  0  0  0  0  0  0  0  0  0
  -29.2790   14.2990  -19.4460 N   0  0  0  0  0  0  0  0  0  0  0  0
  -28.2250   11.9230  -22.6120 N   0  0  0  0  0  0  0  0  0  0  0  0
  -27.4780   11.2870  -22.5310 H   0  0  0  0  0  0  0  0  0  0  0  0
  -28.7280   11.9880  -23.4560 H   0  0  0  0  0  0  0  0  0  0  0  0
  -26.2750   12.6800  -20.7200 N   0  0  0  0  0  0  0  0  0  0  0  0
  -26.0000   12.1430  -21.4980 H   0  0  0  0  0  0  0  0  0  0  0  0
  -25.6150   12.9200  -20.0300 H   0  0  0  0  0  0  0  0  0  0  0  0
  -27.0860   14.3170  -18.5700 N   0  0  0  0  0  0  0  0  0  0  0  0
  -26.7730   13.6780  -17.8890 H   0  0  0  0  0  0  0  0  0  0  0  0
  -26.7470   15.2420  -18.5690 H   0  0  0  0  0  0  0  0  0  0  0  0
  -31.8350   14.4520  -20.2010 S   0  0  0  0  0  0  0  0  0  0  0  0
  -32.5960   12.9250  -19.5990 C   0  0  0  0  0  0  0  0  0  0  0  0
  -33.2660   12.2110  -20.7450 C   0  0  0  0  0  0  0  0  0  0  0  0
  -34.5820   11.9500  -20.6960 O   0  0  0  0  0  0  0  0  0  0  0  0
  -32.6180   11.8730  -21.7070 O   0  0  0  0  0  0  0  0  0  0  0  0
  1 17  1  0  0  0  0
  1  7  2  0  0  0  0
  2  1  1  0  0  0  0
  3  2  1  0  0  0  0
  4  8  1  1  0  0  0
  4  2  1  0  0  0  0
  4  5  1  0  0  0  0
  5  6  2  0  0  0  0
  6  7  1  0  0  0  0
  6 14  1  0  0  0  0
  8  9  1  0  0  0  0
 10  8  1  0  0  0  0
 11  5  1  0  0  0  0
 11 13  1  0  0  0  0
 12 11  1  0  0  0  0
 14 16  1  0  0  0  0
 14 15  1  0  0  0  0
 17 18  1  0  0  0  0
 19 20  1  0  0  0  0
 19 18  1  0  0  0  0
 21 19  2  0  0  0  0
M  END
>  <MODEL>
1

>  <REMARK>
 VINA RESULT:      -5.9      0.000      0.000
  Name = ZINC01603645
                            x       y       z     vdW  Elec       q    Type
                         _______ _______ _______ _____ _____    ______ ____

>  <TORSDO>
F 6

>  <vina_score>
-5.9

$$$$
ZINC05758200
 OpenBabel01081721453D

 19 19  0  0  0  0  0  0  0  0999 V2000
  -30.2350   12.6460  -20.6090 C   0  0  0  0  0  0  0  0  0  0  0  0
  -30.3980   13.9320  -20.1330 C   0  0  0  0  0  0  0  0  0  0  0  0
  -29.2730   14.7530  -20.0310 C   0  0  0  0  0  0  0  0  0  0  0  0
  -28.0870   14.2680  -20.3840 N   0  0  0  0  0  0  0  0  0  0  0  0
  -27.9720   13.0280  -20.8360 C   0  0  0  0  0  0  0  0  0  0  0  0
  -29.0230   12.2290  -20.9480 N   0  0  0  0  0  0  0  0  0  0  0  0
  -31.7370   14.4310  -19.7460 N   0  0  0  0  0  0  0  0  0  0  0  0
  -32.2030   15.4140  -20.2940 O   0  0  0  0  0  0  0  0  0  0  0  0
  -32.3700   13.8610  -18.8750 O   0  0  0  0  0  0  0  0  0  0  0  0
  -29.3900   16.0520  -19.5640 N   0  0  0  0  0  0  0  0  0  0  0  0
  -29.2490   16.2460  -18.6090 H   0  0  0  0  0  0  0  0  0  0  0  0
  -29.6990   17.0630  -20.4280 N   0  0  0  0  0  0  0  0  0  0  0  0
  -30.6900   17.2900  -20.3470 H   0  0  0  0  0  0  0  0  0  0  0  0
  -29.1430   17.8870  -20.2000 H   0  0  0  0  0  0  0  0  0  0  0  0
  -26.7240   12.5560  -21.2000 N   0  0  0  0  0  0  0  0  0  0  0  0
  -26.5720   12.2160  -22.1120 H   0  0  0  0  0  0  0  0  0  0  0  0
  -25.7000   12.5610  -20.2950 N   0  0  0  0  0  0  0  0  0  0  0  0
  -25.1770   13.4320  -20.3780 H   0  0  0  0  0  0  0  0  0  0  0  0
  -26.0810   12.4820  -19.3510 H   0  0  0  0  0  0  0  0  0  0  0  0
  1  2  2  0  0  0  0
  2  3  1  0  0  0  0
  2  7  1  0  0  0  0
  3 10  1  0  0  0  0
  4  3  2  0  0  0  0
  5  4  1  0  0  0  0
  6  5  2  0  0  0  0
  6  1  1  0  0  0  0
  7  9  2  0  0  0  0
  8  7  2  0  0  0  0
 10 11  1  0  0  0  0
 12 13  1  0  0  0  0
 12 14  1  0  0  0  0
 12 10  1  0  0  0  0
 15  5  1  0  0  0  0
 15 17  1  0  0  0  0
 16 15  1  0  0  0  0
 17 19  1  0  0  0  0
 18 17  1  0  0  0  0
M  END
>  <MODEL>
1

>  <REMARK>
 VINA RESULT:      -5.9      0.000      0.000
  Name = ZINC05758200
                            x       y       z     vdW  Elec       q    Type
                         _______ _______ _______ _____ _____    ______ ____

>  <TORSDO>
F 5

>  <vina_score>
-5.9

$$$$
ZINC05472967
 OpenBabel01081721453D

 22 23  0  0  1  0  0  0  0  0999 V2000
  -31.3150   12.3630  -20.0330 N   0  0  0  0  0  0  0  0  0  0  0  0
  -30.7930   11.9620  -19.3000 H   0  0  0  0  0  0  0  0  0  0  0  0
  -30.8920   12.2390  -21.3070 C   0  0  0  0  0  0  0  0  0  0  0  0
  -31.5350   12.7320  -22.2090 O   0  0  0  0  0  0  0  0  0  0  0  0
  -33.7040   12.4890  -20.5420 C   0  0  0  0  0  0  0  0  0  0  0  0
  -32.5500   13.0940  -19.7390 C   0  0  1  0  0  0  0  0  0  0  0  0
  -32.8590   12.9900  -18.2440 C   0  0  0  0  0  0  0  0  0  0  0  0
  -31.6740   12.8580  -17.2850 C   0  0  0  0  0  0  0  0  0  0  0  0
  -32.5760   11.6530  -17.5550 C   0  0  0  0  0  0  0  0  0  0  0  0
  -32.3830   14.5080  -20.1070 C   0  0  0  0  0  0  0  0  0  0  0  0
  -32.2540   15.6010  -20.3920 N   0  0  0  0  0  0  0  0  0  0  0  0
  -29.6190   11.4920  -21.6080 C   0  0  0  0  0  0  0  0  0  0  0  0
  -28.2580   12.6750  -21.8130 S   0  0  0  0  0  0  0  0  0  0  0  0
  -28.5810   13.9110  -20.6000 C   0  0  0  0  0  0  0  0  0  0  0  0
  -28.9100   15.2140  -20.8480 N   0  0  0  0  0  0  0  0  0  0  0  0
  -29.0080   15.6280  -21.7360 H   0  0  0  0  0  0  0  0  0  0  0  0
  -29.0790   15.8430  -19.6470 C   0  0  0  0  0  0  0  0  0  0  0  0
  -28.8630   14.9670  -18.6970 N   0  0  0  0  0  0  0  0  0  0  0  0
  -28.5530   13.7420  -19.3010 N   0  0  0  0  0  0  0  0  0  0  0  0
  -29.4190   17.1780  -19.4650 N   0  0  0  0  0  0  0  0  0  0  0  0
  -30.1530   17.4190  -18.8550 H   0  0  0  0  0  0  0  0  0  0  0  0
  -28.9270   17.8800  -19.9480 H   0  0  0  0  0  0  0  0  0  0  0  0
  1  6  1  0  0  0  0
  1  2  1  0  0  0  0
  3  1  1  0  0  0  0
  4  3  2  0  0  0  0
  6  5  1  6  0  0  0
  6  7  1  0  0  0  0
  7  9  1  0  0  0  0
  7  8  1  0  0  0  0
  9  8  1  0  0  0  0
 10  6  1  0  0  0  0
 11 10  3  0  0  0  0
 12  3  1  0  0  0  0
 13 12  1  0  0  0  0
 13 14  1  0  0  0  0
 14 19  2  0  0  0  0
 15 14  1  0  0  0  0
 15 17  1  0  0  0  0
 16 15  1  0  0  0  0
 17 20  1  0  0  0  0
 17 18  2  0  0  0  0
 19 18  1  0  0  0  0
 20 21  1  0  0  0  0
 22 20  1  0  0  0  0
M  END
>  <MODEL>
1

>  <REMARK>
 VINA RESULT:      -5.9      0.000      0.000
  Name = ZINC05472967
                            x       y       z     vdW  Elec       q    Type
                         _______ _______ _______ _____ _____    ______ ____

>  <TORSDO>
F 7

>  <vina_score>
-5.9

$$$$
ZINC09305196
 OpenBabel01081721473D

 27 28  0  0  0  0  0  0  0  0999 V2000
  -33.2680   11.3140  -16.6860 C   0  0  0  0  0  0  0  0  0  0  0  0
  -31.9850   10.8100  -16.8040 C   0  0  0  0  0  0  0  0  0  0  0  0
  -31.2490   11.0470  -17.9510 C   0  0  0  0  0  0  0  0  0  0  0  0
  -31.7950   11.7990  -18.9750 C   0  0  0  0  0  0  0  0  0  0  0  0
  -33.0870   12.3150  -18.8550 C   0  0  0  0  0  0  0  0  0  0  0  0
  -33.6240   13.0810  -19.8970 N   0  0  0  0  0  0  0  0  0  0  0  0
  -34.4360   13.6150  -19.7390 H   0  0  0  0  0  0  0  0  0  0  0  0
  -33.0440   13.0930  -21.1110 C   0  0  0  0  0  0  0  0  0  0  0  0
  -31.8320   12.2450  -21.3970 C   0  0  0  0  0  0  0  0  0  0  0  0
  -33.5010   13.7990  -21.9860 O   0  0  0  0  0  0  0  0  0  0  0  0
  -31.0720   12.0570  -20.1510 N   0  0  0  0  0  0  0  0  0  0  0  0
  -29.7270   12.1290  -20.1400 C   0  0  0  0  0  0  0  0  0  0  0  0
  -29.0550   12.3750  -21.2820 N   0  0  0  0  0  0  0  0  0  0  0  0
  -29.5470   12.5040  -22.1240 H   0  0  0  0  0  0  0  0  0  0  0  0
  -29.1190   11.9700  -19.0990 O   0  0  0  0  0  0  0  0  0  0  0  0
  -33.8200   12.0680  -17.7060 C   0  0  0  0  0  0  0  0  0  0  0  0
  -27.5930   12.4540  -21.2690 C   0  0  0  0  0  0  0  0  0  0  0  0
  -27.1590   13.9190  -21.3430 C   0  0  0  0  0  0  0  0  0  0  0  0
  -26.9060   14.4490  -19.9300 C   0  0  0  0  0  0  0  0  0  0  0  0
  -28.0770   15.2900  -19.4920 C   0  0  0  0  0  0  0  0  0  0  0  0
  -28.9620   15.7400  -20.4040 N   0  0  0  0  0  0  0  0  0  0  0  0
  -28.8430   15.5200  -21.3570 H   0  0  0  0  0  0  0  0  0  0  0  0
  -28.2250   15.5610  -18.3190 O   0  0  0  0  0  0  0  0  0  0  0  0
  -30.1010   16.5570  -19.9790 C   0  0  0  0  0  0  0  0  0  0  0  0
  -31.3400   15.6700  -19.8350 C   0  0  0  0  0  0  0  0  0  0  0  0
  -32.4940   16.3920  -20.2680 O   0  0  0  0  0  0  0  0  0  0  0  0
  -32.5530   17.2310  -19.7830 H   0  0  0  0  0  0  0  0  0  0  0  0
  2  1  1  0  0  0  0
  3  2  2  0  0  0  0
  4  5  2  0  0  0  0
  4  3  1  0  0  0  0
  5 16  1  0  0  0  0
  6  7  1  0  0  0  0
  6  5  1  0  0  0  0
  8  6  1  0  0  0  0
  9  8  1  0  0  0  0
  9 11  1  0  0  0  0
 10  8  2  0  0  0  0
 11 12  1  0  0  0  0
 11  4  1  0  0  0  0
 12 15  2  0  0  0  0
 13 17  1  0  0  0  0
 13 12  1  0  0  0  0
 14 13  1  0  0  0  0
 16  1  2  0  0  0  0
 18 17  1  0  0  0  0
 18 19  1  0  0  0  0
 19 20  1  0  0  0  0
 20 23  2  0  0  0  0
 21 24  1  0  0  0  0
 21 20  1  0  0  0  0
 22 21  1  0  0  0  0
 24 25  1  0  0  0  0
 26 25  1  0  0  0  0
 26 27  1  0  0  0  0
M  END
>  <MODEL>
1

>  <REMARK>
 VINA RESULT:      -5.8      0.000      0.000
  Name = ZINC09305196
                            x       y       z     vdW  Elec       q    Type
                         _______ _______ _______ _____ _____    ______ ____

>  <TORSDO>
F 7

>  <vina_score>
-5.8

$$$$
ZINC10329109
 OpenBabel01081721553D

 27 29  0  0  0  0  0  0  0  0999 V2000
  -28.3780   13.3880  -20.7750 N   0  0  0  0  0  0  0  0  0  0  0  0
  -29.6600   12.9660  -20.7720 C   0  0  0  0  0  0  0  0  0  0  0  0
  -30.3940   12.9930  -19.5720 C   0  0  0  0  0  0  0  0  0  0  0  0
  -29.7760   13.4570  -18.4120 C   0  0  0  0  0  0  0  0  0  0  0  0
  -28.4570   13.8760  -18.4790 N   0  0  0  0  0  0  0  0  0  0  0  0
  -27.7840   14.3680  -17.2740 C   0  0  0  0  0  0  0  0  0  0  0  0
  -30.6670   13.3810  -17.4180 N   0  0  0  0  0  0  0  0  0  0  0  0
  -31.7990   12.9100  -17.8710 C   0  0  0  0  0  0  0  0  0  0  0  0
  -32.9820   12.6610  -17.2030 N   0  0  0  0  0  0  0  0  0  0  0  0
  -33.9500   11.9000  -17.8790 N   0  0  0  0  0  0  0  0  0  0  0  0
  -33.8800   11.6400  -19.1200 C   0  0  0  0  0  0  0  0  0  0  0  0
  -34.9760   10.8050  -19.7310 C   0  0  0  0  0  0  0  0  0  0  0  0
  -32.7720   12.1160  -20.0200 C   0  0  0  0  0  0  0  0  0  0  0  0
  -31.6790   12.6520  -19.2100 N   0  0  0  0  0  0  0  0  0  0  0  0
  -30.1770   12.5650  -21.8000 O   0  0  0  0  0  0  0  0  0  0  0  0
  -27.7930   13.8320  -19.6490 C   0  0  0  0  0  0  0  0  0  0  0  0
  -26.6360   14.2040  -19.6890 O   0  0  0  0  0  0  0  0  0  0  0  0
  -27.5390   14.7720  -22.6090 C   0  0  0  0  0  0  0  0  0  0  0  0
  -27.6130   13.3600  -22.0240 C   0  0  0  0  0  0  0  0  0  0  0  0
  -33.2170   13.1680  -15.8500 C   0  0  0  0  0  0  0  0  0  0  0  0
  -34.2260   12.2930  -15.1530 C   0  0  0  0  0  0  0  0  0  0  0  0
  -35.0200   12.8110  -14.1950 N   0  0  0  0  0  0  0  0  0  0  0  0
  -34.9420   13.7620  -13.9510 H   0  0  0  0  0  0  0  0  0  0  0  0
  -34.3240   11.1230  -15.4530 O   0  0  0  0  0  0  0  0  0  0  0  0
  -35.9350   12.0170  -13.5630 N   0  0  0  0  0  0  0  0  0  0  0  0
  -35.4830   11.5220  -12.7940 H   0  0  0  0  0  0  0  0  0  0  0  0
  -36.6910   12.5950  -13.1970 H   0  0  0  0  0  0  0  0  0  0  0  0
  1  2  1  0  0  0  0
  1 16  1  0  0  0  0
  2  3  1  0  0  0  0
  3 14  1  0  0  0  0
  3  4  2  0  0  0  0
  4  7  1  0  0  0  0
  5  4  1  0  0  0  0
  5  6  1  0  0  0  0
  8  7  2  0  0  0  0
  8  9  1  0  0  0  0
  9 20  1  0  0  0  0
 10  9  1  0  0  0  0
 11 10  2  0  0  0  0
 12 11  1  0  0  0  0
 13 14  1  0  0  0  0
 13 11  1  0  0  0  0
 14  8  1  0  0  0  0
 15  2  2  0  0  0  0
 16  5  1  0  0  0  0
 17 16  2  0  0  0  0
 18 19  1  0  0  0  0
 19  1  1  0  0  0  0
 20 21  1  0  0  0  0
 21 22  1  0  0  0  0
 22 23  1  0  0  0  0
 22 25  1  0  0  0  0
 24 21  2  0  0  0  0
 25 27  1  0  0  0  0
 25 26  1  0  0  0  0
M  END
>  <MODEL>
1

>  <REMARK>
 VINA RESULT:      -5.8      0.000      0.000
  Name = ZINC10329109
                            x       y       z     vdW  Elec       q    Type
                         _______ _______ _______ _____ _____    ______ ____

>  <TORSDO>
F 4

>  <vina_score>
-5.8

$$$$
ZINC20306534
 OpenBabel01081721353D

 21 21  0  0  1  0  0  0  0  0999 V2000
  -29.2400   14.5390  -17.4930 C   0  0  0  0  0  0  0  0  0  0  0  0
  -32.0150   12.5540  -20.0710 C   0  0  0  0  0  0  0  0  0  0  0  0
  -31.5610   13.8370  -20.3830 C   0  0  0  0  0  0  0  0  0  0  0  0
  -30.6660   14.4720  -19.5470 C   0  0  0  0  0  0  0  0  0  0  0  0
  -30.2180   13.8390  -18.4010 C   0  0  0  0  0  0  0  0  0  0  0  0
  -30.6580   12.5660  -18.0880 C   0  0  0  0  0  0  0  0  0  0  0  0
  -31.5570   11.9220  -18.9120 C   0  0  0  0  0  0  0  0  0  0  0  0
  -32.9730   11.8690  -20.9620 C   0  0  0  0  0  0  0  0  0  0  0  0
  -34.1200   12.2620  -21.0380 O   0  0  0  0  0  0  0  0  0  0  0  0
  -31.3110   10.9260  -22.3940 C   0  0  0  0  0  0  0  0  0  0  0  0
  -32.5750   10.8070  -21.6900 O   0  0  0  0  0  0  0  0  0  0  0  0
  -27.7430   14.9610  -18.4260 S   0  0  0  0  0  0  0  0  0  0  0  0
  -27.0720   13.3530  -18.9310 C   0  0  0  0  0  0  0  0  0  0  0  0
  -26.4480   13.4750  -20.3230 C   0  0  1  0  0  0  0  0  0  0  0  0
  -25.5810   12.3140  -20.5740 N   0  0  0  0  0  0  0  0  0  0  0  0
  -25.8760   11.5370  -19.9840 H   0  0  0  0  0  0  0  0  0  0  0  0
  -25.6520   12.0430  -21.5550 H   0  0  0  0  0  0  0  0  0  0  0  0
  -24.6150   12.5590  -20.3580 H   0  0  0  0  0  0  0  0  0  0  0  0
  -27.5400   13.5200  -21.3610 C   0  0  0  0  0  0  0  0  0  0  0  0
  -28.4290   12.5180  -21.4420 O   0  0  0  0  0  0  0  0  0  0  0  0
  -27.6100   14.4540  -22.1230 O   0  0  0  0  0  0  0  0  0  0  0  0
  2  7  1  0  0  0  0
  3  2  2  0  0  0  0
  3  4  1  0  0  0  0
  4  5  2  0  0  0  0
  5  6  1  0  0  0  0
  5  1  1  0  0  0  0
  7  6  2  0  0  0  0
  8  2  1  0  0  0  0
  9  8  2  0  0  0  0
 10 11  1  0  0  0  0
 11  8  1  0  0  0  0
 12  1  1  0  0  0  0
 13 12  1  0  0  0  0
 14 19  1  6  0  0  0
 14 13  1  0  0  0  0
 15 18  1  0  0  0  0
 15 14  1  0  0  0  0
 15 16  1  0  0  0  0
 17 15  1  0  0  0  0
 20 19  1  0  0  0  0
 21 19  2  0  0  0  0
M  END
>  <MODEL>
1

>  <REMARK>
 VINA RESULT:      -5.8      0.000      0.000
  Name = ZINC20306534
                            x       y       z     vdW  Elec       q    Type
                         _______ _______ _______ _____ _____    ______ ____

>  <TORSDO>
F 8

>  <vina_score>
-5.8

$$$$
ZINC22450082
 OpenBabel01081721563D

 25 26  0  0  1  0  0  0  0  0999 V2000
  -27.7510   13.5670  -20.0050 C   0  0  2  0  0  0  0  0  0  0  0  0
  -27.8410   15.0120  -19.7590 N   0  0  0  0  0  0  0  0  0  0  0  0
  -26.9660   15.3240  -19.3370 H   0  0  0  0  0  0  0  0  0  0  0  0
  -28.0020   15.4920  -20.6440 H   0  0  0  0  0  0  0  0  0  0  0  0
  -28.9410   15.3210  -18.8360 C   0  0  0  0  0  0  0  0  0  0  0  0
  -30.1410   15.8410  -19.6300 C   0  0  0  0  0  0  0  0  0  0  0  0
  -29.7100   16.9390  -20.5060 N   0  0  0  0  0  0  0  0  0  0  0  0
  -29.9310   16.7100  -21.4740 H   0  0  0  0  0  0  0  0  0  0  0  0
  -30.1960   17.7960  -20.2400 H   0  0  0  0  0  0  0  0  0  0  0  0
  -28.7040   17.0760  -20.4090 H   0  0  0  0  0  0  0  0  0  0  0  0
  -26.3880   13.0710  -19.5960 C   0  0  0  0  0  0  0  0  0  0  0  0
  -25.5150   12.6610  -20.5300 O   0  0  0  0  0  0  0  0  0  0  0  0
  -26.0810   13.0420  -18.4280 O   0  0  0  0  0  0  0  0  0  0  0  0
  -27.9690   13.2890  -21.4950 C   0  0  0  0  0  0  0  0  0  0  0  0
  -31.1220   11.4560  -21.4520 N   0  0  0  0  0  0  0  0  0  0  0  0
  -30.3170   12.4580  -20.9820 C   0  0  0  0  0  0  0  0  0  0  0  0
  -29.1610   12.3840  -21.6680 C   0  0  0  0  0  0  0  0  0  0  0  0
  -29.2590   11.3680  -22.5380 N   0  0  0  0  0  0  0  0  0  0  0  0
  -30.4280   10.8030  -22.4100 C   0  0  0  0  0  0  0  0  0  0  0  0
  -32.4810   11.1480  -21.0000 C   0  0  0  0  0  0  0  0  0  0  0  0
  -33.3070   12.9520  -19.3290 C   0  0  0  0  0  0  0  0  0  0  0  0
  -32.7150   11.7730  -19.6490 C   0  0  0  0  0  0  0  0  0  0  0  0
  -32.2810   11.1710  -18.0230 S   0  0  0  0  0  0  0  0  0  0  0  0
  -32.9190   12.5060  -17.1130 C   0  0  0  0  0  0  0  0  0  0  0  0
  -33.3960   13.2820  -18.0580 N   0  0  0  0  0  0  0  0  0  0  0  0
  1 14  1  6  0  0  0
  1  2  1  0  0  0  0
  1 11  1  0  0  0  0
  2  3  1  0  0  0  0
  2  5  1  0  0  0  0
  4  2  1  0  0  0  0
  6  5  1  0  0  0  0
  7 10  1  0  0  0  0
  7  9  1  0  0  0  0
  7  6  1  0  0  0  0
  8  7  1  0  0  0  0
 11 13  1  0  0  0  0
 12 11  2  0  0  0  0
 15 20  1  0  0  0  0
 15 16  1  0  0  0  0
 17 14  1  0  0  0  0
 17 16  2  0  0  0  0
 18 19  2  0  0  0  0
 18 17  1  0  0  0  0
 19 15  1  0  0  0  0
 20 22  1  0  0  0  0
 21 25  1  0  0  0  0
 22 21  2  0  0  0  0
 22 23  1  0  0  0  0
 23 24  1  0  0  0  0
 25 24  2  0  0  0  0
M  END
>  <MODEL>
1

>  <REMARK>
 VINA RESULT:      -5.8      0.000      0.000
  Name = ZINC22450082
                            x       y       z     vdW  Elec       q    Type
                         _______ _______ _______ _____ _____    ______ ____

>  <TORSDO>
F 9

>  <vina_score>
-5.8

$$$$
ZINC04340004
 OpenBabel01081721593D

 22 23  0  0  1  0  0  0  0  0999 V2000
  -30.1510   13.0580  -21.7200 N   0  0  0  0  0  0  0  0  0  0  0  0
  -29.3270   12.5690  -22.0710 H   0  0  0  0  0  0  0  0  0  0  0  0
  -30.3060   13.9110  -22.2560 H   0  0  0  0  0  0  0  0  0  0  0  0
  -29.9340   13.4060  -20.3020 C   0  0  1  0  0  0  0  0  0  0  0  0
  -28.8760   12.4510  -19.6810 C   0  0  0  0  0  0  0  0  0  0  0  0
  -28.3450   13.4370  -18.2180 S   0  0  0  0  0  0  0  0  0  0  0  0
  -28.8580   15.1120  -18.7770 C   0  0  0  0  0  0  0  0  0  0  0  0
  -26.9290   13.3940  -18.1200 O   0  0  0  0  0  0  0  0  0  0  0  0
  -29.1350   13.0610  -17.0970 O   0  0  0  0  0  0  0  0  0  0  0  0
  -29.3940   14.8440  -20.2050 C   0  0  1  0  0  0  0  0  0  0  0  0
  -28.3350   15.0190  -21.1490 O   0  0  0  0  0  0  0  0  0  0  0  0
  -27.8810   14.1720  -21.2850 H   0  0  0  0  0  0  0  0  0  0  0  0
  -31.3260   12.1770  -21.8560 C   0  0  0  0  0  0  0  0  0  0  0  0
  -32.5060   12.7940  -21.1030 C   0  0  0  0  0  0  0  0  0  0  0  0
  -33.4340   11.6820  -20.6080 C   0  0  0  0  0  0  0  0  0  0  0  0
  -33.2700   13.0420  -18.6110 C   0  0  0  0  0  0  0  0  0  0  0  0
  -33.4130   11.6660  -19.1300 N   0  0  0  0  0  0  0  0  0  0  0  0
  -34.2900   11.2720  -18.7900 H   0  0  0  0  0  0  0  0  0  0  0  0
  -32.2930   10.8290  -18.6500 C   0  0  0  0  0  0  0  0  0  0  0  0
  -32.3190   10.8030  -17.1190 C   0  0  0  0  0  0  0  0  0  0  0  0
  -32.2330   12.1420  -16.6230 O   0  0  0  0  0  0  0  0  0  0  0  0
  -33.2870   12.9930  -17.0810 C   0  0  0  0  0  0  0  0  0  0  0  0
  2  1  1  0  0  0  0
  3  1  1  0  0  0  0
  4  1  1  6  0  0  0
  4 10  1  0  0  0  0
  4  5  1  0  0  0  0
  5  6  1  0  0  0  0
  6  8  2  0  0  0  0
  6  9  2  0  0  0  0
  7  6  1  0  0  0  0
 10 11  1  6  0  0  0
 10  7  1  0  0  0  0
 12 11  1  0  0  0  0
 13  1  1  0  0  0  0
 13 14  1  0  0  0  0
 14 15  1  0  0  0  0
 15 17  1  0  0  0  0
 16 22  1  0  0  0  0
 17 18  1  0  0  0  0
 17 19  1  0  0  0  0
 17 16  1  0  0  0  0
 19 20  1  0  0  0  0
 20 21  1  0  0  0  0
 22 21  1  0  0  0  0
M  END
>  <MODEL>
1

>  <REMARK>
 VINA RESULT:      -5.8      0.000      0.000
  Name = ZINC04340004
                            x       y       z     vdW  Elec       q    Type
                         _______ _______ _______ _____ _____    ______ ____

>  <TORSDO>
F 6

>  <vina_score>
-5.8

$$$$
ZINC20423298
 OpenBabel01081721373D

 23 23  0  0  1  0  0  0  0  0999 V2000
  -27.9190   12.9220  -20.9090 C   0  0  0  0  0  0  0  0  0  0  0  0
  -28.9850   12.4460  -21.6600 C   0  0  0  0  0  0  0  0  0  0  0  0
  -30.2820   12.8060  -21.3270 C   0  0  0  0  0  0  0  0  0  0  0  0
  -30.5130   13.6480  -20.2500 C   0  0  0  0  0  0  0  0  0  0  0  0
  -29.4480   14.1280  -19.5030 C   0  0  0  0  0  0  0  0  0  0  0  0
  -28.1510   13.7650  -19.8330 C   0  0  0  0  0  0  0  0  0  0  0  0
  -25.6240   12.8960  -20.2900 C   0  0  0  0  0  0  0  0  0  0  0  0
  -26.6480   12.5660  -21.2320 O   0  0  0  0  0  0  0  0  0  0  0  0
  -31.3250   12.3360  -22.0590 O   0  0  0  0  0  0  0  0  0  0  0  0
  -31.2630   10.9700  -22.4760 C   0  0  0  0  0  0  0  0  0  0  0  0
  -29.6750   14.9530  -18.4470 O   0  0  0  0  0  0  0  0  0  0  0  0
  -28.7020   14.9510  -17.4010 C   0  0  0  0  0  0  0  0  0  0  0  0
  -31.9230   14.0420  -19.8920 C   0  0  1  0  0  0  0  0  0  0  0  0
  -32.5890   14.6110  -21.0720 N   0  0  0  0  0  0  0  0  0  0  0  0
  -33.4350   14.0800  -21.2740 H   0  0  0  0  0  0  0  0  0  0  0  0
  -32.8340   15.5840  -20.8880 H   0  0  0  0  0  0  0  0  0  0  0  0
  -31.9580   14.5640  -21.8730 H   0  0  0  0  0  0  0  0  0  0  0  0
  -32.6930   12.8080  -19.4180 C   0  0  0  0  0  0  0  0  0  0  0  0
  -31.9510   12.1630  -18.2460 C   0  0  0  0  0  0  0  0  0  0  0  0
  -32.1800   12.9920  -16.9800 C   0  0  0  0  0  0  0  0  0  0  0  0
  -33.4230   12.5070  -16.2800 C   0  0  0  0  0  0  0  0  0  0  0  0
  -33.7070   11.1950  -16.2480 O   0  0  0  0  0  0  0  0  0  0  0  0
  -34.1640   13.2990  -15.7470 O   0  0  0  0  0  0  0  0  0  0  0  0
  1  6  2  0  0  0  0
  2  3  2  0  0  0  0
  2  1  1  0  0  0  0
  3  4  1  0  0  0  0
  4 13  1  0  0  0  0
  4  5  2  0  0  0  0
  5 11  1  0  0  0  0
  6  5  1  0  0  0  0
  8  1  1  0  0  0  0
  8  7  1  0  0  0  0
  9  3  1  0  0  0  0
 10  9  1  0  0  0  0
 11 12  1  0  0  0  0
 13 14  1  6  0  0  0
 13 18  1  0  0  0  0
 14 16  1  0  0  0  0
 15 14  1  0  0  0  0
 17 14  1  0  0  0  0
 18 19  1  0  0  0  0
 19 20  1  0  0  0  0
 20 21  1  0  0  0  0
 21 22  2  0  0  0  0
 21 23  1  0  0  0  0
M  END
>  <MODEL>
1

>  <REMARK>
 VINA RESULT:      -5.8      0.000      0.000
  Name = ZINC20423298
                            x       y       z     vdW  Elec       q    Type
                         _______ _______ _______ _____ _____    ______ ____

>  <TORSDO>
F 9

>  <vina_score>
-5.8

$$$$
ZINC04189752
 OpenBabel01081721353D

 27 28  0  0  1  0  0  0  0  0999 V2000
  -33.0540   12.1250  -16.9900 C   0  0  1  0  0  0  0  0  0  0  0  0
  -33.2580   10.8090  -17.6240 N   0  0  0  0  0  0  0  0  0  0  0  0
  -32.3490   10.4130  -17.8650 H   0  0  0  0  0  0  0  0  0  0  0  0
  -33.7450   10.1930  -16.9730 H   0  0  0  0  0  0  0  0  0  0  0  0
  -34.0600   10.9510  -18.8530 C   0  0  0  0  0  0  0  0  0  0  0  0
  -33.2070   11.5690  -19.9310 C   0  0  0  0  0  0  0  0  0  0  0  0
  -33.2760   12.9310  -20.1600 C   0  0  0  0  0  0  0  0  0  0  0  0
  -32.4860   13.4890  -21.1520 C   0  0  0  0  0  0  0  0  0  0  0  0
  -31.6530   12.6530  -21.8810 C   0  0  0  0  0  0  0  0  0  0  0  0
  -31.6410   11.3010  -21.6000 C   0  0  0  0  0  0  0  0  0  0  0  0
  -32.4020   10.8050  -20.6430 N   0  0  0  0  0  0  0  0  0  0  0  0
  -34.0580   12.3110  -15.8820 C   0  0  0  0  0  0  0  0  0  0  0  0
  -34.5440   11.2430  -15.2310 O   0  0  0  0  0  0  0  0  0  0  0  0
  -34.4260   13.4220  -15.5820 O   0  0  0  0  0  0  0  0  0  0  0  0
  -31.6380   12.1900  -16.4120 C   0  0  0  0  0  0  0  0  0  0  0  0
  -30.0540   13.5950  -17.6920 N   0  0  0  0  0  0  0  0  0  0  0  0
  -30.3250   14.3580  -17.1320 H   0  0  0  0  0  0  0  0  0  0  0  0
  -30.6490   12.3950  -17.5300 C   0  0  0  0  0  0  0  0  0  0  0  0
  -30.3880   11.4820  -18.2850 O   0  0  0  0  0  0  0  0  0  0  0  0
  -29.2140   14.6730  -19.6900 C   0  0  0  0  0  0  0  0  0  0  0  0
  -28.2190   14.8270  -20.6410 C   0  0  0  0  0  0  0  0  0  0  0  0
  -27.0650   14.0690  -20.5620 C   0  0  0  0  0  0  0  0  0  0  0  0
  -26.9010   13.1560  -19.5360 C   0  0  0  0  0  0  0  0  0  0  0  0
  -27.8870   13.0010  -18.5810 C   0  0  0  0  0  0  0  0  0  0  0  0
  -29.0500   13.7540  -18.6560 C   0  0  0  0  0  0  0  0  0  0  0  0
  -30.1970   16.8000  -20.1000 C   0  0  0  0  0  0  0  0  0  0  0  0
  -30.3490   15.4190  -19.7650 O   0  0  0  0  0  0  0  0  0  0  0  0
  1  2  1  1  0  0  0
  1 15  1  0  0  0  0
  1 12  1  0  0  0  0
  2  4  1  0  0  0  0
  3  2  1  0  0  0  0
  5  2  1  0  0  0  0
  6  5  1  0  0  0  0
  7  6  1  0  0  0  0
  8  7  2  0  0  0  0
  9 10  2  0  0  0  0
  9  8  1  0  0  0  0
 10 11  1  0  0  0  0
 11  6  2  0  0  0  0
 12 14  2  0  0  0  0
 12 13  1  0  0  0  0
 16 18  1  0  0  0  0
 16 17  1  0  0  0  0
 18 15  1  0  0  0  0
 19 18  2  0  0  0  0
 20 25  2  0  0  0  0
 21 22  2  0  0  0  0
 21 20  1  0  0  0  0
 22 23  1  0  0  0  0
 23 24  2  0  0  0  0
 25 24  1  0  0  0  0
 25 16  1  0  0  0  0
 26 27  1  0  0  0  0
 27 20  1  0  0  0  0
M  END
>  <MODEL>
1

>  <REMARK>
 VINA RESULT:      -5.8      0.000      0.000
  Name = ZINC04189752
                            x       y       z     vdW  Elec       q    Type
                         _______ _______ _______ _____ _____    ______ ____

>  <TORSDO>
F 8

>  <vina_score>
-5.8

$$$$
ZINC06493486
 OpenBabel01081721403D

 23 24  0  0  0  0  0  0  0  0999 V2000
  -31.4290   12.7410  -19.9890 C   0  0  0  0  0  0  0  0  0  0  0  0
  -30.2650   12.0680  -20.0710 N   0  0  0  0  0  0  0  0  0  0  0  0
  -30.2570   11.0860  -19.9940 H   0  0  0  0  0  0  0  0  0  0  0  0
  -31.4300   13.9560  -19.9990 O   0  0  0  0  0  0  0  0  0  0  0  0
  -29.0650   12.7640  -20.2640 C   0  0  0  0  0  0  0  0  0  0  0  0
  -28.6830   13.1470  -21.5440 C   0  0  0  0  0  0  0  0  0  0  0  0
  -27.5040   13.8380  -21.7340 C   0  0  0  0  0  0  0  0  0  0  0  0
  -26.6930   14.1410  -20.6480 C   0  0  0  0  0  0  0  0  0  0  0  0
  -27.0730   13.7540  -19.3690 C   0  0  0  0  0  0  0  0  0  0  0  0
  -28.2550   13.0670  -19.1780 C   0  0  0  0  0  0  0  0  0  0  0  0
  -25.4950   14.8370  -20.8410 N   0  0  0  0  0  0  0  0  0  0  0  0
  -24.6910   14.3570  -21.1440 H   0  0  0  0  0  0  0  0  0  0  0  0
  -25.4560   15.8060  -20.6740 H   0  0  0  0  0  0  0  0  0  0  0  0
  -33.1850   11.3380  -18.7650 C   0  0  0  0  0  0  0  0  0  0  0  0
  -32.7050   12.0010  -19.8870 C   0  0  0  0  0  0  0  0  0  0  0  0
  -33.6160   11.8450  -20.8620 N   0  0  0  0  0  0  0  0  0  0  0  0
  -34.6160   11.1350  -20.4140 C   0  0  0  0  0  0  0  0  0  0  0  0
  -34.3980   10.8050  -19.1270 N   0  0  0  0  0  0  0  0  0  0  0  0
  -32.5310   11.2330  -17.4520 C   0  0  0  0  0  0  0  0  0  0  0  0
  -31.3470   10.9670  -17.3830 O   0  0  0  0  0  0  0  0  0  0  0  0
  -33.2440   11.4310  -16.3240 O   0  0  0  0  0  0  0  0  0  0  0  0
  -34.6220   12.7810  -14.8400 C   0  0  0  0  0  0  0  0  0  0  0  0
  -33.7080   12.7820  -16.0670 C   0  0  0  0  0  0  0  0  0  0  0  0
  1 15  1  0  0  0  0
  2  3  1  0  0  0  0
  2  1  1  0  0  0  0
  4  1  2  0  0  0  0
  5  2  1  0  0  0  0
  5 10  2  0  0  0  0
  6  5  1  0  0  0  0
  7  6  2  0  0  0  0
  7  8  1  0  0  0  0
  8  9  2  0  0  0  0
  9 10  1  0  0  0  0
 11 13  1  0  0  0  0
 11  8  1  0  0  0  0
 12 11  1  0  0  0  0
 14 19  1  0  0  0  0
 15 14  2  0  0  0  0
 16 17  1  0  0  0  0
 16 15  1  0  0  0  0
 17 18  2  0  0  0  0
 18 14  1  0  0  0  0
 19 20  2  0  0  0  0
 19 21  1  0  0  0  0
 21 23  1  0  0  0  0
 23 22  1  0  0  0  0
M  END
>  <MODEL>
1

>  <REMARK>
 VINA RESULT:      -5.8      0.000      0.000
  Name = ZINC06493486
                            x       y       z     vdW  Elec       q    Type
                         _______ _______ _______ _____ _____    ______ ____

>  <TORSDO>
F 6

>  <vina_score>
-5.8

$$$$
ZINC29530525
 OpenBabel01081721353D

 26 27  0  0  0  0  0  0  0  0999 V2000
  -30.7730   13.0490  -21.1110 C   0  0  0  0  0  0  0  0  0  0  0  0
  -29.5520   12.4430  -21.3640 C   0  0  0  0  0  0  0  0  0  0  0  0
  -28.4060   12.9220  -20.7330 C   0  0  0  0  0  0  0  0  0  0  0  0
  -28.5080   14.0170  -19.8450 C   0  0  0  0  0  0  0  0  0  0  0  0
  -27.2810   14.4970  -19.1970 C   0  0  0  0  0  0  0  0  0  0  0  0
  -26.1280   13.8540  -19.4940 N   0  0  0  0  0  0  0  0  0  0  0  0
  -26.1210   12.8070  -20.3600 C   0  0  0  0  0  0  0  0  0  0  0  0
  -27.3010   15.4340  -18.4220 O   0  0  0  0  0  0  0  0  0  0  0  0
  -29.7480   14.6120  -19.6060 C   0  0  0  0  0  0  0  0  0  0  0  0
  -27.1880   12.3610  -20.9490 N   0  0  0  0  0  0  0  0  0  0  0  0
  -27.1130   11.5980  -21.5670 H   0  0  0  0  0  0  0  0  0  0  0  0
  -30.8610   14.1340  -20.2360 C   0  0  0  0  0  0  0  0  0  0  0  0
  -32.1740   14.7690  -19.9870 N   0  0  0  0  0  0  0  0  0  0  0  0
  -33.0190   14.1840  -19.3330 O   0  0  0  0  0  0  0  0  0  0  0  0
  -32.4090   15.8770  -20.4340 O   0  0  0  0  0  0  0  0  0  0  0  0
  -31.9200   12.5740  -21.7380 N   0  0  0  0  0  0  0  0  0  0  0  0
  -32.4910   13.1900  -22.2530 H   0  0  0  0  0  0  0  0  0  0  0  0
  -32.2800   11.1570  -21.6350 C   0  0  0  0  0  0  0  0  0  0  0  0
  -33.3910   10.9880  -20.5960 C   0  0  0  0  0  0  0  0  0  0  0  0
  -32.7720   10.8990  -19.1990 C   0  0  0  0  0  0  0  0  0  0  0  0
  -33.6730   11.5210  -18.2260 N   0  0  0  0  0  0  0  0  0  0  0  0
  -34.0390   12.3680  -18.6630 H   0  0  0  0  0  0  0  0  0  0  0  0
  -31.3400   12.2980  -16.9880 C   0  0  0  0  0  0  0  0  0  0  0  0
  -33.1040   11.9610  -16.7340 S   0  0  0  0  0  0  0  0  0  0  0  0
  -33.2710   10.8030  -15.9280 O   0  0  0  0  0  0  0  0  0  0  0  0
  -33.7930   13.1650  -16.4240 O   0  0  0  0  0  0  0  0  0  0  0  0
  1 12  1  0  0  0  0
  2  1  2  0  0  0  0
  2  3  1  0  0  0  0
  3  4  2  0  0  0  0
  4  9  1  0  0  0  0
  4  5  1  0  0  0  0
  5  8  2  0  0  0  0
  6  5  1  0  0  0  0
  7  6  2  0  0  0  0
 10  3  1  0  0  0  0
 10  7  1  0  0  0  0
 11 10  1  0  0  0  0
 12 13  1  0  0  0  0
 12  9  2  0  0  0  0
 13 14  2  0  0  0  0
 15 13  2  0  0  0  0
 16 18  1  0  0  0  0
 16  1  1  0  0  0  0
 17 16  1  0  0  0  0
 18 19  1  0  0  0  0
 19 20  1  0  0  0  0
 20 21  1  0  0  0  0
 21 24  1  0  0  0  0
 22 21  1  0  0  0  0
 23 24  1  0  0  0  0
 24 26  2  0  0  0  0
 24 25  2  0  0  0  0
M  END
>  <MODEL>
1

>  <REMARK>
 VINA RESULT:      -5.8      0.000      0.000
  Name = ZINC29530525
                            x       y       z     vdW  Elec       q    Type
                         _______ _______ _______ _____ _____    ______ ____

>  <TORSDO>
F 7

>  <vina_score>
-5.8

$$$$
ZINC05089417
 OpenBabel01081721433D

 28 30  0  0  0  0  0  0  0  0999 V2000
  -31.8280   12.7460  -20.9740 C   0  0  0  0  0  0  0  0  0  0  0  0
  -31.5790   11.7170  -21.7320 N   0  0  0  0  0  0  0  0  0  0  0  0
  -30.3890   11.8010  -22.2130 N   0  0  0  0  0  0  0  0  0  0  0  0
  -29.8110   12.8990  -21.7820 C   0  0  0  0  0  0  0  0  0  0  0  0
  -30.7140   13.5390  -20.9810 N   0  0  0  0  0  0  0  0  0  0  0  0
  -30.5380   14.7230  -20.3250 N   0  0  0  0  0  0  0  0  0  0  0  0
  -31.2160   15.0350  -19.6830 H   0  0  0  0  0  0  0  0  0  0  0  0
  -29.7340   15.2650  -20.4930 H   0  0  0  0  0  0  0  0  0  0  0  0
  -33.1110   13.0170  -20.2300 C   0  0  0  0  0  0  0  0  0  0  0  0
  -32.8090   13.5720  -18.9470 O   0  0  0  0  0  0  0  0  0  0  0  0
  -34.1070   12.2480  -15.8130 C   0  0  0  0  0  0  0  0  0  0  0  0
  -33.3220   11.1120  -15.6710 C   0  0  0  0  0  0  0  0  0  0  0  0
  -32.3730   10.8030  -16.6270 C   0  0  0  0  0  0  0  0  0  0  0  0
  -32.2040   11.6230  -17.7260 C   0  0  0  0  0  0  0  0  0  0  0  0
  -32.9810   12.7630  -17.8690 C   0  0  0  0  0  0  0  0  0  0  0  0
  -33.9380   13.0730  -16.9150 C   0  0  0  0  0  0  0  0  0  0  0  0
  -35.3170   11.5570  -13.8870 C   0  0  0  0  0  0  0  0  0  0  0  0
  -35.0390   12.5530  -14.8730 O   0  0  0  0  0  0  0  0  0  0  0  0
  -28.1810   13.4460  -22.1700 S   0  0  0  0  0  0  0  0  0  0  0  0
  -27.2150   12.2740  -21.1850 C   0  0  0  0  0  0  0  0  0  0  0  0
  -26.4540   13.0210  -20.1200 C   0  0  0  0  0  0  0  0  0  0  0  0
  -25.2390   13.0250  -20.1330 O   0  0  0  0  0  0  0  0  0  0  0  0
  -27.1520   13.7150  -19.1070 C   0  0  0  0  0  0  0  0  0  0  0  0
  -27.9830   13.1540  -18.1520 C   0  0  0  0  0  0  0  0  0  0  0  0
  -28.4560   14.2000  -17.3590 C   0  0  0  0  0  0  0  0  0  0  0  0
  -27.9280   15.3560  -17.8340 C   0  0  0  0  0  0  0  0  0  0  0  0
  -27.1370   15.0770  -18.8900 N   0  0  0  0  0  0  0  0  0  0  0  0
  -26.6340   15.7360  -19.4200 H   0  0  0  0  0  0  0  0  0  0  0  0
  1  9  1  0  0  0  0
  2  1  2  0  0  0  0
  3  4  2  0  0  0  0
  3  2  1  0  0  0  0
  4  5  1  0  0  0  0
  5  1  1  0  0  0  0
  5  6  1  0  0  0  0
  6  7  1  0  0  0  0
  8  6  1  0  0  0  0
  9 10  1  0  0  0  0
 10 15  1  0  0  0  0
 11 12  1  0  0  0  0
 11 18  1  0  0  0  0
 13 12  2  0  0  0  0
 14 13  1  0  0  0  0
 15 14  2  0  0  0  0
 15 16  1  0  0  0  0
 16 11  2  0  0  0  0
 18 17  1  0  0  0  0
 19  4  1  0  0  0  0
 19 20  1  0  0  0  0
 20 21  1  0  0  0  0
 21 23  1  0  0  0  0
 22 21  2  0  0  0  0
 23 27  1  0  0  0  0
 23 24  2  0  0  0  0
 24 25  1  0  0  0  0
 26 25  2  0  0  0  0
 27 26  1  0  0  0  0
 28 27  1  0  0  0  0
M  END
>  <MODEL>
1

>  <REMARK>
 VINA RESULT:      -5.8      0.000      0.000
  Name = ZINC05089417
                            x       y       z     vdW  Elec       q    Type
                         _______ _______ _______ _____ _____    ______ ____

>  <TORSDO>
F 9

>  <vina_score>
-5.8

$$$$
ZINC22150898
 OpenBabel01081721493D

 23 24  0  0  0  0  0  0  0  0999 V2000
  -30.9430   11.7600  -18.0490 C   0  0  0  0  0  0  0  0  0  0  0  0
  -29.9390   12.6320  -17.7630 N   0  0  0  0  0  0  0  0  0  0  0  0
  -29.2150   12.8060  -18.9350 C   0  0  0  0  0  0  0  0  0  0  0  0
  -29.8300   12.0130  -19.8970 C   0  0  0  0  0  0  0  0  0  0  0  0
  -29.3080   11.9940  -21.1800 N   0  0  0  0  0  0  0  0  0  0  0  0
  -29.9360   11.1670  -22.2140 C   0  0  0  0  0  0  0  0  0  0  0  0
  -28.2280   12.7390  -21.4800 C   0  0  0  0  0  0  0  0  0  0  0  0
  -27.6230   13.5060  -20.5560 N   0  0  0  0  0  0  0  0  0  0  0  0
  -26.4470   14.2940  -20.9310 C   0  0  0  0  0  0  0  0  0  0  0  0
  -27.7860   12.7150  -22.6120 O   0  0  0  0  0  0  0  0  0  0  0  0
  -28.0860   13.5650  -19.2900 C   0  0  0  0  0  0  0  0  0  0  0  0
  -27.5320   14.2680  -18.4630 O   0  0  0  0  0  0  0  0  0  0  0  0
  -30.8640   11.4030  -19.3150 N   0  0  0  0  0  0  0  0  0  0  0  0
  -31.8920   11.3190  -17.1550 N   0  0  0  0  0  0  0  0  0  0  0  0
  -31.6210   10.7890  -16.3710 H   0  0  0  0  0  0  0  0  0  0  0  0
  -33.3050   11.6390  -17.3700 C   0  0  0  0  0  0  0  0  0  0  0  0
  -33.4190   12.9810  -18.0950 C   0  0  0  0  0  0  0  0  0  0  0  0
  -34.0360   12.7760  -19.4120 N   0  0  0  0  0  0  0  0  0  0  0  0
  -34.9010   13.3160  -19.4410 H   0  0  0  0  0  0  0  0  0  0  0  0
  -32.4540   14.5430  -20.0240 C   0  0  0  0  0  0  0  0  0  0  0  0
  -33.1610   13.2670  -20.4860 C   0  0  0  0  0  0  0  0  0  0  0  0
  -34.3800   11.3630  -19.6180 C   0  0  0  0  0  0  0  0  0  0  0  0
  -33.8390   10.8990  -20.9720 C   0  0  0  0  0  0  0  0  0  0  0  0
  1  2  1  0  0  0  0
  1 14  1  0  0  0  0
  3  2  1  0  0  0  0
  4 13  1  0  0  0  0
  4  3  2  0  0  0  0
  5  4  1  0  0  0  0
  6  5  1  0  0  0  0
  7  5  1  0  0  0  0
  7  8  1  0  0  0  0
  8 11  1  0  0  0  0
  9  8  1  0  0  0  0
 10  7  2  0  0  0  0
 11  3  1  0  0  0  0
 11 12  2  0  0  0  0
 13  1  2  0  0  0  0
 14 15  1  0  0  0  0
 16 14  1  0  0  0  0
 17 16  1  0  0  0  0
 18 17  1  0  0  0  0
 19 18  1  0  0  0  0
 21 20  1  0  0  0  0
 21 18  1  0  0  0  0
 22 18  1  0  0  0  0
 23 22  1  0  0  0  0
M  END
>  <MODEL>
1

>  <REMARK>
 VINA RESULT:      -5.7      0.000      0.000
  Name = ZINC22150898
                            x       y       z     vdW  Elec       q    Type
                         _______ _______ _______ _____ _____    ______ ____

>  <TORSDO>
F 6

>  <vina_score>
-5.7

$$$$
ZINC27969144
 OpenBabel01081721513D

 27 28  0  0  0  0  0  0  0  0999 V2000
  -28.0600   14.0700  -20.4890 S   0  0  0  0  0  0  0  0  0  0  0  0
  -27.8800   15.4400  -20.8240 O   0  0  0  0  0  0  0  0  0  0  0  0
  -27.4410   13.0200  -21.2210 O   0  0  0  0  0  0  0  0  0  0  0  0
  -29.7940   13.7640  -20.5360 C   0  0  0  0  0  0  0  0  0  0  0  0
  -30.2660   12.4880  -20.7920 C   0  0  0  0  0  0  0  0  0  0  0  0
  -31.6220   12.2530  -20.8280 C   0  0  0  0  0  0  0  0  0  0  0  0
  -32.5300   13.2820  -20.6110 C   0  0  0  0  0  0  0  0  0  0  0  0
  -33.8360   12.7990  -20.6980 N   0  0  0  0  0  0  0  0  0  0  0  0
  -34.6380   13.3590  -20.5760 H   0  0  0  0  0  0  0  0  0  0  0  0
  -33.8760   11.4820  -20.9660 C   0  0  0  0  0  0  0  0  0  0  0  0
  -34.8720   10.8030  -21.0950 O   0  0  0  0  0  0  0  0  0  0  0  0
  -32.0480   14.5630  -20.3540 C   0  0  0  0  0  0  0  0  0  0  0  0
  -32.4430   11.0070  -21.0740 C   0  0  0  0  0  0  0  0  0  0  0  0
  -30.6880   14.7970  -20.3180 C   0  0  0  0  0  0  0  0  0  0  0  0
  -30.0950   16.3970  -19.9980 Cl  0  0  0  0  0  0  0  0  0  0  0  0
  -27.5740   13.9000  -18.9150 N   0  0  0  0  0  0  0  0  0  0  0  0
  -27.3370   12.9160  -18.7850 H   0  0  0  0  0  0  0  0  0  0  0  0
  -28.4830   14.2630  -17.8250 C   0  0  0  0  0  0  0  0  0  0  0  0
  -30.7200   13.4360  -17.1690 N   0  0  0  0  0  0  0  0  0  0  0  0
  -30.9770   14.3690  -16.9870 H   0  0  0  0  0  0  0  0  0  0  0  0
  -29.4790   13.1520  -17.6100 C   0  0  0  0  0  0  0  0  0  0  0  0
  -29.1620   12.0030  -17.8350 O   0  0  0  0  0  0  0  0  0  0  0  0
  -31.6880   12.3560  -16.9610 C   0  0  0  0  0  0  0  0  0  0  0  0
  -33.0630   12.9430  -16.7690 C   0  0  0  0  0  0  0  0  0  0  0  0
  -33.8270   13.0070  -17.7020 O   0  0  0  0  0  0  0  0  0  0  0  0
  -34.5240   12.6940  -14.9040 C   0  0  0  0  0  0  0  0  0  0  0  0
  -33.4370   13.3960  -15.5630 O   0  0  0  0  0  0  0  0  0  0  0  0
  1 16  1  0  0  0  0
  2  1  2  0  0  0  0
  3  1  2  0  0  0  0
  4  1  1  0  0  0  0
  4 14  2  0  0  0  0
  5  4  1  0  0  0  0
  6  5  2  0  0  0  0
  6  7  1  0  0  0  0
  7 12  2  0  0  0  0
  8  7  1  0  0  0  0
  8  9  1  0  0  0  0
 10  8  1  0  0  0  0
 11 10  2  0  0  0  0
 12 14  1  0  0  0  0
 13 10  1  0  0  0  0
 13  6  1  0  0  0  0
 14 15  1  0  0  0  0
 16 17  1  0  0  0  0
 16 18  1  0  0  0  0
 18 21  1  0  0  0  0
 19 20  1  0  0  0  0
 19 23  1  0  0  0  0
 21 19  1  0  0  0  0
 22 21  2  0  0  0  0
 23 24  1  0  0  0  0
 24 27  1  0  0  0  0
 25 24  2  0  0  0  0
 27 26  1  0  0  0  0
M  END
>  <MODEL>
1

>  <REMARK>
 VINA RESULT:      -5.7      0.000      0.000
  Name = ZINC27969144
                            x       y       z     vdW  Elec       q    Type
                         _______ _______ _______ _____ _____    ______ ____

>  <TORSDO>
F 7

>  <vina_score>
-5.7

$$$$
ZINC21264479
 OpenBabel01081721503D

 20 20  0  0  0  0  0  0  0  0999 V2000
  -30.6470   13.2740  -19.3230 N   0  0  0  0  0  0  0  0  0  0  0  0
  -30.2630   12.3460  -20.2210 C   0  0  0  0  0  0  0  0  0  0  0  0
  -30.8220   11.2710  -20.2600 O   0  0  0  0  0  0  0  0  0  0  0  0
  -33.4090   12.2560  -16.5930 C   0  0  0  0  0  0  0  0  0  0  0  0
  -33.7530   13.1080  -17.5380 N   0  0  0  0  0  0  0  0  0  0  0  0
  -32.9220   13.4610  -18.4200 N   0  0  0  0  0  0  0  0  0  0  0  0
  -31.6840   12.9970  -18.4390 C   0  0  0  0  0  0  0  0  0  0  0  0
  -31.7050   11.9530  -17.0470 S   0  0  0  0  0  0  0  0  0  0  0  0
  -34.7290   12.8460  -14.5790 C   0  0  0  0  0  0  0  0  0  0  0  0
  -34.2200   11.6980  -15.4520 C   0  0  0  0  0  0  0  0  0  0  0  0
  -29.1380   12.6450  -21.1800 C   0  0  0  0  0  0  0  0  0  0  0  0
  -27.8500   12.4640  -20.4960 N   0  0  0  0  0  0  0  0  0  0  0  0
  -28.0310   12.1850  -19.5320 H   0  0  0  0  0  0  0  0  0  0  0  0
  -27.3140   11.7450  -20.9810 H   0  0  0  0  0  0  0  0  0  0  0  0
  -27.0800   13.7140  -20.4860 C   0  0  0  0  0  0  0  0  0  0  0  0
  -27.4530   14.5340  -19.2490 C   0  0  0  0  0  0  0  0  0  0  0  0
  -27.3980   14.5210  -21.7470 C   0  0  0  0  0  0  0  0  0  0  0  0
  -25.5840   13.3910  -20.4520 C   0  0  0  0  0  0  0  0  0  0  0  0
  -25.3890   12.0090  -20.7570 O   0  0  0  0  0  0  0  0  0  0  0  0
  -24.5400   11.7140  -20.3930 H   0  0  0  0  0  0  0  0  0  0  0  0
  1  7  1  0  0  0  0
  2  1  1  0  0  0  0
  3  2  2  0  0  0  0
  4 10  1  0  0  0  0
  5  4  2  0  0  0  0
  6  5  1  0  0  0  0
  7  6  2  0  0  0  0
  7  8  1  0  0  0  0
  8  4  1  0  0  0  0
 10  9  1  0  0  0  0
 11 12  1  0  0  0  0
 11  2  1  0  0  0  0
 12 15  1  0  0  0  0
 12 13  1  0  0  0  0
 14 12  1  0  0  0  0
 15 18  1  0  0  0  0
 15 16  1  0  0  0  0
 17 15  1  0  0  0  0
 19 18  1  0  0  0  0
 19 20  1  0  0  0  0
M  END
>  <MODEL>
1

>  <REMARK>
 VINA RESULT:      -5.7      0.000      0.000
  Name = ZINC21264479
                            x       y       z     vdW  Elec       q    Type
                         _______ _______ _______ _____ _____    ______ ____

>  <TORSDO>
F 7

>  <vina_score>
-5.7

$$$$
ZINC04748240
 OpenBabel01081721543D

 20 19  0  0  0  0  0  0  0  0999 V2000
  -29.4510   12.0730  -20.2770 C   0  0  0  0  0  0  0  0  0  0  0  0
  -28.6350   12.2880  -21.2390 N   0  0  0  0  0  0  0  0  0  0  0  0
  -27.3670   12.8230  -20.9750 N   0  0  0  0  0  0  0  0  0  0  0  0
  -26.6520   12.2440  -20.6260 H   0  0  0  0  0  0  0  0  0  0  0  0
  -27.1270   14.1300  -21.2000 C   0  0  0  0  0  0  0  0  0  0  0  0
  -28.1060   14.9230  -21.6790 N   0  0  0  0  0  0  0  0  0  0  0  0
  -27.9310   15.8770  -21.8440 H   0  0  0  0  0  0  0  0  0  0  0  0
  -28.9970   14.5470  -21.8650 H   0  0  0  0  0  0  0  0  0  0  0  0
  -26.0260   14.5930  -20.9720 O   0  0  0  0  0  0  0  0  0  0  0  0
  -30.8540   11.6040  -20.5690 C   0  0  0  0  0  0  0  0  0  0  0  0
  -31.5510   12.6190  -21.4780 C   0  0  0  0  0  0  0  0  0  0  0  0
  -32.8330   13.0740  -20.8300 C   0  0  0  0  0  0  0  0  0  0  0  0
  -33.8790   12.5430  -21.1210 O   0  0  0  0  0  0  0  0  0  0  0  0
  -32.2540   15.3380  -20.3630 C   0  0  0  0  0  0  0  0  0  0  0  0
  -32.8140   14.0700  -19.9300 O   0  0  0  0  0  0  0  0  0  0  0  0
  -29.0100   12.2860  -18.8510 C   0  0  0  0  0  0  0  0  0  0  0  0
  -29.6940   13.5070  -18.2920 C   0  0  0  0  0  0  0  0  0  0  0  0
  -30.6380   13.3850  -17.5490 O   0  0  0  0  0  0  0  0  0  0  0  0
  -29.2550   14.7330  -18.6230 O   0  0  0  0  0  0  0  0  0  0  0  0
  -28.1290   15.2550  -17.8700 C   0  0  0  0  0  0  0  0  0  0  0  0
  1 16  1  0  0  0  0
  2  3  1  0  0  0  0
  2  1  2  0  0  0  0
  3  4  1  0  0  0  0
  5  3  1  0  0  0  0
  5  9  2  0  0  0  0
  6  5  1  0  0  0  0
  7  6  1  0  0  0  0
  8  6  1  0  0  0  0
 10  1  1  0  0  0  0
 11 12  1  0  0  0  0
 11 10  1  0  0  0  0
 12 15  1  0  0  0  0
 13 12  2  0  0  0  0
 14 15  1  0  0  0  0
 16 17  1  0  0  0  0
 17 18  2  0  0  0  0
 19 17  1  0  0  0  0
 19 20  1  0  0  0  0
M  END
>  <MODEL>
1

>  <REMARK>
 VINA RESULT:      -5.7      0.000      0.000
  Name = ZINC04748240
                            x       y       z     vdW  Elec       q    Type
                         _______ _______ _______ _____ _____    ______ ____

>  <TORSDO>
F 8

>  <vina_score>
-5.7

$$$$
ZINC19483528
 OpenBabel01081721553D

 21 21  0  0  1  0  0  0  0  0999 V2000
  -28.8670   14.2050  -17.2890 C   0  0  0  0  0  0  0  0  0  0  0  0
  -32.6300   13.2390  -19.0740 C   0  0  0  0  0  0  0  0  0  0  0  0
  -31.7050   14.0010  -19.7700 C   0  0  0  0  0  0  0  0  0  0  0  0
  -30.4910   14.3160  -19.1880 C   0  0  0  0  0  0  0  0  0  0  0  0
  -30.1930   13.8640  -17.9160 C   0  0  0  0  0  0  0  0  0  0  0  0
  -31.1120   13.1040  -17.2170 C   0  0  0  0  0  0  0  0  0  0  0  0
  -32.3330   12.7890  -17.7920 C   0  0  0  0  0  0  0  0  0  0  0  0
  -33.8410   11.8540  -20.5820 C   0  0  0  0  0  0  0  0  0  0  0  0
  -33.8260   12.9320  -19.6440 O   0  0  0  0  0  0  0  0  0  0  0  0
  -33.2370   12.0410  -17.1060 O   0  0  0  0  0  0  0  0  0  0  0  0
  -33.8200   12.6330  -15.9420 C   0  0  0  0  0  0  0  0  0  0  0  0
  -27.7050   14.7320  -18.5780 S   0  0  0  0  0  0  0  0  0  0  0  0
  -26.9890   13.1810  -19.1850 C   0  0  0  0  0  0  0  0  0  0  0  0
  -26.5620   13.3520  -20.6440 C   0  0  2  0  0  0  0  0  0  0  0  0
  -26.0340   14.7070  -20.8440 N   0  0  0  0  0  0  0  0  0  0  0  0
  -26.5750   15.3690  -20.2880 H   0  0  0  0  0  0  0  0  0  0  0  0
  -25.0570   14.7390  -20.5510 H   0  0  0  0  0  0  0  0  0  0  0  0
  -26.1020   14.9560  -21.8300 H   0  0  0  0  0  0  0  0  0  0  0  0
  -27.7520   13.1390  -21.5440 C   0  0  0  0  0  0  0  0  0  0  0  0
  -28.6870   12.2330  -21.2180 O   0  0  0  0  0  0  0  0  0  0  0  0
  -27.8640   13.7850  -22.5590 O   0  0  0  0  0  0  0  0  0  0  0  0
  2  7  2  0  0  0  0
  3  4  2  0  0  0  0
  3  2  1  0  0  0  0
  4  5  1  0  0  0  0
  5  1  1  0  0  0  0
  5  6  2  0  0  0  0
  7  6  1  0  0  0  0
  7 10  1  0  0  0  0
  8  9  1  0  0  0  0
  9  2  1  0  0  0  0
 10 11  1  0  0  0  0
 12  1  1  0  0  0  0
 13 12  1  0  0  0  0
 14 19  1  6  0  0  0
 14 13  1  0  0  0  0
 15 14  1  0  0  0  0
 15 17  1  0  0  0  0
 15 16  1  0  0  0  0
 18 15  1  0  0  0  0
 19 20  1  0  0  0  0
 21 19  2  0  0  0  0
M  END
>  <MODEL>
1

>  <REMARK>
 VINA RESULT:      -5.7      0.000      0.000
  Name = ZINC19483528
                            x       y       z     vdW  Elec       q    Type
                         _______ _______ _______ _____ _____    ______ ____

>  <TORSDO>
F 8

>  <vina_score>
-5.7

$$$$
ZINC03121134
 OpenBabel01081722003D

 19 19  0  0  0  0  0  0  0  0999 V2000
  -31.0460   13.6520  -21.1490 N   0  0  0  0  0  0  0  0  0  0  0  0
  -31.4680   13.9900  -22.0140 H   0  0  0  0  0  0  0  0  0  0  0  0
  -32.2570   13.0710  -20.1350 P   0  0  1  0  0  0  0  0  0  0  0  0
  -32.8050   14.1860  -19.3320 O   0  0  0  0  0  0  0  0  0  0  0  0
  -33.4320   12.4200  -21.0220 O   0  0  0  0  0  0  0  0  0  0  0  0
  -34.2020   11.2960  -20.5890 C   0  0  0  0  0  0  0  0  0  0  0  0
  -31.6320   11.9320  -19.1340 N   0  0  0  0  0  0  0  0  0  0  0  0
  -31.7940   12.0440  -17.8010 C   0  0  0  0  0  0  0  0  0  0  0  0
  -30.8530   12.3600  -17.1000 O   0  0  0  0  0  0  0  0  0  0  0  0
  -33.4520   12.7450  -16.2350 C   0  0  0  0  0  0  0  0  0  0  0  0
  -32.9970   11.8070  -17.2460 O   0  0  0  0  0  0  0  0  0  0  0  0
  -30.3620   14.6760  -20.5580 N   0  0  0  0  0  0  0  0  0  0  0  0
  -30.6100   15.6100  -20.7500 H   0  0  0  0  0  0  0  0  0  0  0  0
  -29.3100   14.3990  -19.6800 C   0  0  0  0  0  0  0  0  0  0  0  0
  -28.3590   13.4440  -20.0140 C   0  0  0  0  0  0  0  0  0  0  0  0
  -27.3200   13.1730  -19.1440 C   0  0  0  0  0  0  0  0  0  0  0  0
  -27.2280   13.8520  -17.9430 C   0  0  0  0  0  0  0  0  0  0  0  0
  -28.1740   14.8030  -17.6080 C   0  0  0  0  0  0  0  0  0  0  0  0
  -29.2140   15.0790  -18.4730 C   0  0  0  0  0  0  0  0  0  0  0  0
  1 12  1  0  0  0  0
  2  1  1  0  0  0  0
  3  1  1  6  0  0  0
  3  4  2  0  0  0  0
  3  7  1  0  0  0  0
  5  6  1  0  0  0  0
  5  3  1  0  0  0  0
  7  8  1  0  0  0  0
  8 11  1  0  0  0  0
  8  9  2  0  0  0  0
 11 10  1  0  0  0  0
 12 14  1  0  0  0  0
 13 12  1  0  0  0  0
 14 19  1  0  0  0  0
 15 14  2  0  0  0  0
 15 16  1  0  0  0  0
 16 17  2  0  0  0  0
 17 18  1  0  0  0  0
 19 18  2  0  0  0  0
M  END
>  <MODEL>
1

>  <REMARK>
 VINA RESULT:      -5.7      0.000      0.000
  Name = ZINC03121134
                            x       y       z     vdW  Elec       q    Type
                         _______ _______ _______ _____ _____    ______ ____

>  <TORSDO>
F 7

>  <vina_score>
-5.7

$$$$
ZINC15771728
 OpenBabel01081722043D

 31 31  0  0  1  0  0  0  0  0999 V2000
  -26.5950   13.0630  -19.2360 C   0  0  0  0  0  0  0  0  0  0  0  0
  -27.8570   12.8500  -18.5040 N   0  0  0  0  0  0  0  0  0  0  0  0
  -27.7130   12.1290  -17.7970 H   0  0  0  0  0  0  0  0  0  0  0  0
  -28.5820   12.5550  -19.1600 H   0  0  0  0  0  0  0  0  0  0  0  0
  -28.2810   14.0960  -17.8390 C   0  0  0  0  0  0  0  0  0  0  0  0
  -29.3750   13.7730  -16.8190 C   0  0  0  0  0  0  0  0  0  0  0  0
  -32.9790   12.7250  -18.8700 C   0  0  0  0  0  0  0  0  0  0  0  0
  -32.5380   11.9600  -17.8010 C   0  0  0  0  0  0  0  0  0  0  0  0
  -31.3700   12.2980  -17.1450 C   0  0  0  0  0  0  0  0  0  0  0  0
  -30.6440   13.4060  -17.5430 C   0  0  0  0  0  0  0  0  0  0  0  0
  -31.0790   14.1740  -18.6070 C   0  0  0  0  0  0  0  0  0  0  0  0
  -32.2460   13.8370  -19.2740 C   0  0  0  0  0  0  0  0  0  0  0  0
  -32.6740   14.5910  -20.3210 O   0  0  0  0  0  0  0  0  0  0  0  0
  -32.2000   15.9370  -20.3890 C   0  0  0  0  0  0  0  0  0  0  0  0
  -34.1060   11.1860  -20.2900 C   0  0  0  0  0  0  0  0  0  0  0  0
  -34.1240   12.3910  -19.5200 O   0  0  0  0  0  0  0  0  0  0  0  0
  -26.9060   13.2930  -20.7160 C   0  0  2  0  0  0  0  0  0  0  0  0
  -26.3890   14.5620  -21.1200 O   0  0  0  0  0  0  0  0  0  0  0  0
  -27.0400   15.0120  -21.6820 H   0  0  0  0  0  0  0  0  0  0  0  0
  -28.4210   13.2680  -20.9290 C   0  0  1  0  0  0  0  0  0  0  0  0
  -28.8880   14.5930  -21.1870 O   0  0  0  0  0  0  0  0  0  0  0  0
  -28.9620   15.0790  -20.3500 H   0  0  0  0  0  0  0  0  0  0  0  0
  -28.7530   12.3680  -22.1230 C   0  0  1  0  0  0  0  0  0  0  0  0
  -27.5550   11.7580  -22.6070 O   0  0  0  0  0  0  0  0  0  0  0  0
  -27.3310   12.1300  -23.4740 H   0  0  0  0  0  0  0  0  0  0  0  0
  -29.7370   11.2820  -21.6840 C   0  0  1  0  0  0  0  0  0  0  0  0
  -29.8420   11.2810  -20.2590 O   0  0  0  0  0  0  0  0  0  0  0  0
  -29.1480   11.8450  -19.8830 H   0  0  0  0  0  0  0  0  0  0  0  0
  -31.1110   11.5610  -22.2960 C   0  0  0  0  0  0  0  0  0  0  0  0
  -31.3280   12.9720  -22.3580 O   0  0  0  0  0  0  0  0  0  0  0  0
  -31.9480   13.1730  -23.0760 H   0  0  0  0  0  0  0  0  0  0  0  0
  1  2  1  0  0  0  0
  2  5  1  0  0  0  0
  2  3  1  0  0  0  0
  4  2  1  0  0  0  0
  5  6  1  0  0  0  0
  7  8  1  0  0  0  0
  8  9  2  0  0  0  0
 10  9  1  0  0  0  0
 10  6  1  0  0  0  0
 11 10  2  0  0  0  0
 12  7  2  0  0  0  0
 12 11  1  0  0  0  0
 13 12  1  0  0  0  0
 14 13  1  0  0  0  0
 15 16  1  0  0  0  0
 16  7  1  0  0  0  0
 17 18  1  1  0  0  0
 17  1  1  0  0  0  0
 19 18  1  0  0  0  0
 20 21  1  6  0  0  0
 20 17  1  0  0  0  0
 21 22  1  0  0  0  0
 23 24  1  1  0  0  0
 23 26  1  0  0  0  0
 23 20  1  0  0  0  0
 25 24  1  0  0  0  0
 26 29  1  6  0  0  0
 26 27  1  0  0  0  0
 27 28  1  0  0  0  0
 30 29  1  0  0  0  0
 31 30  1  0  0  0  0
M  END
>  <MODEL>
1

>  <REMARK>
 VINA RESULT:      -5.7      0.000      0.000
  Name = ZINC15771728
                            x       y       z     vdW  Elec       q    Type
                         _______ _______ _______ _____ _____    ______ ____

>  <TORSDO>
F 16

>  <vina_score>
-5.7

$$$$
ZINC06178420
 OpenBabel01081721393D

 27 27  0  0  1  0  0  0  0  0999 V2000
  -31.9950   12.6080  -17.4170 C   0  0  0  0  0  0  0  0  0  0  0  0
  -32.3550   11.7890  -16.4720 N   0  0  0  0  0  0  0  0  0  0  0  0
  -33.7020   11.4290  -16.3330 N   0  0  0  0  0  0  0  0  0  0  0  0
  -34.2630   11.3010  -17.1320 H   0  0  0  0  0  0  0  0  0  0  0  0
  -34.0870   11.3050  -15.4360 H   0  0  0  0  0  0  0  0  0  0  0  0
  -30.3260   14.1450  -18.1870 N   0  0  0  0  0  0  0  0  0  0  0  0
  -30.6150   13.0880  -17.4820 C   0  0  0  0  0  0  0  0  0  0  0  0
  -28.5400   15.6310  -17.3120 C   0  0  0  0  0  0  0  0  0  0  0  0
  -29.0040   14.6040  -18.2490 N   0  0  0  0  0  0  0  0  0  0  0  0
  -28.1280   14.0830  -19.2000 C   0  0  0  0  0  0  0  0  0  0  0  0
  -26.9970   13.3830  -18.7990 C   0  0  0  0  0  0  0  0  0  0  0  0
  -26.1350   12.8640  -19.7440 C   0  0  0  0  0  0  0  0  0  0  0  0
  -26.3900   13.0500  -21.0900 C   0  0  0  0  0  0  0  0  0  0  0  0
  -27.5110   13.7520  -21.4950 C   0  0  0  0  0  0  0  0  0  0  0  0
  -28.3800   14.2690  -20.5560 C   0  0  0  0  0  0  0  0  0  0  0  0
  -33.0000   13.0620  -18.4450 C   0  0  2  0  0  0  0  0  0  0  0  0
  -34.1450   13.6030  -17.7840 O   0  0  0  0  0  0  0  0  0  0  0  0
  -34.2020   14.5550  -17.9620 H   0  0  0  0  0  0  0  0  0  0  0  0
  -33.4240   11.8690  -19.3050 C   0  0  2  0  0  0  0  0  0  0  0  0
  -32.4870   10.8030  -19.1340 O   0  0  0  0  0  0  0  0  0  0  0  0
  -32.1920   10.7760  -18.2100 H   0  0  0  0  0  0  0  0  0  0  0  0
  -33.4580   12.2870  -20.7760 C   0  0  2  0  0  0  0  0  0  0  0  0
  -33.1340   11.1650  -21.5980 O   0  0  0  0  0  0  0  0  0  0  0  0
  -33.9130   10.9080  -22.1150 H   0  0  0  0  0  0  0  0  0  0  0  0
  -32.4370   13.4030  -21.0110 C   0  0  0  0  0  0  0  0  0  0  0  0
  -31.6100   13.0630  -22.1260 O   0  0  0  0  0  0  0  0  0  0  0  0
  -30.6780   13.1870  -21.8870 H   0  0  0  0  0  0  0  0  0  0  0  0
  1  2  2  0  0  0  0
  2  3  1  0  0  0  0
  3  5  1  0  0  0  0
  4  3  1  0  0  0  0
  6  7  2  0  0  0  0
  7  1  1  0  0  0  0
  9  6  1  0  0  0  0
  9  8  1  0  0  0  0
 10 11  1  0  0  0  0
 10  9  1  0  0  0  0
 12 11  2  0  0  0  0
 13 12  1  0  0  0  0
 14 13  2  0  0  0  0
 14 15  1  0  0  0  0
 15 10  2  0  0  0  0
 16 17  1  1  0  0  0
 16  1  1  0  0  0  0
 18 17  1  0  0  0  0
 19 20  1  6  0  0  0
 19 16  1  0  0  0  0
 20 21  1  0  0  0  0
 22 23  1  6  0  0  0
 22 19  1  0  0  0  0
 24 23  1  0  0  0  0
 25 22  1  0  0  0  0
 26 27  1  0  0  0  0
 26 25  1  0  0  0  0
M  END
>  <MODEL>
1

>  <REMARK>
 VINA RESULT:      -5.7      0.000      0.000
  Name = ZINC06178420
                            x       y       z     vdW  Elec       q    Type
                         _______ _______ _______ _____ _____    ______ ____

>  <TORSDO>
F 12

>  <vina_score>
-5.7

$$$$
ZINC06509720
 OpenBabel01081721383D

 26 27  0  0  0  0  0  0  0  0999 V2000
  -31.7430   12.8980  -18.1720 C   0  0  0  0  0  0  0  0  0  0  0  0
  -30.5060   13.5070  -17.8970 C   0  0  0  0  0  0  0  0  0  0  0  0
  -30.1090   14.5680  -18.6600 N   0  0  0  0  0  0  0  0  0  0  0  0
  -30.8750   15.0340  -19.6580 C   0  0  0  0  0  0  0  0  0  0  0  0
  -32.0650   14.4930  -19.9680 N   0  0  0  0  0  0  0  0  0  0  0  0
  -32.8490   15.0520  -21.0710 C   0  0  0  0  0  0  0  0  0  0  0  0
  -30.4760   15.9810  -20.3090 O   0  0  0  0  0  0  0  0  0  0  0  0
  -32.5460   13.4410  -19.2740 C   0  0  0  0  0  0  0  0  0  0  0  0
  -33.6240   12.9520  -19.5570 O   0  0  0  0  0  0  0  0  0  0  0  0
  -29.7150   13.0440  -16.8920 N   0  0  0  0  0  0  0  0  0  0  0  0
  -30.0180   13.1080  -15.9580 H   0  0  0  0  0  0  0  0  0  0  0  0
  -28.8380   12.6460  -17.1000 H   0  0  0  0  0  0  0  0  0  0  0  0
  -32.1970   11.7970  -17.4120 C   0  0  0  0  0  0  0  0  0  0  0  0
  -31.5070   10.8030  -17.3110 O   0  0  0  0  0  0  0  0  0  0  0  0
  -33.5370   11.8580  -16.7260 C   0  0  0  0  0  0  0  0  0  0  0  0
  -34.6050   12.8060  -14.7700 C   0  0  0  0  0  0  0  0  0  0  0  0
  -33.5440   12.9890  -15.7790 N   0  0  0  0  0  0  0  0  0  0  0  0
  -33.7220   13.8520  -16.2950 H   0  0  0  0  0  0  0  0  0  0  0  0
  -32.6390   13.0430  -15.3110 H   0  0  0  0  0  0  0  0  0  0  0  0
  -28.8230   15.2110  -18.3820 C   0  0  0  0  0  0  0  0  0  0  0  0
  -27.7210   14.4500  -19.0740 C   0  0  0  0  0  0  0  0  0  0  0  0
  -26.8530   13.6670  -18.3360 C   0  0  0  0  0  0  0  0  0  0  0  0
  -25.8460   12.9650  -18.9710 C   0  0  0  0  0  0  0  0  0  0  0  0
  -25.7000   13.0540  -20.3420 C   0  0  0  0  0  0  0  0  0  0  0  0
  -26.5640   13.8420  -21.0790 C   0  0  0  0  0  0  0  0  0  0  0  0
  -27.5750   14.5400  -20.4450 C   0  0  0  0  0  0  0  0  0  0  0  0
  1  2  2  0  0  0  0
  1 13  1  0  0  0  0
  2 10  1  0  0  0  0
  3 20  1  0  0  0  0
  3  2  1  0  0  0  0
  4  3  1  0  0  0  0
  5  4  1  0  0  0  0
  5  8  1  0  0  0  0
  6  5  1  0  0  0  0
  7  4  2  0  0  0  0
  8  1  1  0  0  0  0
  9  8  2  0  0  0  0
 10 11  1  0  0  0  0
 12 10  1  0  0  0  0
 13 14  2  0  0  0  0
 13 15  1  0  0  0  0
 15 17  1  0  0  0  0
 17 19  1  0  0  0  0
 17 16  1  0  0  0  0
 18 17  1  0  0  0  0
 21 20  1  0  0  0  0
 21 22  2  0  0  0  0
 23 22  1  0  0  0  0
 24 23  2  0  0  0  0
 25 26  2  0  0  0  0
 25 24  1  0  0  0  0
 26 21  1  0  0  0  0
M  END
>  <MODEL>
1

>  <REMARK>
 VINA RESULT:      -5.7      0.000      0.000
  Name = ZINC06509720
                            x       y       z     vdW  Elec       q    Type
                         _______ _______ _______ _____ _____    ______ ____

>  <TORSDO>
F 6

>  <vina_score>
-5.7

$$$$
ZINC23696717
 OpenBabel01081721363D

 29 29  0  0  0  0  0  0  0  0999 V2000
  -33.0420   11.6570  -18.5540 N   0  0  0  0  0  0  0  0  0  0  0  0
  -31.9350   12.4390  -18.7880 C   0  0  0  0  0  0  0  0  0  0  0  0
  -31.7870   13.0460  -20.0190 C   0  0  0  0  0  0  0  0  0  0  0  0
  -32.7830   12.8560  -20.9940 C   0  0  0  0  0  0  0  0  0  0  0  0
  -33.8510   12.0850  -20.7130 N   0  0  0  0  0  0  0  0  0  0  0  0
  -34.5480   11.9510  -21.3950 H   0  0  0  0  0  0  0  0  0  0  0  0
  -32.6800   13.3850  -22.0880 O   0  0  0  0  0  0  0  0  0  0  0  0
  -33.9760   11.4950  -19.5100 C   0  0  0  0  0  0  0  0  0  0  0  0
  -34.9490   10.8030  -19.2820 O   0  0  0  0  0  0  0  0  0  0  0  0
  -30.9840   12.6080  -17.8110 N   0  0  0  0  0  0  0  0  0  0  0  0
  -31.1960   12.3930  -16.8740 H   0  0  0  0  0  0  0  0  0  0  0  0
  -30.0890   12.9440  -18.0490 H   0  0  0  0  0  0  0  0  0  0  0  0
  -30.6600   13.8500  -20.2910 N   0  0  0  0  0  0  0  0  0  0  0  0
  -29.6010   13.3290  -20.9440 C   0  0  0  0  0  0  0  0  0  0  0  0
  -29.6520   12.1970  -21.3780 O   0  0  0  0  0  0  0  0  0  0  0  0
  -30.6400   15.2510  -19.8630 C   0  0  0  0  0  0  0  0  0  0  0  0
  -31.9920   15.8980  -20.1750 C   0  0  0  0  0  0  0  0  0  0  0  0
  -28.3540   14.1530  -21.1350 C   0  0  0  0  0  0  0  0  0  0  0  0
  -27.1800   13.3660  -20.7330 N   0  0  0  0  0  0  0  0  0  0  0  0
  -27.0520   12.6210  -21.4190 H   0  0  0  0  0  0  0  0  0  0  0  0
  -25.9660   14.1930  -20.7350 C   0  0  0  0  0  0  0  0  0  0  0  0
  -27.3900   12.7400  -19.4220 C   0  0  0  0  0  0  0  0  0  0  0  0
  -26.8180   13.6450  -18.3280 C   0  0  0  0  0  0  0  0  0  0  0  0
  -27.9490   14.1110  -17.4090 C   0  0  0  0  0  0  0  0  0  0  0  0
  -28.2130   15.6010  -17.6400 C   0  0  0  0  0  0  0  0  0  0  0  0
  -33.2090   11.0000  -17.2560 C   0  0  0  0  0  0  0  0  0  0  0  0
  -33.6780   12.0270  -16.2220 C   0  0  0  0  0  0  0  0  0  0  0  0
  -35.0800   12.3440  -14.1790 C   0  0  0  0  0  0  0  0  0  0  0  0
  -34.4210   11.3090  -15.0930 C   0  0  0  0  0  0  0  0  0  0  0  0
  1 26  1  0  0  0  0
  2  1  1  0  0  0  0
  2 10  1  0  0  0  0
  3  2  2  0  0  0  0
  4  5  1  0  0  0  0
  4  3  1  0  0  0  0
  5  8  1  0  0  0  0
  6  5  1  0  0  0  0
  7  4  2  0  0  0  0
  8  9  2  0  0  0  0
  8  1  1  0  0  0  0
 10 11  1  0  0  0  0
 12 10  1  0  0  0  0
 13  3  1  0  0  0  0
 13 16  1  0  0  0  0
 14 13  1  0  0  0  0
 15 14  2  0  0  0  0
 17 16  1  0  0  0  0
 18 14  1  0  0  0  0
 18 19  1  0  0  0  0
 19 22  1  0  0  0  0
 20 19  1  0  0  0  0
 21 19  1  0  0  0  0
 22 23  1  0  0  0  0
 23 24  1  0  0  0  0
 25 24  1  0  0  0  0
 26 27  1  0  0  0  0
 27 29  1  0  0  0  0
 29 28  1  0  0  0  0
M  END
>  <MODEL>
1

>  <REMARK>
 VINA RESULT:      -5.6      0.000      0.000
  Name = ZINC23696717
                            x       y       z     vdW  Elec       q    Type
                         _______ _______ _______ _____ _____    ______ ____

>  <TORSDO>
F 11

>  <vina_score>
-5.6

$$$$
ZINC06368275
 OpenBabel01081721473D

 26 27  0  0  0  0  0  0  0  0999 V2000
  -31.6460   13.4290  -19.0000 C   0  0  0  0  0  0  0  0  0  0  0  0
  -30.4040   13.9900  -18.7280 C   0  0  0  0  0  0  0  0  0  0  0  0
  -30.0290   15.2010  -19.3600 C   0  0  0  0  0  0  0  0  0  0  0  0
  -28.6900   15.8270  -19.0700 C   0  0  0  0  0  0  0  0  0  0  0  0
  -27.6790   14.7280  -18.7340 C   0  0  0  0  0  0  0  0  0  0  0  0
  -28.1750   13.9410  -17.5190 C   0  0  0  0  0  0  0  0  0  0  0  0
  -30.7910   15.7390  -20.1360 O   0  0  0  0  0  0  0  0  0  0  0  0
  -29.5240   13.3430  -17.8270 C   0  0  0  0  0  0  0  0  0  0  0  0
  -29.8580   12.3030  -17.2980 O   0  0  0  0  0  0  0  0  0  0  0  0
  -31.9550   12.2120  -18.5150 N   0  0  0  0  0  0  0  0  0  0  0  0
  -31.6120   11.4040  -18.9600 H   0  0  0  0  0  0  0  0  0  0  0  0
  -32.7630   12.0960  -17.3790 C   0  0  0  0  0  0  0  0  0  0  0  0
  -33.5690   13.1580  -16.9890 C   0  0  0  0  0  0  0  0  0  0  0  0
  -34.3680   13.0430  -15.8680 C   0  0  0  0  0  0  0  0  0  0  0  0
  -34.3650   11.8660  -15.1310 C   0  0  0  0  0  0  0  0  0  0  0  0
  -33.5580   10.8030  -15.5220 C   0  0  0  0  0  0  0  0  0  0  0  0
  -32.7610   10.9170  -16.6420 C   0  0  0  0  0  0  0  0  0  0  0  0
  -35.1740   11.7490  -13.9970 N   0  0  0  0  0  0  0  0  0  0  0  0
  -36.1490   11.6500  -14.0950 H   0  0  0  0  0  0  0  0  0  0  0  0
  -34.7690   11.7660  -13.0990 H   0  0  0  0  0  0  0  0  0  0  0  0
  -32.6470   14.1820  -19.8370 C   0  0  0  0  0  0  0  0  0  0  0  0
  -32.7370   13.5420  -21.2240 C   0  0  0  0  0  0  0  0  0  0  0  0
  -33.2400   12.1280  -21.0930 C   0  0  0  0  0  0  0  0  0  0  0  0
  -34.4070   11.9210  -20.8520 O   0  0  0  0  0  0  0  0  0  0  0  0
  -31.3050   11.2720  -22.1880 C   0  0  0  0  0  0  0  0  0  0  0  0
  -32.3930   11.0980  -21.2420 O   0  0  0  0  0  0  0  0  0  0  0  0
  1  2  1  0  0  0  0
  1 10  2  0  0  0  0
  2  8  1  0  0  0  0
  3  4  1  0  0  0  0
  3  2  1  0  0  0  0
  4  5  1  0  0  0  0
  5  6  1  0  0  0  0
  7  3  2  0  0  0  0
  8  6  1  0  0  0  0
  8  9  2  0  0  0  0
 10 12  1  0  0  0  0
 11 10  1  0  0  0  0
 12 13  2  0  0  0  0
 12 17  1  0  0  0  0
 13 14  1  0  0  0  0
 14 15  2  0  0  0  0
 15 18  1  0  0  0  0
 16 15  1  0  0  0  0
 17 16  2  0  0  0  0
 18 20  1  0  0  0  0
 19 18  1  0  0  0  0
 21  1  1  0  0  0  0
 22 23  1  0  0  0  0
 22 21  1  0  0  0  0
 23 24  2  0  0  0  0
 25 26  1  0  0  0  0
 26 23  1  0  0  0  0
M  END
>  <MODEL>
1

>  <REMARK>
 VINA RESULT:      -5.6      0.000      0.000
  Name = ZINC06368275
                            x       y       z     vdW  Elec       q    Type
                         _______ _______ _______ _____ _____    ______ ____

>  <TORSDO>
F 7

>  <vina_score>
-5.6

$$$$
ZINC06535546
 OpenBabel01081721483D

 26 27  0  0  1  0  0  0  0  0999 V2000
  -29.5390   14.0310  -17.2850 C   0  0  0  0  0  0  0  0  0  0  0  0
  -30.0330   12.7930  -17.5140 C   0  0  0  0  0  0  0  0  0  0  0  0
  -31.4250   12.5830  -17.5320 C   0  0  0  0  0  0  0  0  0  0  0  0
  -32.1780   12.8690  -16.4350 C   0  0  0  0  0  0  0  0  0  0  0  0
  -33.5790   12.6830  -16.4800 C   0  0  0  0  0  0  0  0  0  0  0  0
  -34.2050   12.5510  -17.6160 N   0  0  0  0  0  0  0  0  0  0  0  0
  -33.4970   12.6430  -18.8920 C   0  0  1  0  0  0  0  0  0  0  0  0
  -32.1000   12.0350  -18.7640 C   0  0  0  0  0  0  0  0  0  0  0  0
  -34.3530   12.6390  -15.2100 C   0  0  0  0  0  0  0  0  0  0  0  0
  -35.2150   11.6310  -14.9820 O   0  0  0  0  0  0  0  0  0  0  0  0
  -34.2050   13.5110  -14.3790 O   0  0  0  0  0  0  0  0  0  0  0  0
  -34.2720   11.8990  -19.9480 C   0  0  0  0  0  0  0  0  0  0  0  0
  -34.9980   10.8210  -19.6130 O   0  0  0  0  0  0  0  0  0  0  0  0
  -34.2450   12.2760  -21.0960 O   0  0  0  0  0  0  0  0  0  0  0  0
  -28.1400   14.1800  -17.2800 N   0  0  0  0  0  0  0  0  0  0  0  0
  -27.5570   13.6730  -16.6690 H   0  0  0  0  0  0  0  0  0  0  0  0
  -27.6020   15.1700  -18.2740 C   0  0  0  0  0  0  0  0  0  0  0  0
  -27.1260   14.3730  -19.4910 C   0  0  0  0  0  0  0  0  0  0  0  0
  -28.2580   12.5870  -20.8270 C   0  0  0  0  0  0  0  0  0  0  0  0
  -29.3530   12.0870  -21.5070 C   0  0  0  0  0  0  0  0  0  0  0  0
  -30.5100   12.8460  -21.6080 C   0  0  0  0  0  0  0  0  0  0  0  0
  -30.5670   14.1020  -21.0190 C   0  0  0  0  0  0  0  0  0  0  0  0
  -29.4720   14.5940  -20.3350 C   0  0  0  0  0  0  0  0  0  0  0  0
  -28.3200   13.8350  -20.2370 C   0  0  0  0  0  0  0  0  0  0  0  0
  -31.5860   12.3610  -22.2810 O   0  0  0  0  0  0  0  0  0  0  0  0
  -31.4670   11.9200  -23.0990 H   0  0  0  0  0  0  0  0  0  0  0  0
  1 15  1  0  0  0  0
  2  1  2  0  0  0  0
  3  2  1  0  0  0  0
  3  4  2  0  0  0  0
  5  4  1  0  0  0  0
  5  9  1  0  0  0  0
  6  5  2  0  0  0  0
  7 12  1  6  0  0  0
  7  8  1  0  0  0  0
  7  6  1  0  0  0  0
  8  3  1  0  0  0  0
  9 10  2  0  0  0  0
  9 11  1  0  0  0  0
 12 13  1  0  0  0  0
 14 12  2  0  0  0  0
 15 16  1  0  0  0  0
 17 15  1  0  0  0  0
 18 17  1  0  0  0  0
 19 24  2  0  0  0  0
 20 19  1  0  0  0  0
 21 20  2  0  0  0  0
 21 22  1  0  0  0  0
 22 23  2  0  0  0  0
 23 24  1  0  0  0  0
 24 18  1  0  0  0  0
 25 21  1  0  0  0  0
 26 25  1  0  0  0  0
M  END
>  <MODEL>
1

>  <REMARK>
 VINA RESULT:      -5.6      0.000      0.000
  Name = ZINC06535546
                            x       y       z     vdW  Elec       q    Type
                         _______ _______ _______ _____ _____    ______ ____

>  <TORSDO>
F 8

>  <vina_score>
-5.6

$$$$
ZINC31852179
 OpenBabel01081721533D

 26 28  0  0  0  0  0  0  0  0999 V2000
  -29.0670   13.0660  -17.7680 C   0  0  0  0  0  0  0  0  0  0  0  0
  -28.5780   13.8370  -16.9700 O   0  0  0  0  0  0  0  0  0  0  0  0
  -32.5510   12.4290  -16.8530 C   0  0  0  0  0  0  0  0  0  0  0  0
  -31.3670   13.0590  -16.6110 C   0  0  0  0  0  0  0  0  0  0  0  0
  -30.4640   12.6450  -17.6200 C   0  0  0  0  0  0  0  0  0  0  0  0
  -31.1550   11.7720  -18.4470 C   0  0  0  0  0  0  0  0  0  0  0  0
  -32.4030   11.6430  -17.9750 N   0  0  0  0  0  0  0  0  0  0  0  0
  -33.4490   10.8030  -18.5650 C   0  0  0  0  0  0  0  0  0  0  0  0
  -35.1800   11.9150  -14.1710 C   0  0  0  0  0  0  0  0  0  0  0  0
  -34.0070   11.7210  -15.0270 N   0  0  0  0  0  0  0  0  0  0  0  0
  -33.3860   10.9760  -14.8530 H   0  0  0  0  0  0  0  0  0  0  0  0
  -33.7750   12.5640  -16.0530 C   0  0  0  0  0  0  0  0  0  0  0  0
  -34.5810   13.4350  -16.3180 O   0  0  0  0  0  0  0  0  0  0  0  0
  -28.2400   12.5420  -18.9140 C   0  0  0  0  0  0  0  0  0  0  0  0
  -28.3980   13.6590  -20.3330 S   0  0  0  0  0  0  0  0  0  0  0  0
  -29.9650   13.2500  -21.0250 C   0  0  0  0  0  0  0  0  0  0  0  0
  -30.1970   12.3050  -21.9050 N   0  0  0  0  0  0  0  0  0  0  0  0
  -31.5670   12.3120  -22.1970 N   0  0  0  0  0  0  0  0  0  0  0  0
  -32.1280   13.2570  -21.4840 C   0  0  0  0  0  0  0  0  0  0  0  0
  -31.1540   13.8600  -20.7380 N   0  0  0  0  0  0  0  0  0  0  0  0
  -33.4770   13.5890  -21.4840 N   0  0  0  0  0  0  0  0  0  0  0  0
  -33.8510   14.1310  -22.2140 H   0  0  0  0  0  0  0  0  0  0  0  0
  -34.0590   13.2810  -20.7510 H   0  0  0  0  0  0  0  0  0  0  0  0
  -31.3490   14.9690  -19.8010 C   0  0  0  0  0  0  0  0  0  0  0  0
  -30.4730   16.2100  -19.9830 C   0  0  0  0  0  0  0  0  0  0  0  0
  -31.9570   16.2600  -20.3510 C   0  0  0  0  0  0  0  0  0  0  0  0
  1  5  1  0  0  0  0
  1  2  2  0  0  0  0
  3  4  2  0  0  0  0
  3 12  1  0  0  0  0
  5  4  1  0  0  0  0
  6  7  1  0  0  0  0
  6  5  2  0  0  0  0
  7  3  1  0  0  0  0
  8  7  1  0  0  0  0
 10 11  1  0  0  0  0
 10  9  1  0  0  0  0
 12 10  1  0  0  0  0
 13 12  2  0  0  0  0
 14  1  1  0  0  0  0
 15 14  1  0  0  0  0
 16 20  1  0  0  0  0
 16 15  1  0  0  0  0
 17 16  2  0  0  0  0
 18 17  1  0  0  0  0
 18 19  2  0  0  0  0
 19 20  1  0  0  0  0
 20 24  1  0  0  0  0
 21 19  1  0  0  0  0
 21 23  1  0  0  0  0
 22 21  1  0  0  0  0
 25 24  1  0  0  0  0
 26 25  1  0  0  0  0
 26 24  1  0  0  0  0
M  END
>  <MODEL>
1

>  <REMARK>
 VINA RESULT:      -5.6      0.000      0.000
  Name = ZINC31852179
                            x       y       z     vdW  Elec       q    Type
                         _______ _______ _______ _____ _____    ______ ____

>  <TORSDO>
F 7

>  <vina_score>
-5.6

$$$$
ZINC22063500
 OpenBabel01081721553D

 30 31  0  0  1  0  0  0  0  0999 V2000
  -28.1120   12.6790  -19.8750 C   0  0  0  0  0  0  0  0  0  0  0  0
  -27.6300   13.0010  -21.1520 C   0  0  0  0  0  0  0  0  0  0  0  0
  -28.3660   12.6010  -22.2510 C   0  0  0  0  0  0  0  0  0  0  0  0
  -29.5510   11.9120  -22.0590 C   0  0  0  0  0  0  0  0  0  0  0  0
  -29.9840   11.6260  -20.8460 N   0  0  0  0  0  0  0  0  0  0  0  0
  -29.3180   11.9790  -19.7670 C   0  0  0  0  0  0  0  0  0  0  0  0
  -31.2450   10.8940  -20.6960 C   0  0  2  0  0  0  0  0  0  0  0  0
  -32.3210   11.5480  -21.5670 C   0  0  2  0  0  0  0  0  0  0  0  0
  -32.5570   12.9830  -21.0840 C   0  0  2  0  0  0  0  0  0  0  0  0
  -32.9450   12.9540  -19.6020 C   0  0  1  0  0  0  0  0  0  0  0  0
  -31.8440   12.2470  -18.8080 C   0  0  2  0  0  0  0  0  0  0  0  0
  -31.6560   10.9290  -19.3270 O   0  0  0  0  0  0  0  0  0  0  0  0
  -32.2470   12.1620  -17.3580 C   0  0  0  0  0  0  0  0  0  0  0  0
  -33.3540   12.7890  -16.9310 O   0  0  0  0  0  0  0  0  0  0  0  0
  -31.5740   11.5280  -16.5800 O   0  0  0  0  0  0  0  0  0  0  0  0
  -33.5370   10.8040  -21.4620 O   0  0  0  0  0  0  0  0  0  0  0  0
  -33.3520    9.9370  -21.0690 H   0  0  0  0  0  0  0  0  0  0  0  0
  -33.6110   13.5760  -21.8440 O   0  0  0  0  0  0  0  0  0  0  0  0
  -34.2120   14.0490  -21.2490 H   0  0  0  0  0  0  0  0  0  0  0  0
  -33.0960   14.2920  -19.1230 O   0  0  0  0  0  0  0  0  0  0  0  0
  -32.2700   14.7820  -19.2650 H   0  0  0  0  0  0  0  0  0  0  0  0
  -27.3660   13.0740  -18.6700 C   0  0  0  0  0  0  0  0  0  0  0  0
  -26.1580   13.1550  -18.7030 O   0  0  0  0  0  0  0  0  0  0  0  0
  -28.1060   13.3780  -17.3920 C   0  0  0  0  0  0  0  0  0  0  0  0
  -28.4660   14.8630  -17.3510 C   0  0  0  0  0  0  0  0  0  0  0  0
  -29.8780   15.0620  -17.9060 C   0  0  0  0  0  0  0  0  0  0  0  0
  -28.5740   16.3730  -19.6430 C   0  0  0  0  0  0  0  0  0  0  0  0
  -29.8000   15.6880  -19.2280 N   0  0  0  0  0  0  0  0  0  0  0  0
  -30.8120   15.6370  -20.0260 N   0  0  0  0  0  0  0  0  0  0  0  0
  -31.5290   16.6120  -20.1630 O   0  0  0  0  0  0  0  0  0  0  0  0
  1  6  2  0  0  0  0
  1 22  1  0  0  0  0
  2  1  1  0  0  0  0
  3  4  2  0  0  0  0
  3  2  1  0  0  0  0
  4  5  1  0  0  0  0
  5  6  1  0  0  0  0
  7  5  1  1  0  0  0
  7 12  1  0  0  0  0
  8 16  1  1  0  0  0
  8  9  1  0  0  0  0
  8  7  1  0  0  0  0
  9 18  1  6  0  0  0
  9 10  1  0  0  0  0
 10 20  1  1  0  0  0
 10 11  1  0  0  0  0
 11 13  1  1  0  0  0
 12 11  1  0  0  0  0
 13 14  2  0  0  0  0
 13 15  1  0  0  0  0
 16 17  1  0  0  0  0
 18 19  1  0  0  0  0
 21 20  1  0  0  0  0
 22 24  1  0  0  0  0
 23 22  2  0  0  0  0
 24 25  1  0  0  0  0
 26 25  1  0  0  0  0
 27 28  1  0  0  0  0
 28 26  1  0  0  0  0
 29 28  1  0  0  0  0
 30 29  2  0  0  0  0
M  END
>  <MODEL>
1

>  <REMARK>
 VINA RESULT:      -5.6      0.000      0.000
  Name = ZINC22063500
                            x       y       z     vdW  Elec       q    Type
                         _______ _______ _______ _____ _____    ______ ____

>  <TORSDO>
F 11

>  <vina_score>
-5.6

$$$$
ZINC20185343
 OpenBabel01081721553D

 21 22  0  0  1  0  0  0  0  0999 V2000
  -31.5800   12.8690  -18.4370 C   0  0  0  0  0  0  0  0  0  0  0  0
  -32.2490   13.2990  -17.3840 N   0  0  0  0  0  0  0  0  0  0  0  0
  -33.0650   12.5000  -16.7210 C   0  0  0  0  0  0  0  0  0  0  0  0
  -33.1960   11.2190  -17.1390 C   0  0  0  0  0  0  0  0  0  0  0  0
  -32.0920   11.2130  -18.5440 S   0  0  0  0  0  0  0  0  0  0  0  0
  -30.6930   13.5600  -19.2470 N   0  0  0  0  0  0  0  0  0  0  0  0
  -29.4860   12.8960  -19.7460 C   0  0  1  0  0  0  0  0  0  0  0  0
  -29.5820   12.7410  -21.2720 C   0  0  0  0  0  0  0  0  0  0  0  0
  -28.1810   12.3300  -21.8070 C   0  0  0  0  0  0  0  0  0  0  0  0
  -27.0980   13.4080  -20.7770 S   0  0  0  0  0  0  0  0  0  0  0  0
  -26.0000   12.6410  -20.3010 O   0  0  0  0  0  0  0  0  0  0  0  0
  -26.8540   14.6200  -21.4770 O   0  0  0  0  0  0  0  0  0  0  0  0
  -28.2440   13.7450  -19.3790 C   0  0  0  0  0  0  0  0  0  0  0  0
  -32.2990   15.0400  -20.3490 C   0  0  0  0  0  0  0  0  0  0  0  0
  -30.9640   14.9540  -19.6070 C   0  0  0  0  0  0  0  0  0  0  0  0
  -33.8280   13.0030  -15.5230 C   0  0  0  0  0  0  0  0  0  0  0  0
  -34.6140   11.8470  -14.8980 C   0  0  0  0  0  0  0  0  0  0  0  0
  -35.3700   12.3400  -13.7380 N   0  0  0  0  0  0  0  0  0  0  0  0
  -36.3570   12.4150  -13.9840 H   0  0  0  0  0  0  0  0  0  0  0  0
  -35.2600   11.6900  -12.9610 H   0  0  0  0  0  0  0  0  0  0  0  0
  -35.0160   13.2580  -13.4660 H   0  0  0  0  0  0  0  0  0  0  0  0
  1  2  2  0  0  0  0
  2  3  1  0  0  0  0
  3 16  1  0  0  0  0
  4  3  2  0  0  0  0
  5  1  1  0  0  0  0
  5  4  1  0  0  0  0
  6  1  1  0  0  0  0
  7 13  1  0  0  0  0
  7  6  1  6  0  0  0
  8  7  1  0  0  0  0
  9  8  1  0  0  0  0
  9 10  1  0  0  0  0
 10 11  2  0  0  0  0
 10 13  1  0  0  0  0
 12 10  2  0  0  0  0
 14 15  1  0  0  0  0
 15  6  1  0  0  0  0
 16 17  1  0  0  0  0
 17 18  1  0  0  0  0
 18 21  1  0  0  0  0
 18 20  1  0  0  0  0
 19 18  1  0  0  0  0
M  END
>  <MODEL>
1

>  <REMARK>
 VINA RESULT:      -5.6      0.000      0.000
  Name = ZINC20185343
                            x       y       z     vdW  Elec       q    Type
                         _______ _______ _______ _____ _____    ______ ____

>  <TORSDO>
F 6

>  <vina_score>
-5.6

$$$$
ZINC00016244
 OpenBabel01081721583D

 28 29  0  0  1  0  0  0  0  0999 V2000
  -31.3320   14.1170  -20.3030 C   0  0  2  0  0  0  0  0  0  0  0  0
  -31.9400   13.4950  -19.0720 C   0  0  0  0  0  0  0  0  0  0  0  0
  -33.2090   12.9510  -19.1290 C   0  0  0  0  0  0  0  0  0  0  0  0
  -33.7670   12.3750  -18.0050 C   0  0  0  0  0  0  0  0  0  0  0  0
  -33.0560   12.3550  -16.8120 C   0  0  0  0  0  0  0  0  0  0  0  0
  -31.7830   12.9070  -16.7550 C   0  0  0  0  0  0  0  0  0  0  0  0
  -31.2290   13.4760  -17.8860 C   0  0  0  0  0  0  0  0  0  0  0  0
  -33.6190   11.7780  -15.6710 N   0  0  0  0  0  0  0  0  0  0  0  0
  -33.3890   10.8530  -15.4220 H   0  0  0  0  0  0  0  0  0  0  0  0
  -34.6740   12.6490  -14.7370 S   0  0  0  0  0  0  0  0  0  0  0  0
  -35.6630   11.4030  -13.8660 C   0  0  0  0  0  0  0  0  0  0  0  0
  -35.4840   13.3530  -15.6670 O   0  0  0  0  0  0  0  0  0  0  0  0
  -33.8490   13.3510  -13.8170 O   0  0  0  0  0  0  0  0  0  0  0  0
  -32.0950   15.2640  -20.6830 O   0  0  0  0  0  0  0  0  0  0  0  0
  -32.0460   15.9310  -19.9820 H   0  0  0  0  0  0  0  0  0  0  0  0
  -31.3380   13.0980  -21.4440 C   0  0  0  0  0  0  0  0  0  0  0  0
  -30.1570   10.8580  -21.6040 C   0  0  0  0  0  0  0  0  0  0  0  0
  -30.1060   12.3080  -21.3990 N   0  0  0  0  0  0  0  0  0  0  0  0
  -28.8870   12.9330  -21.1640 C   0  0  0  0  0  0  0  0  0  0  0  0
  -28.4280   13.7720  -22.1400 N   0  0  0  0  0  0  0  0  0  0  0  0
  -28.9300   13.9300  -22.9720 H   0  0  0  0  0  0  0  0  0  0  0  0
  -27.2320   14.3750  -21.8930 C   0  0  0  0  0  0  0  0  0  0  0  0
  -26.4970   14.1820  -20.7450 C   0  0  0  0  0  0  0  0  0  0  0  0
  -26.9850   13.3200  -19.7590 C   0  0  2  0  0  0  0  0  0  0  0  0
  -28.2070   12.6910  -19.9770 C   0  0  0  0  0  0  0  0  0  0  0  0
  -26.2700   13.1000  -18.5850 N   0  0  0  0  0  0  0  0  0  0  0  0
  -25.8790   13.8610  -18.0980 H   0  0  0  0  0  0  0  0  0  0  0  0
  -26.1560   12.1850  -18.2430 H   0  0  0  0  0  0  0  0  0  0  0  0
  1 16  1  6  0  0  0
  1  2  1  0  0  0  0
  2  7  1  0  0  0  0
  3  2  2  0  0  0  0
  3  4  1  0  0  0  0
  4  5  2  0  0  0  0
  5  6  1  0  0  0  0
  5  8  1  0  0  0  0
  7  6  2  0  0  0  0
  8  9  1  0  0  0  0
  8 10  1  0  0  0  0
 10 11  1  0  0  0  0
 10 13  2  0  0  0  0
 12 10  2  0  0  0  0
 14  1  1  0  0  0  0
 14 15  1  0  0  0  0
 16 18  1  0  0  0  0
 17 18  1  0  0  0  0
 18 19  1  0  0  0  0
 19 25  2  0  0  0  0
 20 22  1  0  0  0  0
 20 19  1  0  0  0  0
 21 20  1  0  0  0  0
 22 23  2  0  0  0  0
 23 24  1  0  0  0  0
 24 26  1  1  0  0  0
 25 24  1  0  0  0  0
 26 28  1  0  0  0  0
 26 27  1  0  0  0  0
M  END
>  <MODEL>
1

>  <REMARK>
 VINA RESULT:      -5.6      0.000      0.000
  Name = ZINC00016244
                            x       y       z     vdW  Elec       q    Type
                         _______ _______ _______ _____ _____    ______ ____

>  <TORSDO>
F 8

>  <vina_score>
-5.6

$$$$
ZINC10315608
 OpenBabel01081722023D

 26 27  0  0  0  0  0  0  0  0999 V2000
  -27.1520   14.8450  -19.7230 N   0  0  0  0  0  0  0  0  0  0  0  0
  -28.1130   15.1210  -19.9240 H   0  0  0  0  0  0  0  0  0  0  0  0
  -26.5650   15.6730  -19.6220 H   0  0  0  0  0  0  0  0  0  0  0  0
  -27.1270   14.0760  -18.4640 C   0  0  0  0  0  0  0  0  0  0  0  0
  -28.8250   12.2660  -18.1420 C   0  0  0  0  0  0  0  0  0  0  0  0
  -30.1010   11.8370  -17.8400 C   0  0  0  0  0  0  0  0  0  0  0  0
  -31.0940   12.7720  -17.5410 C   0  0  0  0  0  0  0  0  0  0  0  0
  -30.7870   14.1340  -17.5470 C   0  0  0  0  0  0  0  0  0  0  0  0
  -29.5050   14.5470  -17.8440 C   0  0  0  0  0  0  0  0  0  0  0  0
  -28.5250   13.6160  -18.1390 C   0  0  0  0  0  0  0  0  0  0  0  0
  -32.4640   12.3220  -17.2230 C   0  0  0  0  0  0  0  0  0  0  0  0
  -32.8440   11.0610  -17.5100 O   0  0  0  0  0  0  0  0  0  0  0  0
  -33.2500   13.0880  -16.7020 O   0  0  0  0  0  0  0  0  0  0  0  0
  -26.6450   14.0210  -20.8370 C   0  0  0  0  0  0  0  0  0  0  0  0
  -27.7720   13.8000  -21.8480 C   0  0  0  0  0  0  0  0  0  0  0  0
  -28.3170   12.4500  -21.6840 N   0  0  0  0  0  0  0  0  0  0  0  0
  -27.7200   11.6690  -21.7370 H   0  0  0  0  0  0  0  0  0  0  0  0
  -29.6840   12.2710  -21.4560 C   0  0  0  0  0  0  0  0  0  0  0  0
  -30.2280   10.9930  -21.4570 C   0  0  0  0  0  0  0  0  0  0  0  0
  -31.5780   10.8190  -21.2270 C   0  0  0  0  0  0  0  0  0  0  0  0
  -32.3900   11.9150  -21.0050 C   0  0  0  0  0  0  0  0  0  0  0  0
  -31.8520   13.1900  -21.0070 C   0  0  0  0  0  0  0  0  0  0  0  0
  -30.5020   13.3710  -21.2330 C   0  0  0  0  0  0  0  0  0  0  0  0
  -33.8370   11.7250  -20.7630 N   0  0  0  0  0  0  0  0  0  0  0  0
  -34.4380   12.4910  -20.0310 O   0  0  0  0  0  0  0  0  0  0  0  0
  -34.4290   10.8040  -21.2970 O   0  0  0  0  0  0  0  0  0  0  0  0
  1  3  1  0  0  0  0
  1  4  1  0  0  0  0
  2  1  1  0  0  0  0
  4 10  1  0  0  0  0
  5 10  2  0  0  0  0
  5  6  1  0  0  0  0
  6  7  2  0  0  0  0
  7 11  1  0  0  0  0
  8  7  1  0  0  0  0
  9  8  2  0  0  0  0
 10  9  1  0  0  0  0
 11 13  1  0  0  0  0
 12 11  2  0  0  0  0
 14  1  1  0  0  0  0
 15 16  1  0  0  0  0
 15 14  1  0  0  0  0
 16 18  1  0  0  0  0
 17 16  1  0  0  0  0
 18 23  1  0  0  0  0
 19 18  2  0  0  0  0
 19 20  1  0  0  0  0
 20 21  2  0  0  0  0
 21 24  1  0  0  0  0
 22 21  1  0  0  0  0
 23 22  2  0  0  0  0
 24 25  2  0  0  0  0
 26 24  2  0  0  0  0
M  END
>  <MODEL>
1

>  <REMARK>
 VINA RESULT:      -5.6      0.000      0.000
  Name = ZINC10315608
                            x       y       z     vdW  Elec       q    Type
                         _______ _______ _______ _____ _____    ______ ____

>  <TORSDO>
F 8

>  <vina_score>
-5.6

$$$$
ZINC05258154
 OpenBabel01081721373D

 25 25  0  0  1  0  0  0  0  0999 V2000
  -27.8420   13.5630  -18.7440 C   0  0  0  0  0  0  0  0  0  0  0  0
  -30.2740   13.8780  -18.4300 N   0  0  0  0  0  0  0  0  0  0  0  0
  -30.1380   14.8430  -18.5720 H   0  0  0  0  0  0  0  0  0  0  0  0
  -29.2180   13.0420  -18.4200 C   0  0  0  0  0  0  0  0  0  0  0  0
  -29.3750   11.8700  -18.1500 O   0  0  0  0  0  0  0  0  0  0  0  0
  -34.4460   12.0910  -20.3220 C   0  0  0  0  0  0  0  0  0  0  0  0
  -33.6100   12.5030  -19.1380 C   0  0  0  0  0  0  0  0  0  0  0  0
  -34.1210   12.3850  -17.8570 C   0  0  0  0  0  0  0  0  0  0  0  0
  -33.3570   12.7620  -16.7670 C   0  0  0  0  0  0  0  0  0  0  0  0
  -33.9180   12.6320  -15.3740 C   0  0  0  0  0  0  0  0  0  0  0  0
  -32.0820   13.2570  -16.9550 C   0  0  0  0  0  0  0  0  0  0  0  0
  -31.5660   13.3760  -18.2390 C   0  0  0  0  0  0  0  0  0  0  0  0
  -32.3370   13.0020  -19.3300 C   0  0  0  0  0  0  0  0  0  0  0  0
  -27.6250   13.5290  -20.2580 C   0  0  2  0  0  0  0  0  0  0  0  0
  -28.1520   12.2590  -20.7940 N   0  0  0  0  0  0  0  0  0  0  0  0
  -27.4150   11.5550  -20.7640 H   0  0  0  0  0  0  0  0  0  0  0  0
  -28.9460   11.9590  -20.2270 H   0  0  0  0  0  0  0  0  0  0  0  0
  -28.5900   12.4360  -22.1910 C   0  0  0  0  0  0  0  0  0  0  0  0
  -29.9950   11.8530  -22.3540 C   0  0  1  0  0  0  0  0  0  0  0  0
  -30.2530   10.8250  -21.2510 C   0  0  0  0  0  0  0  0  0  0  0  0
  -30.9600   12.9030  -22.2610 O   0  0  0  0  0  0  0  0  0  0  0  0
  -31.1650   13.0720  -21.3280 H   0  0  0  0  0  0  0  0  0  0  0  0
  -26.1520   13.6280  -20.5570 C   0  0  0  0  0  0  0  0  0  0  0  0
  -25.3670   12.5480  -20.4270 O   0  0  0  0  0  0  0  0  0  0  0  0
  -25.6760   14.6810  -20.9140 O   0  0  0  0  0  0  0  0  0  0  0  0
  1  4  1  0  0  0  0
  2  4  1  0  0  0  0
  2 12  1  0  0  0  0
  3  2  1  0  0  0  0
  4  5  2  0  0  0  0
  6  7  1  0  0  0  0
  7  8  1  0  0  0  0
  8  9  2  0  0  0  0
  9 10  1  0  0  0  0
 11  9  1  0  0  0  0
 12 11  2  0  0  0  0
 13  7  2  0  0  0  0
 13 12  1  0  0  0  0
 14 15  1  1  0  0  0
 14  1  1  0  0  0  0
 15 16  1  0  0  0  0
 15 17  1  0  0  0  0
 18 15  1  0  0  0  0
 19 21  1  1  0  0  0
 19 18  1  0  0  0  0
 19 20  1  0  0  0  0
 21 22  1  0  0  0  0
 23 24  1  0  0  0  0
 23 14  1  0  0  0  0
 25 23  2  0  0  0  0
M  END
>  <MODEL>
1

>  <REMARK>
 VINA RESULT:      -5.6      0.000      0.000
  Name = ZINC05258154
                            x       y       z     vdW  Elec       q    Type
                         _______ _______ _______ _____ _____    ______ ____

>  <TORSDO>
F 8

>  <vina_score>
-5.6

$$$$
ZINC20306535
 OpenBabel01081721373D

 21 21  0  0  1  0  0  0  0  0999 V2000
  -31.4760   12.6650  -17.2220 C   0  0  0  0  0  0  0  0  0  0  0  0
  -28.6070   13.4810  -20.2860 C   0  0  0  0  0  0  0  0  0  0  0  0
  -29.0580   14.5090  -19.4550 C   0  0  0  0  0  0  0  0  0  0  0  0
  -29.9840   14.2390  -18.4690 C   0  0  0  0  0  0  0  0  0  0  0  0
  -30.4650   12.9520  -18.3010 C   0  0  0  0  0  0  0  0  0  0  0  0
  -30.0180   11.9280  -19.1170 C   0  0  0  0  0  0  0  0  0  0  0  0
  -29.0970   12.1850  -20.1110 C   0  0  0  0  0  0  0  0  0  0  0  0
  -27.6170   13.7630  -21.3440 C   0  0  0  0  0  0  0  0  0  0  0  0
  -27.9390   13.6920  -22.5130 O   0  0  0  0  0  0  0  0  0  0  0  0
  -25.5500   13.0820  -20.3620 C   0  0  0  0  0  0  0  0  0  0  0  0
  -26.3540   14.1000  -21.0140 O   0  0  0  0  0  0  0  0  0  0  0  0
  -32.8480   11.7040  -17.9170 S   0  0  0  0  0  0  0  0  0  0  0  0
  -33.6810   12.8690  -19.0300 C   0  0  0  0  0  0  0  0  0  0  0  0
  -33.5810   12.3600  -20.4690 C   0  0  2  0  0  0  0  0  0  0  0  0
  -33.1410   10.9600  -20.4640 N   0  0  0  0  0  0  0  0  0  0  0  0
  -32.5690   10.7800  -21.2900 H   0  0  0  0  0  0  0  0  0  0  0  0
  -32.5890   10.7790  -19.6250 H   0  0  0  0  0  0  0  0  0  0  0  0
  -33.9550   10.3470  -20.4750 H   0  0  0  0  0  0  0  0  0  0  0  0
  -32.5860   13.1980  -21.2300 C   0  0  0  0  0  0  0  0  0  0  0  0
  -31.8490   12.6430  -22.2050 O   0  0  0  0  0  0  0  0  0  0  0  0
  -32.4530   14.3690  -20.9620 O   0  0  0  0  0  0  0  0  0  0  0  0
  2  7  2  0  0  0  0
  2  3  1  0  0  0  0
  3  4  2  0  0  0  0
  4  5  1  0  0  0  0
  5  1  1  0  0  0  0
  6  5  2  0  0  0  0
  7  6  1  0  0  0  0
  8 11  1  0  0  0  0
  8  2  1  0  0  0  0
  9  8  2  0  0  0  0
 11 10  1  0  0  0  0
 12  1  1  0  0  0  0
 13 12  1  0  0  0  0
 14 19  1  6  0  0  0
 14 15  1  0  0  0  0
 14 13  1  0  0  0  0
 15 17  1  0  0  0  0
 16 15  1  0  0  0  0
 18 15  1  0  0  0  0
 19 21  1  0  0  0  0
 20 19  2  0  0  0  0
M  END
>  <MODEL>
1

>  <REMARK>
 VINA RESULT:      -5.6      0.000      0.000
  Name = ZINC20306535
                            x       y       z     vdW  Elec       q    Type
                         _______ _______ _______ _____ _____    ______ ____

>  <TORSDO>
F 8

>  <vina_score>
-5.6

$$$$
ZINC17669880
 OpenBabel01081721383D

 25 26  0  0  0  0  0  0  0  0999 V2000
  -30.1090   12.4860  -21.5400 C   0  0  0  0  0  0  0  0  0  0  0  0
  -29.0310   13.2100  -20.7750 C   0  0  0  0  0  0  0  0  0  0  0  0
  -29.3080   14.3460  -20.1600 N   0  0  0  0  0  0  0  0  0  0  0  0
  -28.3600   14.9860  -19.4810 C   0  0  0  0  0  0  0  0  0  0  0  0
  -27.1300   14.4860  -19.4290 N   0  0  0  0  0  0  0  0  0  0  0  0
  -26.8530   13.3470  -20.0520 C   0  0  0  0  0  0  0  0  0  0  0  0
  -27.8080   12.7100  -20.7260 N   0  0  0  0  0  0  0  0  0  0  0  0
  -28.6520   16.1700  -18.8350 N   0  0  0  0  0  0  0  0  0  0  0  0
  -27.9250   16.7780  -18.5680 H   0  0  0  0  0  0  0  0  0  0  0  0
  -29.5880   16.4050  -18.6390 H   0  0  0  0  0  0  0  0  0  0  0  0
  -25.5770   12.8230  -20.0020 N   0  0  0  0  0  0  0  0  0  0  0  0
  -25.2920   12.2950  -19.2220 H   0  0  0  0  0  0  0  0  0  0  0  0
  -24.9530   12.9760  -20.7480 H   0  0  0  0  0  0  0  0  0  0  0  0
  -30.4490   10.8960  -20.7430 S   0  0  0  0  0  0  0  0  0  0  0  0
  -31.5520   11.6630  -17.0630 C   0  0  0  0  0  0  0  0  0  0  0  0
  -32.7990   12.2770  -17.2240 C   0  0  0  0  0  0  0  0  0  0  0  0
  -33.2940   12.4470  -18.5360 C   0  0  0  0  0  0  0  0  0  0  0  0
  -32.5590   12.0210  -19.5570 N   0  0  0  0  0  0  0  0  0  0  0  0
  -31.3840   11.4450  -19.3530 C   0  0  0  0  0  0  0  0  0  0  0  0
  -30.8870   11.2690  -18.1340 N   0  0  0  0  0  0  0  0  0  0  0  0
  -34.5160   13.0470  -18.7530 N   0  0  0  0  0  0  0  0  0  0  0  0
  -34.7660   13.3440  -19.6580 H   0  0  0  0  0  0  0  0  0  0  0  0
  -35.1410   13.1790  -18.0020 H   0  0  0  0  0  0  0  0  0  0  0  0
  -33.5520   12.7200  -16.0910 C   0  0  0  0  0  0  0  0  0  0  0  0
  -34.1500   13.0720  -15.1910 N   0  0  0  0  0  0  0  0  0  0  0  0
  1  2  1  0  0  0  0
  1 14  1  0  0  0  0
  2  7  2  0  0  0  0
  2  3  1  0  0  0  0
  3  4  2  0  0  0  0
  4  5  1  0  0  0  0
  4  8  1  0  0  0  0
  6 11  1  0  0  0  0
  6  5  2  0  0  0  0
  7  6  1  0  0  0  0
  8 10  1  0  0  0  0
  8  9  1  0  0  0  0
 11 12  1  0  0  0  0
 13 11  1  0  0  0  0
 14 19  1  0  0  0  0
 16 15  1  0  0  0  0
 16 24  1  0  0  0  0
 17 16  2  0  0  0  0
 18 19  2  0  0  0  0
 18 17  1  0  0  0  0
 19 20  1  0  0  0  0
 20 15  2  0  0  0  0
 21 17  1  0  0  0  0
 21 23  1  0  0  0  0
 22 21  1  0  0  0  0
 24 25  3  0  0  0  0
M  END
>  <MODEL>
1

>  <REMARK>
 VINA RESULT:      -5.6      0.000      0.000
  Name = ZINC17669880
                            x       y       z     vdW  Elec       q    Type
                         _______ _______ _______ _____ _____    ______ ____

>  <TORSDO>
F 7

>  <vina_score>
-5.6

$$$$
ZINC20261639
 OpenBabel01081721353D

 20 20  0  0  0  0  0  0  0  0999 V2000
  -31.9360   13.0430  -19.8100 N   0  0  0  0  0  0  0  0  0  0  0  0
  -32.3980   12.5400  -18.5150 C   0  0  0  0  0  0  0  0  0  0  0  0
  -29.9780   14.4650  -19.7420 C   0  0  0  0  0  0  0  0  0  0  0  0
  -29.4090   15.7240  -19.8320 C   0  0  0  0  0  0  0  0  0  0  0  0
  -30.2040   16.8270  -20.0790 C   0  0  0  0  0  0  0  0  0  0  0  0
  -31.5700   16.6780  -20.2380 C   0  0  0  0  0  0  0  0  0  0  0  0
  -32.1460   15.4240  -20.1530 C   0  0  0  0  0  0  0  0  0  0  0  0
  -31.3540   14.3140  -19.9000 C   0  0  0  0  0  0  0  0  0  0  0  0
  -29.1960   13.3790  -19.5000 O   0  0  0  0  0  0  0  0  0  0  0  0
  -27.1800   13.5580  -18.1790 C   0  0  0  0  0  0  0  0  0  0  0  0
  -28.6760   13.2350  -18.1770 C   0  0  0  0  0  0  0  0  0  0  0  0
  -32.1020   12.1110  -21.1680 S   0  0  0  0  0  0  0  0  0  0  0  0
  -33.4070   11.5580  -21.0710 O   0  0  0  0  0  0  0  0  0  0  0  0
  -31.7580   12.9730  -22.2450 O   0  0  0  0  0  0  0  0  0  0  0  0
  -30.8560   10.8040  -20.9910 C   0  0  0  0  0  0  0  0  0  0  0  0
  -29.9410   10.8030  -22.2190 C   0  0  0  0  0  0  0  0  0  0  0  0
  -28.9620   11.8910  -22.1000 N   0  0  0  0  0  0  0  0  0  0  0  0
  -28.4530   11.7970  -21.2210 H   0  0  0  0  0  0  0  0  0  0  0  0
  -28.3040   11.8440  -22.8790 H   0  0  0  0  0  0  0  0  0  0  0  0
  -29.4460   12.7890  -22.1180 H   0  0  0  0  0  0  0  0  0  0  0  0
  1  2  1  0  0  0  0
  3  9  1  0  0  0  0
  4  3  1  0  0  0  0
  5  4  2  0  0  0  0
  6  7  2  0  0  0  0
  6  5  1  0  0  0  0
  7  8  1  0  0  0  0
  8  1  1  0  0  0  0
  8  3  2  0  0  0  0
  9 11  1  0  0  0  0
 10 11  1  0  0  0  0
 12 13  2  0  0  0  0
 12 15  1  0  0  0  0
 12  1  1  0  0  0  0
 14 12  2  0  0  0  0
 16 17  1  0  0  0  0
 16 15  1  0  0  0  0
 17 18  1  0  0  0  0
 19 17  1  0  0  0  0
 20 17  1  0  0  0  0
M  END
>  <MODEL>
1

>  <REMARK>
 VINA RESULT:      -5.6      0.000      0.000
  Name = ZINC20261639
                            x       y       z     vdW  Elec       q    Type
                         _______ _______ _______ _____ _____    ______ ____

>  <TORSDO>
F 7

>  <vina_score>
-5.6

$$$$
ZINC19751955
 OpenBabel01081721443D

 22 23  0  0  0  0  0  0  0  0999 V2000
  -32.7200   12.5910  -17.5790 C   0  0  0  0  0  0  0  0  0  0  0  0
  -31.5230   12.7210  -16.9060 C   0  0  0  0  0  0  0  0  0  0  0  0
  -30.3870   13.1680  -17.5890 C   0  0  0  0  0  0  0  0  0  0  0  0
  -30.4760   13.4780  -18.9560 C   0  0  0  0  0  0  0  0  0  0  0  0
  -29.2100   13.8820  -19.3370 N   0  0  0  0  0  0  0  0  0  0  0  0
  -28.4130   13.8110  -18.2360 C   0  0  0  0  0  0  0  0  0  0  0  0
  -31.6850   13.3420  -19.6230 C   0  0  0  0  0  0  0  0  0  0  0  0
  -29.1010   13.3930  -17.2130 N   0  0  0  0  0  0  0  0  0  0  0  0
  -32.8010   12.8960  -18.9400 C   0  0  0  0  0  0  0  0  0  0  0  0
  -34.0490   12.6900  -15.6100 C   0  0  0  0  0  0  0  0  0  0  0  0
  -33.8250   12.1570  -16.9170 O   0  0  0  0  0  0  0  0  0  0  0  0
  -33.9850   12.7580  -19.5950 O   0  0  0  0  0  0  0  0  0  0  0  0
  -34.1080   11.6490  -20.4890 C   0  0  0  0  0  0  0  0  0  0  0  0
  -28.8020   14.3080  -20.6780 C   0  0  0  0  0  0  0  0  0  0  0  0
  -28.3800   13.1050  -21.4810 C   0  0  0  0  0  0  0  0  0  0  0  0
  -29.2850   12.4340  -22.2110 O   0  0  0  0  0  0  0  0  0  0  0  0
  -27.2270   12.7440  -21.4680 O   0  0  0  0  0  0  0  0  0  0  0  0
  -26.9490   14.1630  -18.2050 C   0  0  0  0  0  0  0  0  0  0  0  0
  -26.1570   13.0120  -18.6570 N   0  0  0  0  0  0  0  0  0  0  0  0
  -25.4820   12.7590  -17.9350 H   0  0  0  0  0  0  0  0  0  0  0  0
  -26.7770   12.2220  -18.8350 H   0  0  0  0  0  0  0  0  0  0  0  0
  -25.6630   13.2560  -19.5150 H   0  0  0  0  0  0  0  0  0  0  0  0
  1 11  1  0  0  0  0
  1  2  1  0  0  0  0
  3  8  1  0  0  0  0
  3  2  2  0  0  0  0
  4  3  1  0  0  0  0
  5  4  1  0  0  0  0
  5  6  1  0  0  0  0
  6 18  1  0  0  0  0
  6  8  2  0  0  0  0
  7  4  2  0  0  0  0
  7  9  1  0  0  0  0
  9  1  2  0  0  0  0
 11 10  1  0  0  0  0
 12  9  1  0  0  0  0
 13 12  1  0  0  0  0
 14  5  1  0  0  0  0
 15 17  1  0  0  0  0
 15 14  1  0  0  0  0
 16 15  2  0  0  0  0
 19 18  1  0  0  0  0
 19 20  1  0  0  0  0
 21 19  1  0  0  0  0
 22 19  1  0  0  0  0
M  END
>  <MODEL>
1

>  <REMARK>
 VINA RESULT:      -5.6      0.000      0.000
  Name = ZINC19751955
                            x       y       z     vdW  Elec       q    Type
                         _______ _______ _______ _____ _____    ______ ____

>  <TORSDO>
F 6

>  <vina_score>
-5.6

$$$$
ZINC13282339
 OpenBabel01081721463D

 19 19  0  0  1  0  0  0  0  0999 V2000
  -32.3430   13.3360  -20.9440 C   0  0  2  0  0  0  0  0  0  0  0  0
  -32.8130   14.2100  -21.9730 O   0  0  0  0  0  0  0  0  0  0  0  0
  -32.8070   13.7400  -22.8220 H   0  0  0  0  0  0  0  0  0  0  0  0
  -31.9750   14.1560  -19.7060 C   0  0  0  0  0  0  0  0  0  0  0  0
  -32.7260   12.0110  -16.9070 C   0  0  0  0  0  0  0  0  0  0  0  0
  -33.1340   12.7100  -17.9830 C   0  0  0  0  0  0  0  0  0  0  0  0
  -32.0200   13.2970  -18.5210 N   0  0  0  0  0  0  0  0  0  0  0  0
  -30.9690   12.9310  -17.7560 C   0  0  0  0  0  0  0  0  0  0  0  0
  -31.3980   12.1660  -16.7910 N   0  0  0  0  0  0  0  0  0  0  0  0
  -29.5600   13.3330  -17.9770 N   0  0  0  0  0  0  0  0  0  0  0  0
  -28.6650   12.5190  -17.8360 O   0  0  0  0  0  0  0  0  0  0  0  0
  -29.2980   14.4780  -18.2990 O   0  0  0  0  0  0  0  0  0  0  0  0
  -31.1080   12.5800  -21.4410 C   0  0  0  0  0  0  0  0  0  0  0  0
  -29.9340   13.4700  -21.3660 N   0  0  0  0  0  0  0  0  0  0  0  0
  -29.9420   14.0980  -22.1680 H   0  0  0  0  0  0  0  0  0  0  0  0
  -29.9750   14.0080  -20.5000 H   0  0  0  0  0  0  0  0  0  0  0  0
  -28.6900   12.6780  -21.3880 C   0  0  0  0  0  0  0  0  0  0  0  0
  -27.4930   13.6270  -21.4770 C   0  0  0  0  0  0  0  0  0  0  0  0
  -26.0490   12.9730  -20.3150 Br  0  0  0  0  0  0  0  0  0  0  0  0
  1  2  1  6  0  0  0
  1  4  1  0  0  0  0
  3  2  1  0  0  0  0
  4  7  1  0  0  0  0
  5  9  1  0  0  0  0
  6  5  2  0  0  0  0
  7  6  1  0  0  0  0
  7  8  1  0  0  0  0
  8  9  2  0  0  0  0
 10 11  2  0  0  0  0
 10  8  1  0  0  0  0
 12 10  2  0  0  0  0
 13 14  1  0  0  0  0
 13  1  1  0  0  0  0
 14 16  1  0  0  0  0
 15 14  1  0  0  0  0
 17 14  1  0  0  0  0
 18 17  1  0  0  0  0
 18 19  1  0  0  0  0
M  END
>  <MODEL>
1

>  <REMARK>
 VINA RESULT:      -5.5      0.000      0.000
  Name = ZINC13282339
                            x       y       z     vdW  Elec       q    Type
                         _______ _______ _______ _____ _____    ______ ____

>  <TORSDO>
F 8

>  <vina_score>
-5.5

$$$$
ZINC31576049
 OpenBabel01081721543D

 29 30  0  0  1  0  0  0  0  0999 V2000
  -28.9400   14.7870  -18.2880 C   0  0  0  0  0  0  0  0  0  0  0  0
  -28.8760   13.7710  -17.3430 C   0  0  0  0  0  0  0  0  0  0  0  0
  -29.9800   12.9760  -17.1110 C   0  0  0  0  0  0  0  0  0  0  0  0
  -31.1470   13.1820  -17.8250 C   0  0  0  0  0  0  0  0  0  0  0  0
  -31.2140   14.1940  -18.7660 C   0  0  0  0  0  0  0  0  0  0  0  0
  -30.1140   14.9970  -18.9990 C   0  0  0  0  0  0  0  0  0  0  0  0
  -32.5520   12.1610  -17.5290 S   0  0  0  0  0  0  0  0  0  0  0  0
  -32.1680   11.2200  -16.5360 O   0  0  0  0  0  0  0  0  0  0  0  0
  -33.6600   13.0340  -17.3640 O   0  0  0  0  0  0  0  0  0  0  0  0
  -32.8300   11.2990  -18.9150 N   0  0  0  0  0  0  0  0  0  0  0  0
  -34.2010   11.0010  -19.3600 C   0  0  0  0  0  0  0  0  0  0  0  0
  -34.3270   11.4130  -20.8360 C   0  0  0  0  0  0  0  0  0  0  0  0
  -33.2710   10.8040  -21.5840 O   0  0  0  0  0  0  0  0  0  0  0  0
  -31.9610   11.2200  -21.1900 C   0  0  0  0  0  0  0  0  0  0  0  0
  -31.7140   10.8030  -19.7360 C   0  0  0  0  0  0  0  0  0  0  0  0
  -30.1890   16.0790  -20.0060 N   0  0  0  0  0  0  0  0  0  0  0  0
  -31.1470   16.8300  -20.0220 O   0  0  0  0  0  0  0  0  0  0  0  0
  -29.2920   16.2170  -20.8200 O   0  0  0  0  0  0  0  0  0  0  0  0
  -27.8260   15.5980  -18.5210 N   0  0  0  0  0  0  0  0  0  0  0  0
  -27.8030   16.5150  -18.1640 H   0  0  0  0  0  0  0  0  0  0  0  0
  -26.6960   15.0840  -19.2970 C   0  0  0  0  0  0  0  0  0  0  0  0
  -26.7410   13.5550  -19.3120 C   0  0  2  0  0  0  0  0  0  0  0  0
  -25.9130   13.0430  -18.2670 O   0  0  0  0  0  0  0  0  0  0  0  0
  -25.8590   13.6930  -17.5500 H   0  0  0  0  0  0  0  0  0  0  0  0
  -26.2340   13.0430  -20.6620 C   0  0  0  0  0  0  0  0  0  0  0  0
  -28.5330   12.2890  -20.7360 C   0  0  0  0  0  0  0  0  0  0  0  0
  -27.3780   12.7290  -21.5280 N   0  0  0  0  0  0  0  0  0  0  0  0
  -27.1070   11.9610  -22.1410 H   0  0  0  0  0  0  0  0  0  0  0  0
  -27.7280   13.8790  -22.3740 C   0  0  0  0  0  0  0  0  0  0  0  0
  1  2  2  0  0  0  0
  2  3  1  0  0  0  0
  4  7  1  0  0  0  0
  4  3  2  0  0  0  0
  5  4  1  0  0  0  0
  6  5  2  0  0  0  0
  6  1  1  0  0  0  0
  7  9  2  0  0  0  0
  7  8  2  0  0  0  0
 10  7  1  0  0  0  0
 11 10  1  0  0  0  0
 12 11  1  0  0  0  0
 13 14  1  0  0  0  0
 13 12  1  0  0  0  0
 14 15  1  0  0  0  0
 15 10  1  0  0  0  0
 16  6  1  0  0  0  0
 17 16  2  0  0  0  0
 18 16  2  0  0  0  0
 19  1  1  0  0  0  0
 19 20  1  0  0  0  0
 21 19  1  0  0  0  0
 22 25  1  6  0  0  0
 22 21  1  0  0  0  0
 22 23  1  0  0  0  0
 23 24  1  0  0  0  0
 27 26  1  0  0  0  0
 27 25  1  0  0  0  0
 28 27  1  0  0  0  0
 29 27  1  0  0  0  0
M  END
>  <MODEL>
1

>  <REMARK>
 VINA RESULT:      -5.5      0.000      0.000
  Name = ZINC31576049
                            x       y       z     vdW  Elec       q    Type
                         _______ _______ _______ _____ _____    ______ ____

>  <TORSDO>
F 9

>  <vina_score>
-5.5

$$$$
ZINC08615535
 OpenBabel01081721543D

 31 32  0  0  1  0  0  0  0  0999 V2000
  -28.7340   16.2840  -20.1910 C   0  0  0  0  0  0  0  0  0  0  0  0
  -28.4020   15.0240  -19.3900 C   0  0  0  0  0  0  0  0  0  0  0  0
  -28.9310   15.1630  -17.9610 C   0  0  0  0  0  0  0  0  0  0  0  0
  -26.9420   14.8180  -19.3630 N   0  0  0  0  0  0  0  0  0  0  0  0
  -26.4100   15.0070  -18.5580 H   0  0  0  0  0  0  0  0  0  0  0  0
  -26.3510   14.3420  -20.5270 C   0  0  1  0  0  0  0  0  0  0  0  0
  -25.2220   14.8940  -20.9440 N   0  0  0  0  0  0  0  0  0  0  0  0
  -24.7900   14.5700  -21.7670 H   0  0  0  0  0  0  0  0  0  0  0  0
  -24.8150   15.6300  -20.4310 H   0  0  0  0  0  0  0  0  0  0  0  0
  -27.0120   13.2980  -21.1740 N   0  0  0  0  0  0  0  0  0  0  0  0
  -26.5250   12.5520  -21.5910 H   0  0  0  0  0  0  0  0  0  0  0  0
  -28.4040   13.3770  -21.1940 C   0  0  1  0  0  0  0  0  0  0  0  0
  -29.1650   13.0400  -22.2240 N   0  0  0  0  0  0  0  0  0  0  0  0
  -30.1440   13.1230  -22.1600 H   0  0  0  0  0  0  0  0  0  0  0  0
  -28.7520   12.7050  -23.0530 H   0  0  0  0  0  0  0  0  0  0  0  0
  -29.0090   13.8460  -20.0360 N   0  0  0  0  0  0  0  0  0  0  0  0
  -30.1480   13.2260  -19.5040 C   0  0  0  0  0  0  0  0  0  0  0  0
  -30.0450   11.9760  -18.9080 C   0  0  0  0  0  0  0  0  0  0  0  0
  -31.1660   11.3690  -18.3780 C   0  0  0  0  0  0  0  0  0  0  0  0
  -32.4000   12.0030  -18.4540 C   0  0  0  0  0  0  0  0  0  0  0  0
  -32.5040   13.2500  -19.0540 C   0  0  0  0  0  0  0  0  0  0  0  0
  -31.3820   13.8600  -19.5780 C   0  0  0  0  0  0  0  0  0  0  0  0
  -33.5370   11.3840  -17.9240 N   0  0  0  0  0  0  0  0  0  0  0  0
  -34.5400   10.8040  -18.8200 C   0  0  0  0  0  0  0  0  0  0  0  0
  -34.0040   10.8060  -20.2530 C   0  0  0  0  0  0  0  0  0  0  0  0
  -34.6940   11.7970  -21.0180 O   0  0  0  0  0  0  0  0  0  0  0  0
  -35.5300   12.0210  -20.5790 H   0  0  0  0  0  0  0  0  0  0  0  0
  -33.7260   11.3170  -16.4720 C   0  0  0  0  0  0  0  0  0  0  0  0
  -33.7170   12.7320  -15.8910 C   0  0  0  0  0  0  0  0  0  0  0  0
  -35.0080   13.0360  -15.3580 O   0  0  0  0  0  0  0  0  0  0  0  0
  -35.4490   13.6840  -15.9280 H   0  0  0  0  0  0  0  0  0  0  0  0
  1  2  1  0  0  0  0
  2  4  1  0  0  0  0
  2  3  1  0  0  0  0
  4  5  1  0  0  0  0
  6  7  1  1  0  0  0
  6  4  1  0  0  0  0
  7  9  1  0  0  0  0
  8  7  1  0  0  0  0
 10  6  1  0  0  0  0
 11 10  1  0  0  0  0
 12 13  1  1  0  0  0
 12 10  1  0  0  0  0
 12 16  1  0  0  0  0
 13 14  1  0  0  0  0
 15 13  1  0  0  0  0
 16 17  1  0  0  0  0
 16  2  1  0  0  0  0
 17 18  1  0  0  0  0
 18 19  2  0  0  0  0
 20 19  1  0  0  0  0
 20 23  1  0  0  0  0
 21 20  2  0  0  0  0
 22 17  2  0  0  0  0
 22 21  1  0  0  0  0
 23 28  1  0  0  0  0
 24 23  1  0  0  0  0
 25 24  1  0  0  0  0
 26 27  1  0  0  0  0
 26 25  1  0  0  0  0
 28 29  1  0  0  0  0
 29 30  1  0  0  0  0
 31 30  1  0  0  0  0
M  END
>  <MODEL>
1

>  <REMARK>
 VINA RESULT:      -5.5      0.000      0.000
  Name = ZINC08615535
                            x       y       z     vdW  Elec       q    Type
                         _______ _______ _______ _____ _____    ______ ____

>  <TORSDO>
F 8

>  <vina_score>
-5.5

$$$$
ZINC06078676
 OpenBabel01081721543D

 23 24  0  0  0  0  0  0  0  0999 V2000
  -33.4700   11.2250  -17.9040 S   0  0  0  0  0  0  0  0  0  0  0  0
  -29.4050   11.7350  -22.2020 C   0  0  0  0  0  0  0  0  0  0  0  0
  -30.4600   11.6300  -21.1320 C   0  0  0  0  0  0  0  0  0  0  0  0
  -31.6900   12.3090  -21.2750 C   0  0  0  0  0  0  0  0  0  0  0  0
  -32.6060   12.1840  -20.2870 N   0  0  0  0  0  0  0  0  0  0  0  0
  -32.3000   11.4110  -19.2080 C   0  0  0  0  0  0  0  0  0  0  0  0
  -31.1270   10.8040  -19.1310 N   0  0  0  0  0  0  0  0  0  0  0  0
  -31.9180   12.9900  -22.2610 O   0  0  0  0  0  0  0  0  0  0  0  0
  -30.2450   10.9050  -20.0590 N   0  0  0  0  0  0  0  0  0  0  0  0
  -33.8130   12.8190  -20.3720 N   0  0  0  0  0  0  0  0  0  0  0  0
  -33.9200   13.5930  -20.9720 H   0  0  0  0  0  0  0  0  0  0  0  0
  -34.5750   12.5040  -19.8360 H   0  0  0  0  0  0  0  0  0  0  0  0
  -33.0680   12.6840  -16.9110 C   0  0  0  0  0  0  0  0  0  0  0  0
  -31.5470   12.8410  -16.8300 C   0  0  0  0  0  0  0  0  0  0  0  0
  -31.1660   14.0870  -17.4180 O   0  0  0  0  0  0  0  0  0  0  0  0
  -30.0350   14.0930  -18.1730 C   0  0  0  0  0  0  0  0  0  0  0  0
  -29.9960   14.8130  -19.3570 C   0  0  0  0  0  0  0  0  0  0  0  0
  -28.8460   14.8240  -20.1220 C   0  0  0  0  0  0  0  0  0  0  0  0
  -27.7330   14.1050  -19.7110 C   0  0  0  0  0  0  0  0  0  0  0  0
  -27.7750   13.3800  -18.5280 C   0  0  0  0  0  0  0  0  0  0  0  0
  -28.9230   13.3740  -17.7610 C   0  0  0  0  0  0  0  0  0  0  0  0
  -26.6030   14.1100  -20.4650 O   0  0  0  0  0  0  0  0  0  0  0  0
  -25.7730   12.9490  -20.3990 C   0  0  0  0  0  0  0  0  0  0  0  0
  1 13  1  0  0  0  0
  2  3  1  0  0  0  0
  3  9  2  0  0  0  0
  4  3  1  0  0  0  0
  4  5  1  0  0  0  0
  5  6  1  0  0  0  0
  6  7  2  0  0  0  0
  6  1  1  0  0  0  0
  8  4  2  0  0  0  0
  9  7  1  0  0  0  0
 10  5  1  0  0  0  0
 10 12  1  0  0  0  0
 11 10  1  0  0  0  0
 13 14  1  0  0  0  0
 15 14  1  0  0  0  0
 16 21  1  0  0  0  0
 16 15  1  0  0  0  0
 17 16  2  0  0  0  0
 18 19  2  0  0  0  0
 18 17  1  0  0  0  0
 19 20  1  0  0  0  0
 20 21  2  0  0  0  0
 22 23  1  0  0  0  0
 22 19  1  0  0  0  0
M  END
>  <MODEL>
1

>  <REMARK>
 VINA RESULT:      -5.5      0.000      0.000
  Name = ZINC06078676
                            x       y       z     vdW  Elec       q    Type
                         _______ _______ _______ _____ _____    ______ ____

>  <TORSDO>
F 7

>  <vina_score>
-5.5

$$$$
ZINC29471577
 OpenBabel01081721543D

 23 23  0  0  1  0  0  0  0  0999 V2000
  -32.6080   10.8180  -21.1630 C   0  0  0  0  0  0  0  0  0  0  0  0
  -31.6070   11.9290  -21.3460 C   0  0  0  0  0  0  0  0  0  0  0  0
  -30.5450   12.0240  -20.5220 N   0  0  0  0  0  0  0  0  0  0  0  0
  -30.3640   11.0450  -19.4460 C   0  0  0  0  0  0  0  0  0  0  0  0
  -31.7570   12.7390  -22.2370 O   0  0  0  0  0  0  0  0  0  0  0  0
  -29.5720   13.1040  -20.7010 C   0  0  1  0  0  0  0  0  0  0  0  0
  -29.1540   13.6590  -19.3290 C   0  0  0  0  0  0  0  0  0  0  0  0
  -27.9080   14.5640  -19.4830 C   0  0  0  0  0  0  0  0  0  0  0  0
  -27.0770   13.8580  -20.9640 S   0  0  0  0  0  0  0  0  0  0  0  0
  -25.8630   13.2370  -20.5620 O   0  0  0  0  0  0  0  0  0  0  0  0
  -27.0530   14.8390  -21.9920 O   0  0  0  0  0  0  0  0  0  0  0  0
  -28.3000   12.5540  -21.4080 C   0  0  0  0  0  0  0  0  0  0  0  0
  -34.1980   11.5150  -20.6540 S   0  0  0  0  0  0  0  0  0  0  0  0
  -33.6060   12.0310  -18.1060 N   0  0  0  0  0  0  0  0  0  0  0  0
  -33.9260   11.1170  -17.9330 H   0  0  0  0  0  0  0  0  0  0  0  0
  -33.6710   12.5270  -19.3100 C   0  0  0  0  0  0  0  0  0  0  0  0
  -33.3290   13.8410  -19.5330 N   0  0  0  0  0  0  0  0  0  0  0  0
  -32.3920   14.1290  -19.4410 H   0  0  0  0  0  0  0  0  0  0  0  0
  -34.0220   14.4940  -19.7840 H   0  0  0  0  0  0  0  0  0  0  0  0
  -33.0550   12.8340  -17.0120 C   0  0  2  0  0  0  0  0  0  0  0  0
  -31.6690   12.3040  -16.6390 C   0  0  0  0  0  0  0  0  0  0  0  0
  -34.1010   11.2820  -15.3560 C   0  0  0  0  0  0  0  0  0  0  0  0
  -33.9790   12.7430  -15.7970 C   0  0  0  0  0  0  0  0  0  0  0  0
  1 13  1  0  0  0  0
  2  1  1  0  0  0  0
  2  3  1  0  0  0  0
  3  4  1  0  0  0  0
  5  2  2  0  0  0  0
  6  3  1  1  0  0  0
  6  7  1  0  0  0  0
  8  7  1  0  0  0  0
  9 10  2  0  0  0  0
  9  8  1  0  0  0  0
 11  9  2  0  0  0  0
 12  9  1  0  0  0  0
 12  6  1  0  0  0  0
 13 16  1  0  0  0  0
 14 15  1  0  0  0  0
 16 14  1  0  0  0  0
 17 18  1  0  0  0  0
 17 16  2  0  0  0  0
 19 17  1  0  0  0  0
 20 14  1  6  0  0  0
 20 21  1  0  0  0  0
 20 23  1  0  0  0  0
 23 22  1  0  0  0  0
M  END
>  <MODEL>
1

>  <REMARK>
 VINA RESULT:      -5.5      0.000      0.000
  Name = ZINC29471577
                            x       y       z     vdW  Elec       q    Type
                         _______ _______ _______ _____ _____    ______ ____

>  <TORSDO>
F 7

>  <vina_score>
-5.5

$$$$
ZINC05499507
 OpenBabel01081721573D

 25 26  0  0  1  0  0  0  0  0999 V2000
  -28.9980   12.3710  -20.7480 C   0  0  0  0  0  0  0  0  0  0  0  0
  -30.4620   12.3450  -20.7960 N   0  0  0  0  0  0  0  0  0  0  0  0
  -31.2280   12.0600  -21.8880 C   0  0  0  0  0  0  0  0  0  0  0  0
  -32.4890   12.1280  -21.5760 N   0  0  0  0  0  0  0  0  0  0  0  0
  -32.6130   12.4590  -20.2680 C   0  0  0  0  0  0  0  0  0  0  0  0
  -33.6980   12.6690  -19.4000 C   0  0  0  0  0  0  0  0  0  0  0  0
  -33.4440   12.9930  -18.1360 N   0  0  0  0  0  0  0  0  0  0  0  0
  -32.2050   13.1170  -17.6970 C   0  0  0  0  0  0  0  0  0  0  0  0
  -31.1590   12.9300  -18.4740 N   0  0  0  0  0  0  0  0  0  0  0  0
  -31.3130   12.6030  -19.7530 C   0  0  0  0  0  0  0  0  0  0  0  0
  -35.0000   12.5430  -19.8520 N   0  0  0  0  0  0  0  0  0  0  0  0
  -35.5830   11.8400  -19.4820 H   0  0  0  0  0  0  0  0  0  0  0  0
  -35.3440   13.1540  -20.5420 H   0  0  0  0  0  0  0  0  0  0  0  0
  -28.4860   13.6110  -21.4860 C   0  0  2  0  0  0  0  0  0  0  0  0
  -27.5320   13.2150  -22.4740 O   0  0  0  0  0  0  0  0  0  0  0  0
  -27.0210   13.9890  -22.7580 H   0  0  0  0  0  0  0  0  0  0  0  0
  -27.8220   14.5610  -20.4870 C   0  0  0  0  0  0  0  0  0  0  0  0
  -28.8540   15.0590  -19.5530 N   0  0  0  0  0  0  0  0  0  0  0  0
  -29.5810   14.3510  -19.4530 H   0  0  0  0  0  0  0  0  0  0  0  0
  -30.9840   16.1620  -20.0280 C   0  0  0  0  0  0  0  0  0  0  0  0
  -29.4600   16.2980  -20.0850 C   0  0  0  0  0  0  0  0  0  0  0  0
  -28.2530   15.3190  -18.2280 C   0  0  0  0  0  0  0  0  0  0  0  0
  -27.5700   14.0420  -17.7370 C   0  0  0  0  0  0  0  0  0  0  0  0
  -28.5630   13.0920  -17.3450 O   0  0  0  0  0  0  0  0  0  0  0  0
  -29.2340   13.0190  -18.0420 H   0  0  0  0  0  0  0  0  0  0  0  0
  2  1  1  0  0  0  0
  2 10  1  0  0  0  0
  3  4  2  0  0  0  0
  3  2  1  0  0  0  0
  4  5  1  0  0  0  0
  5 10  2  0  0  0  0
  5  6  1  0  0  0  0
  6  7  2  0  0  0  0
  7  8  1  0  0  0  0
  9  8  2  0  0  0  0
 10  9  1  0  0  0  0
 11 12  1  0  0  0  0
 11  6  1  0  0  0  0
 13 11  1  0  0  0  0
 14 15  1  6  0  0  0
 14  1  1  0  0  0  0
 14 17  1  0  0  0  0
 16 15  1  0  0  0  0
 17 18  1  0  0  0  0
 18 19  1  0  0  0  0
 18 22  1  0  0  0  0
 21 20  1  0  0  0  0
 21 18  1  0  0  0  0
 22 23  1  0  0  0  0
 23 24  1  0  0  0  0
 25 24  1  0  0  0  0
M  END
>  <MODEL>
1

>  <REMARK>
 VINA RESULT:      -5.5      0.000      0.000
  Name = ZINC05499507
                            x       y       z     vdW  Elec       q    Type
                         _______ _______ _______ _____ _____    ______ ____

>  <TORSDO>
F 10

>  <vina_score>
-5.5

$$$$
ZINC08642818
 OpenBabel01081722013D

 31 33  0  0  1  0  0  0  0  0999 V2000
  -28.1700   14.4550  -17.1700 C   0  0  0  0  0  0  0  0  0  0  0  0
  -28.6980   13.5770  -18.2170 N   0  0  0  0  0  0  0  0  0  0  0  0
  -29.9380   12.9810  -18.0610 C   0  0  0  0  0  0  0  0  0  0  0  0
  -30.4180   12.1570  -19.0730 C   0  0  0  0  0  0  0  0  0  0  0  0
  -31.6650   11.7110  -18.6550 N   0  0  0  0  0  0  0  0  0  0  0  0
  -31.8930   12.2700  -17.4380 C   0  0  0  0  0  0  0  0  0  0  0  0
  -29.6300   11.9440  -20.2170 C   0  0  0  0  0  0  0  0  0  0  0  0
  -28.4290   12.5530  -20.3140 N   0  0  0  0  0  0  0  0  0  0  0  0
  -27.6060   12.3390  -21.5070 C   0  0  0  0  0  0  0  0  0  0  0  0
  -30.0280   11.2230  -21.1150 O   0  0  0  0  0  0  0  0  0  0  0  0
  -30.8600   13.0130  -17.0970 N   0  0  0  0  0  0  0  0  0  0  0  0
  -27.9770   13.3510  -19.3320 C   0  0  0  0  0  0  0  0  0  0  0  0
  -26.8890   13.8830  -19.4530 O   0  0  0  0  0  0  0  0  0  0  0  0
  -33.0240   12.0820  -16.6760 N   0  0  0  0  0  0  0  0  0  0  0  0
  -33.4570   11.1980  -16.6470 H   0  0  0  0  0  0  0  0  0  0  0  0
  -33.5810   13.1960  -15.9040 C   0  0  0  0  0  0  0  0  0  0  0  0
  -34.6460   12.6670  -14.9420 C   0  0  0  0  0  0  0  0  0  0  0  0
  -34.5360   13.3460  -13.6900 O   0  0  0  0  0  0  0  0  0  0  0  0
  -34.0630   12.7830  -13.0580 H   0  0  0  0  0  0  0  0  0  0  0  0
  -32.5610   10.8110  -19.3860 C   0  0  0  0  0  0  0  0  0  0  0  0
  -33.0880   11.5190  -20.6360 C   0  0  1  0  0  0  0  0  0  0  0  0
  -34.3040   10.8970  -21.0580 O   0  0  0  0  0  0  0  0  0  0  0  0
  -34.4530   11.0830  -21.9980 H   0  0  0  0  0  0  0  0  0  0  0  0
  -33.3520   12.9910  -20.3160 C   0  0  0  0  0  0  0  0  0  0  0  0
  -32.7210   13.8130  -21.2990 O   0  0  0  0  0  0  0  0  0  0  0  0
  -32.0470   14.9040  -20.8510 C   0  0  0  0  0  0  0  0  0  0  0  0
  -32.7450   16.0380  -20.4580 C   0  0  0  0  0  0  0  0  0  0  0  0
  -32.0580   17.1450  -19.9970 C   0  0  0  0  0  0  0  0  0  0  0  0
  -30.6770   17.1280  -19.9370 C   0  0  0  0  0  0  0  0  0  0  0  0
  -29.9800   16.0010  -20.3330 C   0  0  0  0  0  0  0  0  0  0  0  0
  -30.6620   14.8900  -20.7890 C   0  0  0  0  0  0  0  0  0  0  0  0
  2  3  1  0  0  0  0
  2  1  1  0  0  0  0
  3 11  1  0  0  0  0
  4  5  1  0  0  0  0
  4  3  2  0  0  0  0
  5  6  1  0  0  0  0
  6 11  2  0  0  0  0
  6 14  1  0  0  0  0
  7  4  1  0  0  0  0
  8  7  1  0  0  0  0
  8 12  1  0  0  0  0
  9  8  1  0  0  0  0
 10  7  2  0  0  0  0
 12  2  1  0  0  0  0
 13 12  2  0  0  0  0
 14 15  1  0  0  0  0
 14 16  1  0  0  0  0
 16 17  1  0  0  0  0
 17 18  1  0  0  0  0
 18 19  1  0  0  0  0
 20  5  1  0  0  0  0
 21 22  1  1  0  0  0
 21 24  1  0  0  0  0
 21 20  1  0  0  0  0
 23 22  1  0  0  0  0
 25 26  1  0  0  0  0
 25 24  1  0  0  0  0
 26 31  2  0  0  0  0
 26 27  1  0  0  0  0
 27 28  2  0  0  0  0
 28 29  1  0  0  0  0
 30 29  2  0  0  0  0
 31 30  1  0  0  0  0
M  END
>  <MODEL>
1

>  <REMARK>
 VINA RESULT:      -5.5      0.000      0.000
  Name = ZINC08642818
                            x       y       z     vdW  Elec       q    Type
                         _______ _______ _______ _____ _____    ______ ____

>  <TORSDO>
F 10

>  <vina_score>
-5.5

$$$$
ZINC31599770
 OpenBabel01081722013D

 21 21  0  0  0  0  0  0  0  0999 V2000
  -29.2030   11.4000  -21.4460 N   0  0  0  0  0  0  0  0  0  0  0  0
  -28.7070   10.8950  -20.7610 H   0  0  0  0  0  0  0  0  0  0  0  0
  -30.4760   11.5880  -21.3160 C   0  0  0  0  0  0  0  0  0  0  0  0
  -31.1410   12.4010  -22.1950 N   0  0  0  0  0  0  0  0  0  0  0  0
  -31.1600   13.3740  -22.0480 H   0  0  0  0  0  0  0  0  0  0  0  0
  -31.6000   12.0120  -22.9740 H   0  0  0  0  0  0  0  0  0  0  0  0
  -28.4980   11.9370  -22.6130 C   0  0  0  0  0  0  0  0  0  0  0  0
  -27.8080   13.2490  -22.2330 C   0  0  0  0  0  0  0  0  0  0  0  0
  -26.7040   12.9660  -20.8220 S   0  0  0  0  0  0  0  0  0  0  0  0
  -29.4880   14.7950  -17.6560 C   0  0  0  0  0  0  0  0  0  0  0  0
  -28.1880   14.1520  -17.1720 C   0  0  0  0  0  0  0  0  0  0  0  0
  -27.6350   13.2340  -18.2650 C   0  0  0  0  0  0  0  0  0  0  0  0
  -27.3590   14.0540  -19.5270 C   0  0  0  0  0  0  0  0  0  0  0  0
  -28.6600   14.6970  -20.0110 C   0  0  0  0  0  0  0  0  0  0  0  0
  -29.2130   15.6140  -18.9190 C   0  0  0  0  0  0  0  0  0  0  0  0
  -31.2270   10.9130  -20.1970 C   0  0  0  0  0  0  0  0  0  0  0  0
  -31.3130   12.0280  -18.7680 S   0  0  0  0  0  0  0  0  0  0  0  0
  -33.0080   13.1310  -19.1010 S   0  0  0  0  0  0  0  0  0  0  0  0
  -32.5630   14.5160  -19.5480 O   0  0  0  0  0  0  0  0  0  0  0  0
  -33.6410   13.2960  -17.8380 O   0  0  0  0  0  0  0  0  0  0  0  0
  -33.6680   12.5380  -20.2110 O   0  0  0  0  0  0  0  0  0  0  0  0
  1  3  1  0  0  0  0
  1  2  1  0  0  0  0
  3 16  1  0  0  0  0
  4  5  1  0  0  0  0
  4  3  2  0  0  0  0
  6  4  1  0  0  0  0
  7  8  1  0  0  0  0
  7  1  1  0  0  0  0
  8  9  1  0  0  0  0
  9 13  1  0  0  0  0
 10 11  1  0  0  0  0
 12 11  1  0  0  0  0
 13 12  1  0  0  0  0
 14 13  1  0  0  0  0
 14 15  1  0  0  0  0
 15 10  1  0  0  0  0
 16 17  1  0  0  0  0
 18 17  1  0  0  0  0
 18 20  1  0  0  0  0
 19 18  2  0  0  0  0
 21 18  2  0  0  0  0
M  END
>  <MODEL>
1

>  <REMARK>
 VINA RESULT:      -5.5      0.000      0.000
  Name = ZINC31599770
                            x       y       z     vdW  Elec       q    Type
                         _______ _______ _______ _____ _____    ______ ____

>  <TORSDO>
F 8

>  <vina_score>
-5.5

$$$$
ZINC02267985
 OpenBabel01081722013D

 27 28  0  0  1  0  0  0  0  0999 V2000
  -30.4660   10.8030  -19.1150 C   0  0  0  0  0  0  0  0  0  0  0  0
  -31.3970   11.9330  -19.5580 C   0  0  0  0  0  0  0  0  0  0  0  0
  -32.7780   11.3650  -19.8910 C   0  0  0  0  0  0  0  0  0  0  0  0
  -30.8120   12.6310  -20.7930 C   0  0  1  0  0  0  0  0  0  0  0  0
  -31.7460   13.7720  -21.2060 C   0  0  0  0  0  0  0  0  0  0  0  0
  -31.8370   14.7430  -20.0940 N   0  0  0  0  0  0  0  0  0  0  0  0
  -30.8970   15.0600  -19.8570 H   0  0  0  0  0  0  0  0  0  0  0  0
  -32.4400   14.1020  -18.9050 C   0  0  0  0  0  0  0  0  0  0  0  0
  -29.4420   13.2110  -20.4310 C   0  0  0  0  0  0  0  0  0  0  0  0
  -29.6120   14.2010  -19.3460 N   0  0  0  0  0  0  0  0  0  0  0  0
  -30.2800   14.9100  -19.6500 H   0  0  0  0  0  0  0  0  0  0  0  0
  -30.1340   13.5420  -18.1300 C   0  0  0  0  0  0  0  0  0  0  0  0
  -31.5220   12.9690  -18.4340 C   0  0  2  0  0  0  0  0  0  0  0  0
  -30.6710   11.6810  -21.9000 N   0  0  0  0  0  0  0  0  0  0  0  0
  -29.5640   11.3110  -22.2480 O   0  0  0  0  0  0  0  0  0  0  0  0
  -31.6610   11.2620  -22.4720 O   0  0  0  0  0  0  0  0  0  0  0  0
  -32.0780   12.3530  -17.2260 N   0  0  0  0  0  0  0  0  0  0  0  0
  -31.4210   11.5400  -16.6010 O   0  0  0  0  0  0  0  0  0  0  0  0
  -33.1960   12.6530  -16.8480 O   0  0  0  0  0  0  0  0  0  0  0  0
  -32.6490   15.9060  -20.5060 C   0  0  0  0  0  0  0  0  0  0  0  0
  -31.8300   17.1780  -20.2770 C   0  0  0  0  0  0  0  0  0  0  0  0
  -30.4600   16.8320  -20.0660 O   0  0  0  0  0  0  0  0  0  0  0  0
  -30.3350   16.5550  -19.1460 H   0  0  0  0  0  0  0  0  0  0  0  0
  -28.3200   14.8520  -19.0510 C   0  0  0  0  0  0  0  0  0  0  0  0
  -27.7160   14.2170  -17.7970 C   0  0  0  0  0  0  0  0  0  0  0  0
  -26.4970   13.5550  -18.1370 O   0  0  0  0  0  0  0  0  0  0  0  0
  -26.2380   12.9620  -17.4150 H   0  0  0  0  0  0  0  0  0  0  0  0
  2  1  1  0  0  0  0
  2 13  1  0  0  0  0
  3  2  1  0  0  0  0
  4 14  1  6  0  0  0
  4  9  1  0  0  0  0
  4  2  1  0  0  0  0
  5  4  1  0  0  0  0
  5  6  1  0  0  0  0
  6  7  1  0  0  0  0
  6  8  1  0  0  0  0
  8 13  1  0  0  0  0
  9 10  1  0  0  0  0
 10 24  1  0  0  0  0
 10 12  1  0  0  0  0
 11 10  1  0  0  0  0
 13 12  1  0  0  0  0
 13 17  1  1  0  0  0
 15 14  2  0  0  0  0
 16 14  2  0  0  0  0
 17 19  2  0  0  0  0
 17 18  2  0  0  0  0
 20 21  1  0  0  0  0
 20  6  1  0  0  0  0
 21 22  1  0  0  0  0
 22 23  1  0  0  0  0
 24 25  1  0  0  0  0
 26 25  1  0  0  0  0
 26 27  1  0  0  0  0
M  END
>  <MODEL>
1

>  <REMARK>
 VINA RESULT:      -5.5      0.000      0.000
  Name = ZINC02267985
                            x       y       z     vdW  Elec       q    Type
                         _______ _______ _______ _____ _____    ______ ____

>  <TORSDO>
F 8

>  <vina_score>
-5.5

$$$$
ZINC20236119
 OpenBabel01081721433D

 22 22  0  0  0  0  0  0  0  0999 V2000
  -28.2470   13.0290  -20.0650 N   0  0  0  0  0  0  0  0  0  0  0  0
  -29.6070   12.8350  -20.3290 C   0  0  0  0  0  0  0  0  0  0  0  0
  -30.0860   11.5610  -20.6090 C   0  0  0  0  0  0  0  0  0  0  0  0
  -31.4300   11.3670  -20.8650 C   0  0  0  0  0  0  0  0  0  0  0  0
  -32.3010   12.4440  -20.8540 C   0  0  0  0  0  0  0  0  0  0  0  0
  -31.8240   13.7220  -20.5800 C   0  0  0  0  0  0  0  0  0  0  0  0
  -30.4780   13.9170  -20.3170 C   0  0  0  0  0  0  0  0  0  0  0  0
  -33.6230   12.2530  -21.1120 O   0  0  0  0  0  0  0  0  0  0  0  0
  -34.2960   11.2520  -20.3430 C   0  0  0  0  0  0  0  0  0  0  0  0
  -32.6790   14.7800  -20.5690 O   0  0  0  0  0  0  0  0  0  0  0  0
  -32.1240   16.0580  -20.2530 C   0  0  0  0  0  0  0  0  0  0  0  0
  -27.7290   13.2470  -18.5070 S   0  0  0  0  0  0  0  0  0  0  0  0
  -28.6650   12.5330  -17.7110 O   0  0  0  0  0  0  0  0  0  0  0  0
  -26.3580   12.8700  -18.5240 O   0  0  0  0  0  0  0  0  0  0  0  0
  -28.8250   15.2680  -17.0270 C   0  0  0  0  0  0  0  0  0  0  0  0
  -27.8840   15.0280  -18.2090 C   0  0  0  0  0  0  0  0  0  0  0  0
  -27.2810   13.0390  -21.1660 C   0  0  0  0  0  0  0  0  0  0  0  0
  -26.9790   14.4840  -21.5670 C   0  0  0  0  0  0  0  0  0  0  0  0
  -25.7370   14.9240  -20.9150 N   0  0  0  0  0  0  0  0  0  0  0  0
  -25.6030   14.3990  -20.0500 H   0  0  0  0  0  0  0  0  0  0  0  0
  -24.9480   14.7580  -21.5390 H   0  0  0  0  0  0  0  0  0  0  0  0
  -25.7990   15.9200  -20.7030 H   0  0  0  0  0  0  0  0  0  0  0  0
  1 12  1  0  0  0  0
  2  7  1  0  0  0  0
  2  1  1  0  0  0  0
  3  2  2  0  0  0  0
  4  5  2  0  0  0  0
  4  3  1  0  0  0  0
  5  6  1  0  0  0  0
  6 10  1  0  0  0  0
  6  7  2  0  0  0  0
  8  5  1  0  0  0  0
  8  9  1  0  0  0  0
 10 11  1  0  0  0  0
 12 16  1  0  0  0  0
 12 13  2  0  0  0  0
 14 12  2  0  0  0  0
 16 15  1  0  0  0  0
 17  1  1  0  0  0  0
 18 17  1  0  0  0  0
 18 19  1  0  0  0  0
 19 22  1  0  0  0  0
 19 20  1  0  0  0  0
 21 19  1  0  0  0  0
M  END
>  <MODEL>
1

>  <REMARK>
 VINA RESULT:      -5.5      0.000      0.000
  Name = ZINC20236119
                            x       y       z     vdW  Elec       q    Type
                         _______ _______ _______ _____ _____    ______ ____

>  <TORSDO>
F 8

>  <vina_score>
-5.5

$$$$
ZINC12398420
 OpenBabel01081721443D

 27 28  0  0  0  0  0  0  0  0999 V2000
  -33.0520   13.1730  -19.6940 C   0  0  0  0  0  0  0  0  0  0  0  0
  -32.7560   13.0170  -18.3940 N   0  0  0  0  0  0  0  0  0  0  0  0
  -33.4210   11.9470  -18.0060 C   0  0  0  0  0  0  0  0  0  0  0  0
  -34.0900   11.4980  -19.0790 O   0  0  0  0  0  0  0  0  0  0  0  0
  -33.8640   12.2150  -20.0300 N   0  0  0  0  0  0  0  0  0  0  0  0
  -33.4270   11.3540  -16.6470 C   0  0  0  0  0  0  0  0  0  0  0  0
  -34.5360   11.4270  -15.8860 N   0  0  0  0  0  0  0  0  0  0  0  0
  -35.3420   11.8740  -16.2310 H   0  0  0  0  0  0  0  0  0  0  0  0
  -32.4310   10.8030  -16.2210 O   0  0  0  0  0  0  0  0  0  0  0  0
  -34.5420   10.8410  -14.5420 C   0  0  0  0  0  0  0  0  0  0  0  0
  -35.4310   11.6810  -13.6240 C   0  0  0  0  0  0  0  0  0  0  0  0
  -34.9080   13.0580  -13.5780 N   0  0  0  0  0  0  0  0  0  0  0  0
  -34.1420   13.1530  -14.2450 H   0  0  0  0  0  0  0  0  0  0  0  0
  -35.6520   13.7130  -13.8200 H   0  0  0  0  0  0  0  0  0  0  0  0
  -34.5670   13.2620  -12.6380 H   0  0  0  0  0  0  0  0  0  0  0  0
  -32.5360   14.2630  -20.5980 C   0  0  0  0  0  0  0  0  0  0  0  0
  -31.4550   13.6930  -21.5180 C   0  0  0  0  0  0  0  0  0  0  0  0
  -29.3810   11.4420  -22.0090 C   0  0  0  0  0  0  0  0  0  0  0  0
  -29.3080   12.5210  -20.9600 C   0  0  0  0  0  0  0  0  0  0  0  0
  -28.3190   12.6860  -20.0520 C   0  0  0  0  0  0  0  0  0  0  0  0
  -28.6350   13.7990  -19.2660 C   0  0  0  0  0  0  0  0  0  0  0  0
  -29.7720   14.2890  -19.6920 N   0  0  0  0  0  0  0  0  0  0  0  0
  -30.2190   13.4960  -20.7560 N   0  0  0  0  0  0  0  0  0  0  0  0
  -27.8070   14.3440  -18.1320 C   0  0  0  0  0  0  0  0  0  0  0  0
  -26.6530   13.5690  -17.9830 F   0  0  0  0  0  0  0  0  0  0  0  0
  -28.5530   14.3030  -16.9490 F   0  0  0  0  0  0  0  0  0  0  0  0
  -27.4470   15.6680  -18.4110 F   0  0  0  0  0  0  0  0  0  0  0  0
  1  2  1  0  0  0  0
  2  3  2  0  0  0  0
  3  6  1  0  0  0  0
  4  3  1  0  0  0  0
  5  1  2  0  0  0  0
  5  4  1  0  0  0  0
  6  9  2  0  0  0  0
  6  7  1  0  0  0  0
  7 10  1  0  0  0  0
  8  7  1  0  0  0  0
 10 11  1  0  0  0  0
 11 12  1  0  0  0  0
 12 15  1  0  0  0  0
 13 12  1  0  0  0  0
 14 12  1  0  0  0  0
 16  1  1  0  0  0  0
 17 23  1  0  0  0  0
 17 16  1  0  0  0  0
 18 19  1  0  0  0  0
 19 23  1  0  0  0  0
 19 20  2  0  0  0  0
 20 21  1  0  0  0  0
 21 24  1  0  0  0  0
 22 21  2  0  0  0  0
 23 22  1  0  0  0  0
 24 25  1  0  0  0  0
 24 26  1  0  0  0  0
 27 24  1  0  0  0  0
M  END
>  <MODEL>
1

>  <REMARK>
 VINA RESULT:      -5.5      0.000      0.000
  Name = ZINC12398420
                            x       y       z     vdW  Elec       q    Type
                         _______ _______ _______ _____ _____    ______ ____

>  <TORSDO>
F 8

>  <vina_score>
-5.5

$$$$
ZINC05574015
 OpenBabel01081721493D

 16 15  0  0  0  0  0  0  0  0999 V2000
  -29.0590   14.9440  -19.2810 C   0  0  0  0  0  0  0  0  0  0  0  0
  -28.2640   15.8830  -18.8170 N   0  0  0  0  0  0  0  0  0  0  0  0
  -28.3110   16.1440  -17.8690 H   0  0  0  0  0  0  0  0  0  0  0  0
  -29.5740   13.2930  -17.7420 C   0  0  0  0  0  0  0  0  0  0  0  0
  -28.2860   12.8970  -17.7530 O   0  0  0  0  0  0  0  0  0  0  0  0
  -29.9470   14.3330  -18.4500 N   0  0  0  0  0  0  0  0  0  0  0  0
  -30.4800   12.6190  -17.0060 O   0  0  0  0  0  0  0  0  0  0  0  0
  -32.8510   12.8570  -16.5030 C   0  0  0  0  0  0  0  0  0  0  0  0
  -31.8130   12.4850  -17.5640 C   0  0  0  0  0  0  0  0  0  0  0  0
  -28.9940   14.5840  -20.5890 N   0  0  0  0  0  0  0  0  0  0  0  0
  -27.8420   14.2320  -21.1180 C   0  0  0  0  0  0  0  0  0  0  0  0
  -27.7560   13.9730  -22.4560 N   0  0  0  0  0  0  0  0  0  0  0  0
  -26.9550   13.5330  -22.8220 H   0  0  0  0  0  0  0  0  0  0  0  0
  -28.4950   14.2270  -23.0550 H   0  0  0  0  0  0  0  0  0  0  0  0
  -26.7470   14.1270  -20.3390 O   0  0  0  0  0  0  0  0  0  0  0  0
  -25.9980   12.8850  -20.4190 C   0  0  0  0  0  0  0  0  0  0  0  0
  1  2  1  0  0  0  0
  1  6  1  0  0  0  0
  2  3  1  0  0  0  0
  4  7  1  0  0  0  0
  5  4  2  0  0  0  0
  6  4  1  0  0  0  0
  9  7  1  0  0  0  0
  9  8  1  0  0  0  0
 10  1  2  0  0  0  0
 11 10  2  0  0  0  0
 11 15  1  0  0  0  0
 12 11  1  0  0  0  0
 13 12  1  0  0  0  0
 14 12  1  0  0  0  0
 16 15  1  0  0  0  0
M  END
>  <MODEL>
1

>  <REMARK>
 VINA RESULT:      -5.4      0.000      0.000
  Name = ZINC05574015
                            x       y       z     vdW  Elec       q    Type
                         _______ _______ _______ _____ _____    ______ ____

>  <TORSDO>
F 6

>  <vina_score>
-5.4

$$$$
ZINC04535668
 OpenBabel01081721503D

 27 28  0  0  1  0  0  0  0  0999 V2000
  -29.7910   13.6280  -19.8060 C   0  0  1  0  0  0  0  0  0  0  0  0
  -28.3510   13.5710  -19.3540 C   0  0  0  0  0  0  0  0  0  0  0  0
  -27.8270   14.0770  -18.1400 C   0  0  0  0  0  0  0  0  0  0  0  0
  -28.7400   14.7520  -17.1490 C   0  0  0  0  0  0  0  0  0  0  0  0
  -26.6420   13.9680  -17.8990 O   0  0  0  0  0  0  0  0  0  0  0  0
  -27.6570   12.9430  -20.3350 C   0  0  0  0  0  0  0  0  0  0  0  0
  -26.3290   12.6930  -20.3200 O   0  0  0  0  0  0  0  0  0  0  0  0
  -28.5870   12.5760  -21.4260 C   0  0  0  0  0  0  0  0  0  0  0  0
  -28.2690   12.0020  -22.4490 O   0  0  0  0  0  0  0  0  0  0  0  0
  -29.8350   12.9720  -21.1190 N   0  0  0  0  0  0  0  0  0  0  0  0
  -32.2820   11.5400  -17.0350 C   0  0  0  0  0  0  0  0  0  0  0  0
  -31.2820   10.8650  -17.7120 C   0  0  0  0  0  0  0  0  0  0  0  0
  -30.4770   11.5410  -18.6090 C   0  0  0  0  0  0  0  0  0  0  0  0
  -30.6690   12.8920  -18.8290 C   0  0  0  0  0  0  0  0  0  0  0  0
  -31.6640   13.5680  -18.1480 C   0  0  0  0  0  0  0  0  0  0  0  0
  -32.4740   12.8910  -17.2550 C   0  0  0  0  0  0  0  0  0  0  0  0
  -34.1970   11.7680  -15.4760 C   0  0  0  0  0  0  0  0  0  0  0  0
  -33.1600   10.8040  -16.0570 C   0  0  0  0  0  0  0  0  0  0  0  0
  -31.0260   12.7870  -21.9510 C   0  0  0  0  0  0  0  0  0  0  0  0
  -31.2490   11.2940  -22.1960 C   0  0  0  0  0  0  0  0  0  0  0  0
  -32.3860   10.8330  -21.3770 N   0  0  0  0  0  0  0  0  0  0  0  0
  -32.8770   10.0930  -21.8780 H   0  0  0  0  0  0  0  0  0  0  0  0
  -32.0360   10.4800  -20.4860 H   0  0  0  0  0  0  0  0  0  0  0  0
  -33.3210   11.9460  -21.1260 C   0  0  0  0  0  0  0  0  0  0  0  0
  -34.4020   11.4820  -20.1480 C   0  0  0  0  0  0  0  0  0  0  0  0
  -35.1260   12.6150  -19.6650 O   0  0  0  0  0  0  0  0  0  0  0  0
  -35.9050   12.3140  -19.1720 H   0  0  0  0  0  0  0  0  0  0  0  0
  1  2  1  0  0  0  0
  1 14  1  1  0  0  0
  2  3  1  0  0  0  0
  3  5  2  0  0  0  0
  3  4  1  0  0  0  0
  6  7  1  0  0  0  0
  6  2  2  0  0  0  0
  8 10  1  0  0  0  0
  8  6  1  0  0  0  0
  9  8  2  0  0  0  0
 10  1  1  0  0  0  0
 11 18  1  0  0  0  0
 12 11  2  0  0  0  0
 13 12  1  0  0  0  0
 14 13  2  0  0  0  0
 14 15  1  0  0  0  0
 15 16  2  0  0  0  0
 16 11  1  0  0  0  0
 18 17  1  0  0  0  0
 19 10  1  0  0  0  0
 20 19  1  0  0  0  0
 20 21  1  0  0  0  0
 21 24  1  0  0  0  0
 21 23  1  0  0  0  0
 22 21  1  0  0  0  0
 24 25  1  0  0  0  0
 25 26  1  0  0  0  0
 26 27  1  0  0  0  0
M  END
>  <MODEL>
1

>  <REMARK>
 VINA RESULT:      -5.4      0.000      0.000
  Name = ZINC04535668
                            x       y       z     vdW  Elec       q    Type
                         _______ _______ _______ _____ _____    ______ ____

>  <TORSDO>
F 8

>  <vina_score>
-5.4

$$$$
ZINC16697325
 OpenBabel01081721513D

 22 22  0  0  1  0  0  0  0  0999 V2000
  -29.4210   12.0870  -19.7300 C   0  0  0  0  0  0  0  0  0  0  0  0
  -30.7360   12.0290  -20.0180 N   0  0  0  0  0  0  0  0  0  0  0  0
  -31.2160   12.2880  -21.3820 C   0  0  0  0  0  0  0  0  0  0  0  0
  -32.2920   13.3760  -21.3290 C   0  0  0  0  0  0  0  0  0  0  0  0
  -33.3870   12.9580  -20.3450 C   0  0  0  0  0  0  0  0  0  0  0  0
  -32.7880   12.8010  -18.9460 C   0  0  2  0  0  0  0  0  0  0  0  0
  -31.7180   11.7060  -18.9730 C   0  0  0  0  0  0  0  0  0  0  0  0
  -29.0370   11.8720  -18.5970 O   0  0  0  0  0  0  0  0  0  0  0  0
  -28.5320   12.3850  -20.6960 O   0  0  0  0  0  0  0  0  0  0  0  0
  -26.3760   13.2220  -19.9340 C   0  0  0  0  0  0  0  0  0  0  0  0
  -27.7420   13.5890  -20.5170 C   0  0  0  0  0  0  0  0  0  0  0  0
  -28.4670   14.5370  -19.5590 C   0  0  0  0  0  0  0  0  0  0  0  0
  -27.5500   14.2800  -21.8690 C   0  0  0  0  0  0  0  0  0  0  0  0
  -33.8900   12.4140  -17.9580 C   0  0  0  0  0  0  0  0  0  0  0  0
  -33.2790   12.1930  -16.5730 C   0  0  1  0  0  0  0  0  0  0  0  0
  -32.3380   13.2890  -16.2840 N   0  0  0  0  0  0  0  0  0  0  0  0
  -31.4700   13.1350  -16.7980 H   0  0  0  0  0  0  0  0  0  0  0  0
  -32.7510   14.1770  -16.5720 H   0  0  0  0  0  0  0  0  0  0  0  0
  -32.1410   13.3140  -15.2840 H   0  0  0  0  0  0  0  0  0  0  0  0
  -34.3760   12.1550  -15.5410 C   0  0  0  0  0  0  0  0  0  0  0  0
  -34.7300   10.9880  -14.9790 O   0  0  0  0  0  0  0  0  0  0  0  0
  -34.9380   13.1760  -15.2180 O   0  0  0  0  0  0  0  0  0  0  0  0
  1  8  2  0  0  0  0
  2  1  1  0  0  0  0
  2  7  1  0  0  0  0
  3  4  1  0  0  0  0
  3  2  1  0  0  0  0
  4  5  1  0  0  0  0
  5  6  1  0  0  0  0
  6 14  1  1  0  0  0
  7  6  1  0  0  0  0
  9 11  1  0  0  0  0
  9  1  1  0  0  0  0
 11 10  1  0  0  0  0
 11 12  1  0  0  0  0
 13 11  1  0  0  0  0
 15 14  1  6  0  0  0
 15 16  1  0  0  0  0
 15 20  1  0  0  0  0
 16 19  1  0  0  0  0
 17 16  1  0  0  0  0
 18 16  1  0  0  0  0
 20 22  2  0  0  0  0
 20 21  1  0  0  0  0
M  END
>  <MODEL>
1

>  <REMARK>
 VINA RESULT:      -5.4      0.000      0.000
  Name = ZINC16697325
                            x       y       z     vdW  Elec       q    Type
                         _______ _______ _______ _____ _____    ______ ____

>  <TORSDO>
F 6

>  <vina_score>
-5.4

$$$$
ZINC20236076
 OpenBabel01081721523D

 21 21  0  0  0  0  0  0  0  0999 V2000
  -30.6890   12.6840  -19.6870 N   0  0  0  0  0  0  0  0  0  0  0  0
  -31.5690   12.3760  -18.6430 C   0  0  0  0  0  0  0  0  0  0  0  0
  -31.8790   13.3360  -17.6900 C   0  0  0  0  0  0  0  0  0  0  0  0
  -32.7520   13.0330  -16.6630 C   0  0  0  0  0  0  0  0  0  0  0  0
  -33.3080   11.7660  -16.5770 C   0  0  0  0  0  0  0  0  0  0  0  0
  -32.9940   10.8030  -17.5250 C   0  0  0  0  0  0  0  0  0  0  0  0
  -32.1260   11.1070  -18.5560 C   0  0  0  0  0  0  0  0  0  0  0  0
  -34.1630   11.4660  -15.5620 O   0  0  0  0  0  0  0  0  0  0  0  0
  -34.6010   12.5500  -14.7410 C   0  0  0  0  0  0  0  0  0  0  0  0
  -29.1110   13.0610  -19.3570 S   0  0  0  0  0  0  0  0  0  0  0  0
  -28.7400   12.2970  -18.2180 O   0  0  0  0  0  0  0  0  0  0  0  0
  -28.4080   12.9820  -20.5900 O   0  0  0  0  0  0  0  0  0  0  0  0
  -28.3990   15.0360  -17.6520 C   0  0  0  0  0  0  0  0  0  0  0  0
  -29.0760   14.6500  -18.8930 N   0  0  0  0  0  0  0  0  0  0  0  0
  -29.7200   15.6710  -19.7230 C   0  0  0  0  0  0  0  0  0  0  0  0
  -31.1650   12.6720  -21.0720 C   0  0  0  0  0  0  0  0  0  0  0  0
  -32.6330   13.1020  -21.1110 C   0  0  0  0  0  0  0  0  0  0  0  0
  -32.7170   14.5270  -21.4570 N   0  0  0  0  0  0  0  0  0  0  0  0
  -32.7210   14.6320  -22.4710 H   0  0  0  0  0  0  0  0  0  0  0  0
  -33.5760   14.9210  -21.0710 H   0  0  0  0  0  0  0  0  0  0  0  0
  -31.9130   15.0200  -21.0670 H   0  0  0  0  0  0  0  0  0  0  0  0
  1 10  1  0  0  0  0
  1  2  1  0  0  0  0
  2  7  2  0  0  0  0
  2  3  1  0  0  0  0
  3  4  2  0  0  0  0
  4  5  1  0  0  0  0
  5  8  1  0  0  0  0
  6  5  2  0  0  0  0
  7  6  1  0  0  0  0
  8  9  1  0  0  0  0
 10 14  1  0  0  0  0
 10 11  2  0  0  0  0
 12 10  2  0  0  0  0
 14 13  1  0  0  0  0
 15 14  1  0  0  0  0
 16  1  1  0  0  0  0
 17 16  1  0  0  0  0
 18 17  1  0  0  0  0
 18 20  1  0  0  0  0
 18 21  1  0  0  0  0
 19 18  1  0  0  0  0
M  END
>  <MODEL>
1

>  <REMARK>
 VINA RESULT:      -5.4      0.000      0.000
  Name = ZINC20236076
                            x       y       z     vdW  Elec       q    Type
                         _______ _______ _______ _____ _____    ______ ____

>  <TORSDO>
F 7

>  <vina_score>
-5.4

$$$$
ZINC19844186
 OpenBabel01081722013D

 23 24  0  0  0  0  0  0  0  0999 V2000
  -30.0710   13.5620  -18.1490 N   0  0  0  0  0  0  0  0  0  0  0  0
  -29.9720   14.5690  -19.2150 C   0  0  0  0  0  0  0  0  0  0  0  0
  -28.5170   15.0360  -19.3390 C   0  0  0  0  0  0  0  0  0  0  0  0
  -27.6600   13.8530  -19.5190 N   0  0  0  0  0  0  0  0  0  0  0  0
  -27.8020   12.7410  -18.5660 C   0  0  0  0  0  0  0  0  0  0  0  0
  -29.2840   12.3650  -18.4730 C   0  0  0  0  0  0  0  0  0  0  0  0
  -33.5990   12.6800  -18.6930 C   0  0  0  0  0  0  0  0  0  0  0  0
  -34.0480   12.5840  -17.3830 C   0  0  0  0  0  0  0  0  0  0  0  0
  -33.1760   12.8040  -16.3340 C   0  0  0  0  0  0  0  0  0  0  0  0
  -31.8570   13.1300  -16.5850 C   0  0  0  0  0  0  0  0  0  0  0  0
  -31.4030   13.2330  -17.8950 C   0  0  0  0  0  0  0  0  0  0  0  0
  -32.2770   13.0070  -18.9500 C   0  0  0  0  0  0  0  0  0  0  0  0
  -34.1310   11.3930  -20.6210 C   0  0  0  0  0  0  0  0  0  0  0  0
  -34.4570   12.4580  -19.7240 O   0  0  0  0  0  0  0  0  0  0  0  0
  -26.5680   13.7750  -20.7600 S   0  0  0  0  0  0  0  0  0  0  0  0
  -25.8470   12.5730  -20.5330 O   0  0  0  0  0  0  0  0  0  0  0  0
  -25.9060   15.0330  -20.7390 O   0  0  0  0  0  0  0  0  0  0  0  0
  -27.5760   13.6260  -22.2600 C   0  0  0  0  0  0  0  0  0  0  0  0
  -28.3830   12.3280  -22.2050 C   0  0  0  0  0  0  0  0  0  0  0  0
  -29.8020   12.6410  -21.9930 N   0  0  0  0  0  0  0  0  0  0  0  0
  -30.3290   12.4220  -22.8390 H   0  0  0  0  0  0  0  0  0  0  0  0
  -30.1610   12.0870  -21.2160 H   0  0  0  0  0  0  0  0  0  0  0  0
  -29.9030   13.6330  -21.7780 H   0  0  0  0  0  0  0  0  0  0  0  0
  1 11  1  0  0  0  0
  2  1  1  0  0  0  0
  3  2  1  0  0  0  0
  4  3  1  0  0  0  0
  4  5  1  0  0  0  0
  5  6  1  0  0  0  0
  6  1  1  0  0  0  0
  7  8  1  0  0  0  0
  8  9  2  0  0  0  0
 10  9  1  0  0  0  0
 11 10  2  0  0  0  0
 12  7  2  0  0  0  0
 12 11  1  0  0  0  0
 13 14  1  0  0  0  0
 14  7  1  0  0  0  0
 15 17  2  0  0  0  0
 15 16  2  0  0  0  0
 15  4  1  0  0  0  0
 18 19  1  0  0  0  0
 18 15  1  0  0  0  0
 19 20  1  0  0  0  0
 20 23  1  0  0  0  0
 20 22  1  0  0  0  0
 21 20  1  0  0  0  0
M  END
>  <MODEL>
1

>  <REMARK>
 VINA RESULT:      -5.4      0.000      0.000
  Name = ZINC19844186
                            x       y       z     vdW  Elec       q    Type
                         _______ _______ _______ _____ _____    ______ ____

>  <TORSDO>
F 6

>  <vina_score>
-5.4

$$$$
ZINC00531613
 OpenBabel01081721483D

 25 26  0  0  0  0  0  0  0  0999 V2000
  -30.4030   13.8170  -19.5000 C   0  0  0  0  0  0  0  0  0  0  0  0
  -30.3400   15.1270  -19.5660 N   0  0  0  0  0  0  0  0  0  0  0  0
  -29.3800   15.4810  -20.3440 N   0  0  0  0  0  0  0  0  0  0  0  0
  -28.7670   14.4190  -20.8160 C   0  0  0  0  0  0  0  0  0  0  0  0
  -29.4010   13.3240  -20.3010 N   0  0  0  0  0  0  0  0  0  0  0  0
  -33.1810   11.5340  -17.2300 C   0  0  0  0  0  0  0  0  0  0  0  0
  -32.2030   12.2770  -16.5840 C   0  0  0  0  0  0  0  0  0  0  0  0
  -31.3000   13.0190  -17.3180 C   0  0  0  0  0  0  0  0  0  0  0  0
  -31.3700   13.0230  -18.7120 C   0  0  0  0  0  0  0  0  0  0  0  0
  -32.3580   12.2790  -19.3610 C   0  0  0  0  0  0  0  0  0  0  0  0
  -33.2550   11.5330  -18.6200 C   0  0  0  0  0  0  0  0  0  0  0  0
  -34.2690   11.1950  -15.1420 C   0  0  0  0  0  0  0  0  0  0  0  0
  -34.0680   10.8050  -16.5020 O   0  0  0  0  0  0  0  0  0  0  0  0
  -34.2150   10.8030  -19.2490 O   0  0  0  0  0  0  0  0  0  0  0  0
  -34.2150   10.8260  -20.6780 C   0  0  0  0  0  0  0  0  0  0  0  0
  -29.0970   12.0110  -20.5290 N   0  0  0  0  0  0  0  0  0  0  0  0
  -29.3990   11.5720  -21.3590 H   0  0  0  0  0  0  0  0  0  0  0  0
  -28.5780   11.5030  -19.8650 H   0  0  0  0  0  0  0  0  0  0  0  0
  -27.3890   14.4100  -21.9140 S   0  0  0  0  0  0  0  0  0  0  0  0
  -26.0350   14.5440  -20.7210 C   0  0  0  0  0  0  0  0  0  0  0  0
  -25.8300   13.2160  -20.0420 C   0  0  0  0  0  0  0  0  0  0  0  0
  -26.1500   13.0680  -18.7410 N   0  0  0  0  0  0  0  0  0  0  0  0
  -26.0150   12.1980  -18.2970 H   0  0  0  0  0  0  0  0  0  0  0  0
  -26.5170   13.8270  -18.2340 H   0  0  0  0  0  0  0  0  0  0  0  0
  -25.3770   12.2780  -20.6660 O   0  0  0  0  0  0  0  0  0  0  0  0
  1  9  1  0  0  0  0
  2  1  2  0  0  0  0
  3  2  1  0  0  0  0
  4  3  2  0  0  0  0
  4  5  1  0  0  0  0
  5  1  1  0  0  0  0
  6  7  1  0  0  0  0
  6 13  1  0  0  0  0
  8  7  2  0  0  0  0
  9  8  1  0  0  0  0
 10  9  2  0  0  0  0
 10 11  1  0  0  0  0
 11  6  2  0  0  0  0
 13 12  1  0  0  0  0
 14 11  1  0  0  0  0
 15 14  1  0  0  0  0
 16  5  1  0  0  0  0
 16 18  1  0  0  0  0
 17 16  1  0  0  0  0
 19  4  1  0  0  0  0
 19 20  1  0  0  0  0
 20 21  1  0  0  0  0
 21 22  1  0  0  0  0
 22 23  1  0  0  0  0
 22 24  1  0  0  0  0
 25 21  2  0  0  0  0
M  END
>  <MODEL>
1

>  <REMARK>
 VINA RESULT:      -5.3      0.000      0.000
  Name = ZINC00531613
                            x       y       z     vdW  Elec       q    Type
                         _______ _______ _______ _____ _____    ______ ____

>  <TORSDO>
F 7

>  <vina_score>
-5.3

$$$$
ZINC23581324
 OpenBabel01081721513D

 26 28  0  0  1  0  0  0  0  0999 V2000
  -27.9830   12.5190  -20.4510 N   0  0  0  0  0  0  0  0  0  0  0  0
  -28.8620   12.2640  -21.4410 C   0  0  0  0  0  0  0  0  0  0  0  0
  -30.1440   11.7940  -21.1240 C   0  0  0  0  0  0  0  0  0  0  0  0
  -30.4840   11.6120  -19.7960 C   0  0  0  0  0  0  0  0  0  0  0  0
  -29.5320   11.8980  -18.7930 C   0  0  0  0  0  0  0  0  0  0  0  0
  -28.5410   12.4380  -22.6060 O   0  0  0  0  0  0  0  0  0  0  0  0
  -28.3450   12.3280  -19.1130 N   0  0  0  0  0  0  0  0  0  0  0  0
  -31.7440   11.1560  -19.4550 N   0  0  0  0  0  0  0  0  0  0  0  0
  -32.7750   11.7720  -20.3020 C   0  0  0  0  0  0  0  0  0  0  0  0
  -34.1440   11.1960  -19.9300 C   0  0  0  0  0  0  0  0  0  0  0  0
  -34.3860   11.4140  -18.5370 O   0  0  0  0  0  0  0  0  0  0  0  0
  -33.4010   10.8270  -17.6830 C   0  0  1  0  0  0  0  0  0  0  0  0
  -32.0240   11.3990  -18.0320 C   0  0  0  0  0  0  0  0  0  0  0  0
  -33.7320   11.1470  -16.2250 C   0  0  0  0  0  0  0  0  0  0  0  0
  -33.8200   12.6630  -16.0430 C   0  0  0  0  0  0  0  0  0  0  0  0
  -34.5800   12.9670  -14.8220 N   0  0  0  0  0  0  0  0  0  0  0  0
  -34.8970   12.0970  -14.3940 H   0  0  0  0  0  0  0  0  0  0  0  0
  -33.9830   13.4710  -14.1660 H   0  0  0  0  0  0  0  0  0  0  0  0
  -35.3870   13.5440  -15.0590 H   0  0  0  0  0  0  0  0  0  0  0  0
  -26.6410   13.0040  -20.7780 C   0  0  0  0  0  0  0  0  0  0  0  0
  -26.6430   14.5340  -20.7990 C   0  0  0  0  0  0  0  0  0  0  0  0
  -28.6610   15.6980  -18.0470 C   0  0  0  0  0  0  0  0  0  0  0  0
  -29.5720   15.7890  -19.1030 C   0  0  0  0  0  0  0  0  0  0  0  0
  -28.9710   15.3950  -20.1970 N   0  0  0  0  0  0  0  0  0  0  0  0
  -27.6580   15.0340  -19.8680 N   0  0  0  0  0  0  0  0  0  0  0  0
  -27.4910   15.2320  -18.5440 C   0  0  0  0  0  0  0  0  0  0  0  0
  1  7  1  0  0  0  0
  2  3  1  0  0  0  0
  2  1  1  0  0  0  0
  3  4  2  0  0  0  0
  4  8  1  0  0  0  0
  4  5  1  0  0  0  0
  6  2  2  0  0  0  0
  7  5  2  0  0  0  0
  8 13  1  0  0  0  0
  9 10  1  0  0  0  0
  9  8  1  0  0  0  0
 10 11  1  0  0  0  0
 11 12  1  0  0  0  0
 12 14  1  1  0  0  0
 13 12  1  0  0  0  0
 14 15  1  0  0  0  0
 15 16  1  0  0  0  0
 16 17  1  0  0  0  0
 16 18  1  0  0  0  0
 19 16  1  0  0  0  0
 20  1  1  0  0  0  0
 21 20  1  0  0  0  0
 21 25  1  0  0  0  0
 23 22  1  0  0  0  0
 24 25  1  0  0  0  0
 24 23  2  0  0  0  0
 25 26  1  0  0  0  0
 26 22  2  0  0  0  0
M  END
>  <MODEL>
1

>  <REMARK>
 VINA RESULT:      -5.3      0.000      0.000
  Name = ZINC23581324
                            x       y       z     vdW  Elec       q    Type
                         _______ _______ _______ _____ _____    ______ ____

>  <TORSDO>
F 7

>  <vina_score>
-5.3

$$$$
ZINC24983764
 OpenBabel01081721533D

 29 30  0  0  0  0  0  0  0  0999 V2000
  -29.8800   14.2590  -19.1970 C   0  0  0  0  0  0  0  0  0  0  0  0
  -30.6890   14.6230  -20.2120 N   0  0  0  0  0  0  0  0  0  0  0  0
  -30.3770   14.5470  -21.1420 H   0  0  0  0  0  0  0  0  0  0  0  0
  -30.2660   14.3520  -18.0480 O   0  0  0  0  0  0  0  0  0  0  0  0
  -28.2400   13.1660  -20.7260 C   0  0  0  0  0  0  0  0  0  0  0  0
  -26.9620   12.6880  -20.9850 C   0  0  0  0  0  0  0  0  0  0  0  0
  -25.9790   12.7830  -20.0210 C   0  0  0  0  0  0  0  0  0  0  0  0
  -26.2580   13.3570  -18.7890 C   0  0  0  0  0  0  0  0  0  0  0  0
  -25.2880   13.4460  -17.8520 F   0  0  0  0  0  0  0  0  0  0  0  0
  -27.5210   13.8430  -18.5160 C   0  0  0  0  0  0  0  0  0  0  0  0
  -28.5260   13.7470  -19.4820 C   0  0  0  0  0  0  0  0  0  0  0  0
  -29.2310   13.0700  -21.6970 N   0  0  0  0  0  0  0  0  0  0  0  0
  -29.3930   13.8220  -22.3110 H   0  0  0  0  0  0  0  0  0  0  0  0
  -30.2630   11.0610  -20.1240 C   0  0  0  0  0  0  0  0  0  0  0  0
  -30.1380   11.6900  -21.8200 S   0  0  0  0  0  0  0  0  0  0  0  0
  -29.3530   10.8090  -22.6120 O   0  0  0  0  0  0  0  0  0  0  0  0
  -31.4100   12.1320  -22.2730 O   0  0  0  0  0  0  0  0  0  0  0  0
  -32.0340   15.1320  -19.9290 C   0  0  0  0  0  0  0  0  0  0  0  0
  -33.0410   13.9830  -20.0120 C   0  0  0  0  0  0  0  0  0  0  0  0
  -32.5200   12.8230  -19.2850 N   0  0  0  0  0  0  0  0  0  0  0  0
  -31.7750   12.3000  -19.6620 H   0  0  0  0  0  0  0  0  0  0  0  0
  -33.0750   12.4610  -18.0680 C   0  0  0  0  0  0  0  0  0  0  0  0
  -32.9140   11.1580  -17.6000 C   0  0  0  0  0  0  0  0  0  0  0  0
  -33.4640   10.8030  -16.3980 C   0  0  0  0  0  0  0  0  0  0  0  0
  -34.1770   11.7730  -15.6760 C   0  0  0  0  0  0  0  0  0  0  0  0
  -34.3030   13.0570  -16.2080 C   0  0  0  0  0  0  0  0  0  0  0  0
  -33.7530   13.3580  -17.3660 N   0  0  0  0  0  0  0  0  0  0  0  0
  -34.7700   11.4480  -14.4140 C   0  0  0  0  0  0  0  0  0  0  0  0
  -35.2410   11.1890  -13.4130 N   0  0  0  0  0  0  0  0  0  0  0  0
  1  4  2  0  0  0  0
  2 18  1  0  0  0  0
  2  1  1  0  0  0  0
  3  2  1  0  0  0  0
  5 11  1  0  0  0  0
  6  5  2  0  0  0  0
  6  7  1  0  0  0  0
  7  8  2  0  0  0  0
  8 10  1  0  0  0  0
  8  9  1  0  0  0  0
 11  1  1  0  0  0  0
 11 10  2  0  0  0  0
 12  5  1  0  0  0  0
 13 12  1  0  0  0  0
 15 12  1  0  0  0  0
 15 14  1  0  0  0  0
 16 15  2  0  0  0  0
 17 15  2  0  0  0  0
 19 18  1  0  0  0  0
 19 20  1  0  0  0  0
 20 22  1  0  0  0  0
 21 20  1  0  0  0  0
 22 23  2  0  0  0  0
 22 27  1  0  0  0  0
 23 24  1  0  0  0  0
 24 25  2  0  0  0  0
 25 28  1  0  0  0  0
 26 25  1  0  0  0  0
 27 26  2  0  0  0  0
 28 29  3  0  0  0  0
M  END
>  <MODEL>
1

>  <REMARK>
 VINA RESULT:      -5.3      0.000      0.000
  Name = ZINC24983764
                            x       y       z     vdW  Elec       q    Type
                         _______ _______ _______ _____ _____    ______ ____

>  <TORSDO>
F 8

>  <vina_score>
-5.3

$$$$
ZINC01635054
 OpenBabel01081721553D

 24 24  0  0  0  0  0  0  0  0999 V2000
  -33.0830   11.7900  -18.7030 N   0  0  0  0  0  0  0  0  0  0  0  0
  -32.2440   12.1750  -19.0430 H   0  0  0  0  0  0  0  0  0  0  0  0
  -33.1350   11.2800  -17.4560 C   0  0  0  0  0  0  0  0  0  0  0  0
  -32.0370   11.2990  -16.6750 N   0  0  0  0  0  0  0  0  0  0  0  0
  -32.0750   10.9260  -15.7640 H   0  0  0  0  0  0  0  0  0  0  0  0
  -34.1730   10.8040  -17.0370 O   0  0  0  0  0  0  0  0  0  0  0  0
  -30.8420   11.8470  -17.1580 N   0  0  0  0  0  0  0  0  0  0  0  0
  -30.7880   13.1030  -17.4800 C   0  0  0  0  0  0  0  0  0  0  0  0
  -29.5300   13.6800  -17.9890 C   0  0  0  0  0  0  0  0  0  0  0  0
  -29.0070   14.8400  -17.4120 C   0  0  0  0  0  0  0  0  0  0  0  0
  -27.8260   15.3710  -17.8890 C   0  0  0  0  0  0  0  0  0  0  0  0
  -27.1670   14.7640  -18.9430 C   0  0  0  0  0  0  0  0  0  0  0  0
  -27.6790   13.6150  -19.5190 C   0  0  0  0  0  0  0  0  0  0  0  0
  -28.8560   13.0700  -19.0490 C   0  0  0  0  0  0  0  0  0  0  0  0
  -26.9640   12.9700  -20.6430 N   0  0  0  0  0  0  0  0  0  0  0  0
  -25.8070   12.6150  -20.5060 O   0  0  0  0  0  0  0  0  0  0  0  0
  -27.5340   12.7950  -21.7050 O   0  0  0  0  0  0  0  0  0  0  0  0
  -34.2770   11.7700  -19.5530 C   0  0  0  0  0  0  0  0  0  0  0  0
  -33.8640   11.5220  -21.0050 C   0  0  0  0  0  0  0  0  0  0  0  0
  -32.5130   10.8040  -21.0360 C   0  0  0  0  0  0  0  0  0  0  0  0
  -31.4360   12.9030  -21.5840 C   0  0  0  0  0  0  0  0  0  0  0  0
  -31.6280   11.4960  -21.9960 N   0  0  0  0  0  0  0  0  0  0  0  0
  -32.0610   11.4780  -22.9190 H   0  0  0  0  0  0  0  0  0  0  0  0
  -30.3220   10.8080  -22.0660 C   0  0  0  0  0  0  0  0  0  0  0  0
  1  3  1  0  0  0  0
  2  1  1  0  0  0  0
  3  6  2  0  0  0  0
  3  4  1  0  0  0  0
  4  5  1  0  0  0  0
  7  4  1  0  0  0  0
  8  7  2  0  0  0  0
  9  8  1  0  0  0  0
  9 10  2  0  0  0  0
 11 10  1  0  0  0  0
 12 11  2  0  0  0  0
 13 14  2  0  0  0  0
 13 12  1  0  0  0  0
 14  9  1  0  0  0  0
 15 16  2  0  0  0  0
 15 13  1  0  0  0  0
 17 15  2  0  0  0  0
 18  1  1  0  0  0  0
 19 18  1  0  0  0  0
 20 19  1  0  0  0  0
 22 21  1  0  0  0  0
 22 20  1  0  0  0  0
 23 22  1  0  0  0  0
 24 22  1  0  0  0  0
M  END
>  <MODEL>
1

>  <REMARK>
 VINA RESULT:      -5.3      0.000      0.000
  Name = ZINC01635054
                            x       y       z     vdW  Elec       q    Type
                         _______ _______ _______ _____ _____    ______ ____

>  <TORSDO>
F 7

>  <vina_score>
-5.3

$$$$
ZINC19001641
 OpenBabel01081721593D

 26 26  0  0  1  0  0  0  0  0999 V2000
  -31.6040   12.0290  -16.6890 C   0  0  0  0  0  0  0  0  0  0  0  0
  -27.6650   13.8800  -18.7300 N   0  0  0  0  0  0  0  0  0  0  0  0
  -27.1350   13.1560  -18.3250 H   0  0  0  0  0  0  0  0  0  0  0  0
  -28.9950   13.9400  -18.5190 C   0  0  0  0  0  0  0  0  0  0  0  0
  -29.5990   13.0100  -17.7550 N   0  0  0  0  0  0  0  0  0  0  0  0
  -29.0690   12.2850  -17.3500 H   0  0  0  0  0  0  0  0  0  0  0  0
  -30.9290   13.0700  -17.5440 C   0  0  0  0  0  0  0  0  0  0  0  0
  -31.5820   13.9610  -18.0430 O   0  0  0  0  0  0  0  0  0  0  0  0
  -29.6500   14.8340  -19.0200 O   0  0  0  0  0  0  0  0  0  0  0  0
  -27.0090   14.8920  -19.5630 C   0  0  0  0  0  0  0  0  0  0  0  0
  -25.9840   12.8050  -20.4780 C   0  0  0  0  0  0  0  0  0  0  0  0
  -26.4380   14.2270  -20.8170 C   0  0  0  0  0  0  0  0  0  0  0  0
  -27.5160   14.1730  -21.9020 C   0  0  0  0  0  0  0  0  0  0  0  0
  -32.0330   10.9210  -17.5240 O   0  0  0  0  0  0  0  0  0  0  0  0
  -33.3420   10.8460  -17.8130 C   0  0  0  0  0  0  0  0  0  0  0  0
  -34.1550   10.8030  -16.9210 O   0  0  0  0  0  0  0  0  0  0  0  0
  -33.7960   10.8160  -19.2490 C   0  0  0  0  0  0  0  0  0  0  0  0
  -33.8610   12.2440  -19.7930 C   0  0  0  0  0  0  0  0  0  0  0  0
  -33.0580   12.3320  -21.0930 C   0  0  1  0  0  0  0  0  0  0  0  0
  -32.2870   13.6360  -21.1550 C   0  0  0  0  0  0  0  0  0  0  0  0
  -30.9860   13.2860  -21.2100 N   0  0  0  0  0  0  0  0  0  0  0  0
  -30.2420   13.9300  -21.2580 H   0  0  0  0  0  0  0  0  0  0  0  0
  -30.8300   11.9570  -21.1890 C   0  0  0  0  0  0  0  0  0  0  0  0
  -29.7500   11.4030  -21.2290 O   0  0  0  0  0  0  0  0  0  0  0  0
  -32.7450   14.7570  -21.1570 O   0  0  0  0  0  0  0  0  0  0  0  0
  -32.0070   11.3010  -21.1230 N   0  0  0  0  0  0  0  0  0  0  0  0
  2  4  1  0  0  0  0
  2  3  1  0  0  0  0
  4  5  1  0  0  0  0
  5  7  1  0  0  0  0
  5  6  1  0  0  0  0
  7  1  1  0  0  0  0
  8  7  2  0  0  0  0
  9  4  2  0  0  0  0
 10  2  1  0  0  0  0
 12 11  1  0  0  0  0
 12 10  1  0  0  0  0
 13 12  1  0  0  0  0
 14  1  1  0  0  0  0
 15 14  1  0  0  0  0
 15 16  2  0  0  0  0
 17 15  1  0  0  0  0
 18 17  1  0  0  0  0
 19 18  1  1  0  0  0
 20 19  1  0  0  0  0
 21 23  1  0  0  0  0
 21 20  1  0  0  0  0
 22 21  1  0  0  0  0
 23 26  1  0  0  0  0
 24 23  2  0  0  0  0
 25 20  2  0  0  0  0
 26 19  1  0  0  0  0
M  END
>  <MODEL>
1

>  <REMARK>
 VINA RESULT:      -5.3      0.000      0.000
  Name = ZINC19001641
                            x       y       z     vdW  Elec       q    Type
                         _______ _______ _______ _____ _____    ______ ____

>  <TORSDO>
F 8

>  <vina_score>
-5.3

$$$$
ZINC31944609
 OpenBabel01081722003D

 21 21  0  0  0  0  0  0  0  0999 V2000
  -31.7230   12.1050  -19.4410 N   0  0  0  0  0  0  0  0  0  0  0  0
  -32.1040   12.5870  -20.2110 H   0  0  0  0  0  0  0  0  0  0  0  0
  -30.5140   11.5180  -19.5450 C   0  0  0  0  0  0  0  0  0  0  0  0
  -30.0050   11.0050  -18.5710 O   0  0  0  0  0  0  0  0  0  0  0  0
  -34.6210   11.7940  -14.5750 C   0  0  0  0  0  0  0  0  0  0  0  0
  -33.8510   11.8770  -15.8680 C   0  0  0  0  0  0  0  0  0  0  0  0
  -33.1490   13.0270  -16.1800 C   0  0  0  0  0  0  0  0  0  0  0  0
  -32.4420   13.1050  -17.3640 C   0  0  0  0  0  0  0  0  0  0  0  0
  -32.4380   12.0280  -18.2410 C   0  0  0  0  0  0  0  0  0  0  0  0
  -33.1480   10.8780  -17.9270 C   0  0  0  0  0  0  0  0  0  0  0  0
  -33.8490   10.8040  -16.7380 C   0  0  0  0  0  0  0  0  0  0  0  0
  -29.7950   11.5010  -20.8690 C   0  0  0  0  0  0  0  0  0  0  0  0
  -28.8720   13.0480  -21.0760 S   0  0  0  0  0  0  0  0  0  0  0  0
  -29.7310   14.1320  -20.7500 O   0  0  0  0  0  0  0  0  0  0  0  0
  -28.2380   13.0270  -22.3480 O   0  0  0  0  0  0  0  0  0  0  0  0
  -27.5920   12.9260  -19.7950 C   0  0  0  0  0  0  0  0  0  0  0  0
  -27.6690   14.1300  -18.8920 C   0  0  0  0  0  0  0  0  0  0  0  0
  -28.5920   14.0930  -17.5860 S   0  0  0  0  0  0  0  0  0  0  0  0
  -26.9600   15.2380  -19.1840 N   0  0  0  0  0  0  0  0  0  0  0  0
  -27.4220   16.0970  -19.3170 H   0  0  0  0  0  0  0  0  0  0  0  0
  -25.9790   15.1890  -19.2650 H   0  0  0  0  0  0  0  0  0  0  0  0
  1  9  1  0  0  0  0
  2  1  1  0  0  0  0
  3  1  1  0  0  0  0
  3  4  2  0  0  0  0
  6  5  1  0  0  0  0
  7  6  1  0  0  0  0
  8  7  2  0  0  0  0
  9 10  2  0  0  0  0
  9  8  1  0  0  0  0
 10 11  1  0  0  0  0
 11  6  2  0  0  0  0
 12  3  1  0  0  0  0
 13 12  1  0  0  0  0
 13 14  2  0  0  0  0
 13 16  1  0  0  0  0
 15 13  2  0  0  0  0
 16 17  1  0  0  0  0
 17 18  2  0  0  0  0
 19 17  1  0  0  0  0
 20 19  1  0  0  0  0
 21 19  1  0  0  0  0
M  END
>  <MODEL>
1

>  <REMARK>
 VINA RESULT:      -5.3      0.000      0.000
  Name = ZINC31944609
                            x       y       z     vdW  Elec       q    Type
                         _______ _______ _______ _____ _____    ______ ____

>  <TORSDO>
F 6

>  <vina_score>
-5.3

$$$$
ZINC06425106
 OpenBabel01081722023D

 22 21  0  0  1  0  0  0  0  0999 V2000
  -27.7770   14.3650  -20.1110 C   0  0  1  0  0  0  0  0  0  0  0  0
  -29.0850   14.6940  -20.5840 O   0  0  0  0  0  0  0  0  0  0  0  0
  -29.7470   14.2020  -20.0730 H   0  0  0  0  0  0  0  0  0  0  0  0
  -27.6870   14.6630  -18.6130 C   0  0  2  0  0  0  0  0  0  0  0  0
  -29.8480   13.7120  -18.0480 N   0  0  0  0  0  0  0  0  0  0  0  0
  -28.5680   13.7020  -17.8570 C   0  0  0  0  0  0  0  0  0  0  0  0
  -31.9120   12.6220  -17.7310 C   0  0  0  0  0  0  0  0  0  0  0  0
  -32.5450   13.4840  -19.1320 S   0  0  0  0  0  0  0  0  0  0  0  0
  -30.6670   12.8190  -17.3450 N   0  0  0  0  0  0  0  0  0  0  0  0
  -33.8520   12.6650  -15.8010 C   0  0  0  0  0  0  0  0  0  0  0  0
  -32.9420   11.5000  -16.8470 S   0  0  0  0  0  0  0  0  0  0  0  0
  -28.1200   16.0020  -18.3670 O   0  0  0  0  0  0  0  0  0  0  0  0
  -29.0740   16.0680  -18.5280 H   0  0  0  0  0  0  0  0  0  0  0  0
  -27.5060   12.8790  -20.3530 C   0  0  2  0  0  0  0  0  0  0  0  0
  -26.1000   12.6330  -20.2830 O   0  0  0  0  0  0  0  0  0  0  0  0
  -25.9420   11.6790  -20.2080 H   0  0  0  0  0  0  0  0  0  0  0  0
  -28.0250   12.4840  -21.7380 C   0  0  2  0  0  0  0  0  0  0  0  0
  -27.9540   13.6120  -22.6120 O   0  0  0  0  0  0  0  0  0  0  0  0
  -28.8010   14.0840  -22.5980 H   0  0  0  0  0  0  0  0  0  0  0  0
  -29.4760   12.0140  -21.6240 C   0  0  0  0  0  0  0  0  0  0  0  0
  -29.7260   11.5560  -20.2950 O   0  0  0  0  0  0  0  0  0  0  0  0
  -30.5060   10.9770  -20.2930 H   0  0  0  0  0  0  0  0  0  0  0  0
  1  2  1  1  0  0  0
  1  4  1  0  0  0  0
  2  3  1  0  0  0  0
  4 12  1  6  0  0  0
  4  6  1  0  0  0  0
  5  6  2  0  0  0  0
  5  9  1  0  0  0  0
  7  9  1  0  0  0  0
  7 11  1  0  0  0  0
  8  7  2  0  0  0  0
 11 10  1  0  0  0  0
 13 12  1  0  0  0  0
 14 15  1  6  0  0  0
 14  1  1  0  0  0  0
 15 16  1  0  0  0  0
 17 18  1  6  0  0  0
 17 20  1  0  0  0  0
 17 14  1  0  0  0  0
 18 19  1  0  0  0  0
 20 21  1  0  0  0  0
 21 22  1  0  0  0  0
M  END
>  <MODEL>
1

>  <REMARK>
 VINA RESULT:      -5.3      0.000      0.000
  Name = ZINC06425106
                            x       y       z     vdW  Elec       q    Type
                         _______ _______ _______ _____ _____    ______ ____

>  <TORSDO>
F 12

>  <vina_score>
-5.3

$$$$
ZINC28069362
 OpenBabel01081721393D

 26 27  0  0  0  0  0  0  0  0999 V2000
  -29.9040   11.4210  -21.4510 N   0  0  0  0  0  0  0  0  0  0  0  0
  -29.6650   10.8150  -20.7130 H   0  0  0  0  0  0  0  0  0  0  0  0
  -31.0750   12.0870  -21.4230 C   0  0  0  0  0  0  0  0  0  0  0  0
  -31.3700   12.8370  -22.3340 O   0  0  0  0  0  0  0  0  0  0  0  0
  -32.0000   11.9080  -20.2890 C   0  0  0  0  0  0  0  0  0  0  0  0
  -33.2340   11.2650  -20.4660 C   0  0  0  0  0  0  0  0  0  0  0  0
  -33.5810   10.8030  -21.6910 O   0  0  0  0  0  0  0  0  0  0  0  0
  -34.0590   11.1060  -19.4460 N   0  0  0  0  0  0  0  0  0  0  0  0
  -34.9210   10.6520  -19.5930 H   0  0  0  0  0  0  0  0  0  0  0  0
  -33.7620   11.5400  -18.2370 C   0  0  0  0  0  0  0  0  0  0  0  0
  -32.5640   12.1840  -17.9820 C   0  0  0  0  0  0  0  0  0  0  0  0
  -31.6620   12.3770  -19.0140 C   0  0  0  0  0  0  0  0  0  0  0  0
  -32.2500   12.6630  -16.6170 N   0  0  0  0  0  0  0  0  0  0  0  0
  -31.1760   12.3940  -16.1090 O   0  0  0  0  0  0  0  0  0  0  0  0
  -33.0660   13.3250  -16.0010 O   0  0  0  0  0  0  0  0  0  0  0  0
  -28.9850   11.6000  -22.5790 C   0  0  0  0  0  0  0  0  0  0  0  0
  -27.6990   12.2660  -22.0880 C   0  0  0  0  0  0  0  0  0  0  0  0
  -27.8520   13.7860  -22.1620 C   0  0  0  0  0  0  0  0  0  0  0  0
  -28.6130   15.2630  -16.6930 C   0  0  0  0  0  0  0  0  0  0  0  0
  -28.7140   14.5540  -18.0440 C   0  0  0  0  0  0  0  0  0  0  0  0
  -29.1800   15.5490  -19.1110 C   0  0  0  0  0  0  0  0  0  0  0  0
  -29.2200   14.8500  -20.4720 C   0  0  0  0  0  0  0  0  0  0  0  0
  -27.8830   14.3420  -20.8020 N   0  0  0  0  0  0  0  0  0  0  0  0
  -27.2350   15.1280  -20.7690 H   0  0  0  0  0  0  0  0  0  0  0  0
  -27.4330   13.3490  -19.8180 C   0  0  0  0  0  0  0  0  0  0  0  0
  -27.3400   14.0030  -18.4370 C   0  0  0  0  0  0  0  0  0  0  0  0
  1  3  1  0  0  0  0
  1  2  1  0  0  0  0
  3  5  1  0  0  0  0
  4  3  2  0  0  0  0
  5 12  2  0  0  0  0
  6  5  1  0  0  0  0
  6  8  1  0  0  0  0
  7  6  2  0  0  0  0
  8 10  1  0  0  0  0
  9  8  1  0  0  0  0
 10 11  2  0  0  0  0
 11 13  1  0  0  0  0
 12 11  1  0  0  0  0
 13 14  2  0  0  0  0
 13 15  2  0  0  0  0
 16 17  1  0  0  0  0
 16  1  1  0  0  0  0
 18 17  1  0  0  0  0
 18 23  1  0  0  0  0
 20 19  1  0  0  0  0
 21 20  1  0  0  0  0
 22 21  1  0  0  0  0
 23 24  1  0  0  0  0
 23 22  1  0  0  0  0
 23 25  1  0  0  0  0
 25 26  1  0  0  0  0
 26 20  1  0  0  0  0
M  END
>  <MODEL>
1

>  <REMARK>
 VINA RESULT:      -5.3      0.000      0.000
  Name = ZINC28069362
                            x       y       z     vdW  Elec       q    Type
                         _______ _______ _______ _____ _____    ______ ____

>  <TORSDO>
F 6

>  <vina_score>
-5.3

$$$$
ZINC08739346
 OpenBabel01081721413D

 23 24  0  0  0  0  0  0  0  0999 V2000
  -32.6100   12.6290  -18.2690 C   0  0  0  0  0  0  0  0  0  0  0  0
  -31.2690   12.7710  -18.0530 C   0  0  0  0  0  0  0  0  0  0  0  0
  -30.7510   13.0240  -16.6610 C   0  0  0  0  0  0  0  0  0  0  0  0
  -30.3790   12.6810  -19.1250 C   0  0  0  0  0  0  0  0  0  0  0  0
  -30.9640   12.4420  -20.3920 C   0  0  0  0  0  0  0  0  0  0  0  0
  -30.2330   12.3340  -21.4910 N   0  0  0  0  0  0  0  0  0  0  0  0
  -28.9250   12.4450  -21.4610 C   0  0  0  0  0  0  0  0  0  0  0  0
  -28.2280   12.3280  -22.6100 O   0  0  0  0  0  0  0  0  0  0  0  0
  -28.2530   12.6770  -20.3000 N   0  0  0  0  0  0  0  0  0  0  0  0
  -28.9040   12.7960  -19.1260 C   0  0  0  0  0  0  0  0  0  0  0  0
  -28.2940   12.9990  -18.0920 O   0  0  0  0  0  0  0  0  0  0  0  0
  -32.6990   12.3540  -20.0300 S   0  0  0  0  0  0  0  0  0  0  0  0
  -33.7020   12.6870  -17.2970 C   0  0  0  0  0  0  0  0  0  0  0  0
  -34.6470   13.4300  -17.4880 O   0  0  0  0  0  0  0  0  0  0  0  0
  -33.6600   11.9190  -16.1890 O   0  0  0  0  0  0  0  0  0  0  0  0
  -34.9500   11.2150  -14.2700 C   0  0  0  0  0  0  0  0  0  0  0  0
  -34.3620   12.3990  -15.0400 C   0  0  0  0  0  0  0  0  0  0  0  0
  -26.7930   12.7930  -20.3250 C   0  0  0  0  0  0  0  0  0  0  0  0
  -26.4010   14.2150  -20.7310 C   0  0  0  0  0  0  0  0  0  0  0  0
  -26.7170   15.1350  -19.6250 N   0  0  0  0  0  0  0  0  0  0  0  0
  -27.6430   15.5360  -19.7710 H   0  0  0  0  0  0  0  0  0  0  0  0
  -26.7040   14.6240  -18.7420 H   0  0  0  0  0  0  0  0  0  0  0  0
  -26.0240   15.8820  -19.5960 H   0  0  0  0  0  0  0  0  0  0  0  0
  1  2  2  0  0  0  0
  1 13  1  0  0  0  0
  2  3  1  0  0  0  0
  4  2  1  0  0  0  0
  5 12  1  0  0  0  0
  5  4  2  0  0  0  0
  6  7  1  0  0  0  0
  6  5  1  0  0  0  0
  7  9  1  0  0  0  0
  8  7  2  0  0  0  0
  9 10  1  0  0  0  0
 10  4  1  0  0  0  0
 10 11  2  0  0  0  0
 12  1  1  0  0  0  0
 13 15  1  0  0  0  0
 14 13  2  0  0  0  0
 15 17  1  0  0  0  0
 17 16  1  0  0  0  0
 18  9  1  0  0  0  0
 19 18  1  0  0  0  0
 19 20  1  0  0  0  0
 20 23  1  0  0  0  0
 20 22  1  0  0  0  0
 21 20  1  0  0  0  0
M  END
>  <MODEL>
1

>  <REMARK>
 VINA RESULT:      -5.3      0.000      0.000
  Name = ZINC08739346
                            x       y       z     vdW  Elec       q    Type
                         _______ _______ _______ _____ _____    ______ ____

>  <TORSDO>
F 6

>  <vina_score>
-5.3

$$$$
ZINC20341969
 OpenBabel01081721433D

 23 23  0  0  0  0  0  0  0  0999 V2000
  -31.3770   13.0350  -17.6780 C   0  0  0  0  0  0  0  0  0  0  0  0
  -31.2300   13.8110  -18.7690 N   0  0  0  0  0  0  0  0  0  0  0  0
  -31.9680   14.3930  -19.0640 H   0  0  0  0  0  0  0  0  0  0  0  0
  -30.4680   12.3190  -17.3150 O   0  0  0  0  0  0  0  0  0  0  0  0
  -30.0380   13.7930  -19.4780 C   0  0  0  0  0  0  0  0  0  0  0  0
  -29.7210   13.0590  -20.6160 C   0  0  0  0  0  0  0  0  0  0  0  0
  -28.3930   13.2380  -21.1540 C   0  0  0  0  0  0  0  0  0  0  0  0
  -27.9400   12.5000  -22.3860 C   0  0  0  0  0  0  0  0  0  0  0  0
  -27.5790   14.0920  -20.5090 C   0  0  0  0  0  0  0  0  0  0  0  0
  -26.1590   14.4660  -20.8460 C   0  0  0  0  0  0  0  0  0  0  0  0
  -28.5830   14.6750  -19.1590 S   0  0  0  0  0  0  0  0  0  0  0  0
  -30.6880   12.1520  -21.2400 C   0  0  0  0  0  0  0  0  0  0  0  0
  -31.4510   12.5840  -22.2650 O   0  0  0  0  0  0  0  0  0  0  0  0
  -30.8020   11.0120  -20.8340 O   0  0  0  0  0  0  0  0  0  0  0  0
  -32.6720   13.0550  -16.9070 C   0  0  0  0  0  0  0  0  0  0  0  0
  -33.4930   11.9020  -17.2980 N   0  0  0  0  0  0  0  0  0  0  0  0
  -34.4690   12.1970  -17.2960 H   0  0  0  0  0  0  0  0  0  0  0  0
  -34.1890   11.1090  -15.0870 C   0  0  0  0  0  0  0  0  0  0  0  0
  -33.3530   10.8040  -16.3310 C   0  0  0  0  0  0  0  0  0  0  0  0
  -33.1600   11.4540  -18.6560 C   0  0  0  0  0  0  0  0  0  0  0  0
  -34.2220   11.9590  -19.6350 C   0  0  0  0  0  0  0  0  0  0  0  0
  -33.7930   13.1960  -20.2070 O   0  0  0  0  0  0  0  0  0  0  0  0
  -33.8860   13.1570  -21.1710 H   0  0  0  0  0  0  0  0  0  0  0  0
  1  4  2  0  0  0  0
  1 15  1  0  0  0  0
  2  1  1  0  0  0  0
  3  2  1  0  0  0  0
  5 11  1  0  0  0  0
  5  2  1  0  0  0  0
  6  5  2  0  0  0  0
  7  6  1  0  0  0  0
  7  9  2  0  0  0  0
  8  7  1  0  0  0  0
  9 11  1  0  0  0  0
 10  9  1  0  0  0  0
 12 14  1  0  0  0  0
 12  6  1  0  0  0  0
 13 12  2  0  0  0  0
 16 17  1  0  0  0  0
 16 15  1  0  0  0  0
 16 19  1  0  0  0  0
 19 18  1  0  0  0  0
 20 16  1  0  0  0  0
 21 20  1  0  0  0  0
 22 21  1  0  0  0  0
 23 22  1  0  0  0  0
M  END
>  <MODEL>
1

>  <REMARK>
 VINA RESULT:      -5.3      0.000      0.000
  Name = ZINC20341969
                            x       y       z     vdW  Elec       q    Type
                         _______ _______ _______ _____ _____    ______ ____

>  <TORSDO>
F 8

>  <vina_score>
-5.3

$$$$
ZINC20236263
 OpenBabel01081721443D

 22 22  0  0  0  0  0  0  0  0999 V2000
  -30.3170   13.4160  -20.1860 N   0  0  0  0  0  0  0  0  0  0  0  0
  -32.9020   12.1850  -17.1560 C   0  0  0  0  0  0  0  0  0  0  0  0
  -33.3320   13.1030  -18.1040 C   0  0  0  0  0  0  0  0  0  0  0  0
  -32.4760   13.5110  -19.1080 C   0  0  0  0  0  0  0  0  0  0  0  0
  -31.1860   13.0020  -19.1690 C   0  0  0  0  0  0  0  0  0  0  0  0
  -30.7560   12.0850  -18.2200 C   0  0  0  0  0  0  0  0  0  0  0  0
  -31.6130   11.6770  -17.2160 C   0  0  0  0  0  0  0  0  0  0  0  0
  -33.7460   11.7850  -16.1670 O   0  0  0  0  0  0  0  0  0  0  0  0
  -35.0870   12.1580  -14.1910 C   0  0  0  0  0  0  0  0  0  0  0  0
  -34.2860   12.8040  -15.3230 C   0  0  0  0  0  0  0  0  0  0  0  0
  -29.2410   14.6420  -19.9090 S   0  0  0  0  0  0  0  0  0  0  0  0
  -30.0020   15.7590  -19.4690 O   0  0  0  0  0  0  0  0  0  0  0  0
  -28.3890   14.7010  -21.0450 O   0  0  0  0  0  0  0  0  0  0  0  0
  -28.2930   14.1840  -18.6310 N   0  0  0  0  0  0  0  0  0  0  0  0
  -27.2700   13.1500  -18.8110 C   0  0  0  0  0  0  0  0  0  0  0  0
  -28.4760   14.8140  -17.3200 C   0  0  0  0  0  0  0  0  0  0  0  0
  -30.3600   12.7610  -21.4960 C   0  0  0  0  0  0  0  0  0  0  0  0
  -29.3050   11.6550  -21.5480 C   0  0  0  0  0  0  0  0  0  0  0  0
  -28.2540   12.0250  -22.5060 N   0  0  0  0  0  0  0  0  0  0  0  0
  -28.6840   12.3940  -23.3540 H   0  0  0  0  0  0  0  0  0  0  0  0
  -27.6520   12.7360  -22.0910 H   0  0  0  0  0  0  0  0  0  0  0  0
  -27.6990   11.2010  -22.7360 H   0  0  0  0  0  0  0  0  0  0  0  0
  1 11  1  0  0  0  0
  1  5  1  0  0  0  0
  2  8  1  0  0  0  0
  3  2  2  0  0  0  0
  4  3  1  0  0  0  0
  5  4  2  0  0  0  0
  5  6  1  0  0  0  0
  6  7  2  0  0  0  0
  7  2  1  0  0  0  0
  8 10  1  0  0  0  0
 10  9  1  0  0  0  0
 11 12  2  0  0  0  0
 11 14  1  0  0  0  0
 13 11  2  0  0  0  0
 14 16  1  0  0  0  0
 15 14  1  0  0  0  0
 17  1  1  0  0  0  0
 18 17  1  0  0  0  0
 19 21  1  0  0  0  0
 19 18  1  0  0  0  0
 20 19  1  0  0  0  0
 22 19  1  0  0  0  0
M  END
>  <MODEL>
1

>  <REMARK>
 VINA RESULT:      -5.3      0.000      0.000
  Name = ZINC20236263
                            x       y       z     vdW  Elec       q    Type
                         _______ _______ _______ _____ _____    ______ ____

>  <TORSDO>
F 8

>  <vina_score>
-5.3

$$$$
ZINC05434281
 OpenBabel01081721453D

 17 16  0  0  1  0  0  0  0  0999 V2000
  -30.4360   14.0710  -19.7120 C   0  0  2  0  0  0  0  0  0  0  0  0
  -30.2040   13.2590  -18.4370 C   0  0  0  0  0  0  0  0  0  0  0  0
  -28.9750   14.0880  -17.4100 Cl  0  0  0  0  0  0  0  0  0  0  0  0
  -29.6100   11.6130  -18.8730 Cl  0  0  0  0  0  0  0  0  0  0  0  0
  -31.7530   13.1170  -17.5240 Cl  0  0  0  0  0  0  0  0  0  0  0  0
  -30.3580   13.1940  -20.8660 O   0  0  0  0  0  0  0  0  0  0  0  0
  -32.7680   13.6610  -21.1320 C   0  0  0  0  0  0  0  0  0  0  0  0
  -31.5060   12.9300  -21.5100 C   0  0  0  0  0  0  0  0  0  0  0  0
  -31.5270   12.1050  -22.3930 O   0  0  0  0  0  0  0  0  0  0  0  0
  -29.3680   15.1600  -19.8260 C   0  0  0  0  0  0  0  0  0  0  0  0
  -28.4340   14.8100  -20.9120 N   0  0  0  0  0  0  0  0  0  0  0  0
  -28.7780   13.9770  -21.3900 H   0  0  0  0  0  0  0  0  0  0  0  0
  -28.3730   15.5880  -21.5680 H   0  0  0  0  0  0  0  0  0  0  0  0
  -27.0930   14.5290  -20.3640 C   0  0  0  0  0  0  0  0  0  0  0  0
  -26.6630   13.1500  -20.7940 C   0  0  0  0  0  0  0  0  0  0  0  0
  -25.4620   12.6770  -20.4280 O   0  0  0  0  0  0  0  0  0  0  0  0
  -27.3990   12.4700  -21.4690 O   0  0  0  0  0  0  0  0  0  0  0  0
  1  6  1  6  0  0  0
  1  2  1  0  0  0  0
  2  5  1  0  0  0  0
  2  3  1  0  0  0  0
  4  2  1  0  0  0  0
  8  7  1  0  0  0  0
  8  6  1  0  0  0  0
  9  8  2  0  0  0  0
 10  1  1  0  0  0  0
 11 14  1  0  0  0  0
 11 10  1  0  0  0  0
 12 11  1  0  0  0  0
 13 11  1  0  0  0  0
 15 16  1  0  0  0  0
 15 14  1  0  0  0  0
 17 15  2  0  0  0  0
M  END
>  <MODEL>
1

>  <REMARK>
 VINA RESULT:      -5.2      0.000      0.000
  Name = ZINC05434281
                            x       y       z     vdW  Elec       q    Type
                         _______ _______ _______ _____ _____    ______ ____

>  <TORSDO>
F 7

>  <vina_score>
-5.2

$$$$
ZINC05202206
 OpenBabel01081721583D

 25 26  0  0  0  0  0  0  0  0999 V2000
  -30.2870   11.7980  -19.3520 N   0  0  0  0  0  0  0  0  0  0  0  0
  -31.3730   12.4660  -19.1530 N   0  0  0  0  0  0  0  0  0  0  0  0
  -31.5230   13.7560  -19.7180 O   0  0  0  0  0  0  0  0  0  0  0  0
  -30.1440   11.0910  -22.3780 C   0  0  0  0  0  0  0  0  0  0  0  0
  -29.2260   11.9890  -21.5890 C   0  0  0  0  0  0  0  0  0  0  0  0
  -29.3340   12.2790  -20.2120 C   0  0  0  0  0  0  0  0  0  0  0  0
  -28.3020   13.1340  -19.8920 C   0  0  0  0  0  0  0  0  0  0  0  0
  -28.0150   13.7150  -18.5310 C   0  0  0  0  0  0  0  0  0  0  0  0
  -27.5990   13.3570  -21.0200 N   0  0  0  0  0  0  0  0  0  0  0  0
  -28.1970   12.6390  -22.0610 N   0  0  0  0  0  0  0  0  0  0  0  0
  -26.4140   14.2110  -21.1370 C   0  0  0  0  0  0  0  0  0  0  0  0
  -25.2240   13.5270  -20.4610 C   0  0  0  0  0  0  0  0  0  0  0  0
  -25.2270   12.1360  -20.7880 O   0  0  0  0  0  0  0  0  0  0  0  0
  -26.1060   11.8800  -21.1040 H   0  0  0  0  0  0  0  0  0  0  0  0
  -32.3790   11.9270  -18.3960 C   0  0  0  0  0  0  0  0  0  0  0  0
  -33.4700   11.1680  -18.8720 C   0  0  0  0  0  0  0  0  0  0  0  0
  -33.7350   10.8030  -20.3100 C   0  0  0  0  0  0  0  0  0  0  0  0
  -34.2070   10.8320  -17.8470 N   0  0  0  0  0  0  0  0  0  0  0  0
  -33.6360   11.3620  -16.6860 N   0  0  0  0  0  0  0  0  0  0  0  0
  -32.5180   12.0300  -17.0280 C   0  0  0  0  0  0  0  0  0  0  0  0
  -31.5900   12.7570  -16.0890 C   0  0  0  0  0  0  0  0  0  0  0  0
  -34.1630   11.2140  -15.3260 C   0  0  0  0  0  0  0  0  0  0  0  0
  -34.7590   12.5460  -14.8640 C   0  0  0  0  0  0  0  0  0  0  0  0
  -35.6640   12.3120  -13.7830 O   0  0  0  0  0  0  0  0  0  0  0  0
  -36.5730   12.2920  -14.1220 H   0  0  0  0  0  0  0  0  0  0  0  0
  1  2  1  0  0  0  0
  2 15  1  0  0  0  0
  3  2  1  0  0  0  0
  4  5  1  0  0  0  0
  5  6  1  0  0  0  0
  6  7  2  0  0  0  0
  6  1  1  0  0  0  0
  7  8  1  0  0  0  0
  9  7  1  0  0  0  0
 10  5  2  0  0  0  0
 10  9  1  0  0  0  0
 11  9  1  0  0  0  0
 11 12  1  0  0  0  0
 13 12  1  0  0  0  0
 14 13  1  0  0  0  0
 15 20  2  0  0  0  0
 16 15  1  0  0  0  0
 16 18  2  0  0  0  0
 17 16  1  0  0  0  0
 18 19  1  0  0  0  0
 19 22  1  0  0  0  0
 20 19  1  0  0  0  0
 20 21  1  0  0  0  0
 22 23  1  0  0  0  0
 23 24  1  0  0  0  0
 25 24  1  0  0  0  0
M  END
>  <MODEL>
1

>  <REMARK>
 VINA RESULT:      -5.2      0.000      0.000
  Name = ZINC05202206
                            x       y       z     vdW  Elec       q    Type
                         _______ _______ _______ _____ _____    ______ ____

>  <TORSDO>
F 8

>  <vina_score>
-5.2

$$$$
ZINC21038636
 OpenBabel01081721443D

 27 29  0  0  0  0  0  0  0  0999 V2000
  -29.8180   12.2390  -18.3450 C   0  0  0  0  0  0  0  0  0  0  0  0
  -28.8470   12.1280  -19.3010 N   0  0  0  0  0  0  0  0  0  0  0  0
  -27.7690   12.8640  -18.8960 C   0  0  0  0  0  0  0  0  0  0  0  0
  -28.0600   13.4020  -17.7360 N   0  0  0  0  0  0  0  0  0  0  0  0
  -29.3600   13.0120  -17.3900 N   0  0  0  0  0  0  0  0  0  0  0  0
  -29.8430   13.2710  -16.5720 H   0  0  0  0  0  0  0  0  0  0  0  0
  -31.0680   11.6400  -18.3790 N   0  0  0  0  0  0  0  0  0  0  0  0
  -31.4140   11.2690  -19.2230 H   0  0  0  0  0  0  0  0  0  0  0  0
  -32.9970   12.1510  -17.1590 C   0  0  0  0  0  0  0  0  0  0  0  0
  -31.8410   11.5620  -17.2130 N   0  0  0  0  0  0  0  0  0  0  0  0
  -34.9550   10.8050  -14.2570 C   0  0  0  0  0  0  0  0  0  0  0  0
  -34.1990   10.8270  -15.4150 C   0  0  0  0  0  0  0  0  0  0  0  0
  -33.8090   12.0690  -15.9310 C   0  0  0  0  0  0  0  0  0  0  0  0
  -34.2060   13.2300  -15.2630 C   0  0  0  0  0  0  0  0  0  0  0  0
  -34.9320   13.1570  -14.1670 N   0  0  0  0  0  0  0  0  0  0  0  0
  -35.3090   12.0000  -13.6570 C   0  0  0  0  0  0  0  0  0  0  0  0
  -26.2530   13.0510  -19.7750 S   0  0  0  0  0  0  0  0  0  0  0  0
  -26.5390   14.4910  -20.8410 C   0  0  0  0  0  0  0  0  0  0  0  0
  -28.0180   14.7690  -20.9220 C   0  0  0  0  0  0  0  0  0  0  0  0
  -28.6360   15.4270  -19.9220 N   0  0  0  0  0  0  0  0  0  0  0  0
  -28.1210   15.7250  -19.1370 H   0  0  0  0  0  0  0  0  0  0  0  0
  -28.6510   14.4010  -21.8890 O   0  0  0  0  0  0  0  0  0  0  0  0
  -30.0000   15.6840  -19.9970 C   0  0  0  0  0  0  0  0  0  0  0  0
  -30.9670   14.8200  -19.8020 N   0  0  0  0  0  0  0  0  0  0  0  0
  -32.1050   15.3990  -19.9510 N   0  0  0  0  0  0  0  0  0  0  0  0
  -31.9310   16.6570  -20.2460 C   0  0  0  0  0  0  0  0  0  0  0  0
  -30.5840   16.8830  -20.2850 N   0  0  0  0  0  0  0  0  0  0  0  0
  1  5  1  0  0  0  0
  2  3  1  0  0  0  0
  2  1  2  0  0  0  0
  3  4  2  0  0  0  0
  4  5  1  0  0  0  0
  5  6  1  0  0  0  0
  7  1  1  0  0  0  0
  7 10  1  0  0  0  0
  8  7  1  0  0  0  0
  9 13  1  0  0  0  0
 10  9  2  0  0  0  0
 11 16  2  0  0  0  0
 12 11  1  0  0  0  0
 13 12  2  0  0  0  0
 13 14  1  0  0  0  0
 14 15  2  0  0  0  0
 15 16  1  0  0  0  0
 17  3  1  0  0  0  0
 18 17  1  0  0  0  0
 19 18  1  0  0  0  0
 19 20  1  0  0  0  0
 20 21  1  0  0  0  0
 22 19  2  0  0  0  0
 23 20  1  0  0  0  0
 23 24  1  0  0  0  0
 25 24  1  0  0  0  0
 26 25  2  0  0  0  0
 27 26  1  0  0  0  0
 27 23  2  0  0  0  0
M  END
>  <MODEL>
1

>  <REMARK>
 VINA RESULT:      -5.2      0.000      0.000
  Name = ZINC21038636
                            x       y       z     vdW  Elec       q    Type
                         _______ _______ _______ _____ _____    ______ ____

>  <TORSDO>
F 7

>  <vina_score>
-5.2

$$$$
ZINC06157444
 OpenBabel01081721363D

 29 31  0  0  1  0  0  0  0  0999 V2000
  -33.0680   12.9600  -20.2560 N   0  0  0  0  0  0  0  0  0  0  0  0
  -32.7300   11.9730  -21.1090 C   0  0  0  0  0  0  0  0  0  0  0  0
  -31.4470   12.4290  -21.7750 C   0  0  1  0  0  0  0  0  0  0  0  0
  -31.1830   13.7400  -21.1560 N   0  0  0  0  0  0  0  0  0  0  0  0
  -33.3280   10.9370  -21.3050 O   0  0  0  0  0  0  0  0  0  0  0  0
  -32.1830   13.9620  -20.2850 C   0  0  0  0  0  0  0  0  0  0  0  0
  -32.2720   14.9610  -19.5990 O   0  0  0  0  0  0  0  0  0  0  0  0
  -34.2550   12.9340  -19.3980 C   0  0  0  0  0  0  0  0  0  0  0  0
  -34.0690   11.9050  -18.3130 C   0  0  0  0  0  0  0  0  0  0  0  0
  -34.5640   10.8030  -18.4300 O   0  0  0  0  0  0  0  0  0  0  0  0
  -33.3150   12.2230  -17.1580 C   0  0  2  0  0  0  0  0  0  0  0  0
  -31.3170   10.8350  -17.7520 C   0  0  0  0  0  0  0  0  0  0  0  0
  -31.9400   12.0780  -17.1680 C   0  0  2  0  0  0  0  0  0  0  0  0
  -31.1540   13.0480  -16.6550 N   0  0  0  0  0  0  0  0  0  0  0  0
  -31.5610   13.8600  -16.2730 H   0  0  0  0  0  0  0  0  0  0  0  0
  -30.1750   12.9440  -16.6610 H   0  0  0  0  0  0  0  0  0  0  0  0
  -33.9770   12.6900  -15.9770 C   0  0  0  0  0  0  0  0  0  0  0  0
  -34.5030   13.0620  -15.0410 N   0  0  0  0  0  0  0  0  0  0  0  0
  -30.3110   11.4520  -21.4710 C   0  0  0  0  0  0  0  0  0  0  0  0
  -29.0070   12.2050  -21.3910 C   0  0  0  0  0  0  0  0  0  0  0  0
  -28.2030   12.5200  -22.4180 C   0  0  0  0  0  0  0  0  0  0  0  0
  -27.1110   13.2060  -21.9620 N   0  0  0  0  0  0  0  0  0  0  0  0
  -26.3790   13.5450  -22.5260 H   0  0  0  0  0  0  0  0  0  0  0  0
  -27.1880   13.3540  -20.5950 C   0  0  0  0  0  0  0  0  0  0  0  0
  -26.3660   13.9570  -19.6490 C   0  0  0  0  0  0  0  0  0  0  0  0
  -26.7260   13.9380  -18.3190 C   0  0  0  0  0  0  0  0  0  0  0  0
  -27.9020   13.3250  -17.9120 C   0  0  0  0  0  0  0  0  0  0  0  0
  -28.7250   12.7280  -18.8260 C   0  0  0  0  0  0  0  0  0  0  0  0
  -28.3830   12.7380  -20.1780 C   0  0  0  0  0  0  0  0  0  0  0  0
  1  8  1  0  0  0  0
  2  1  1  0  0  0  0
  3 19  1  1  0  0  0
  3  4  1  0  0  0  0
  3  2  1  0  0  0  0
  4  6  1  0  0  0  0
  5  2  2  0  0  0  0
  6  1  1  0  0  0  0
  6  7  2  0  0  0  0
  8  9  1  0  0  0  0
 10  9  2  0  0  0  0
 11  9  1  1  0  0  0
 11 17  1  0  0  0  0
 13 12  1  1  0  0  0
 13 11  1  0  0  0  0
 13 14  1  0  0  0  0
 14 15  1  0  0  0  0
 16 14  1  0  0  0  0
 17 18  3  0  0  0  0
 19 20  1  0  0  0  0
 20 29  1  0  0  0  0
 21 22  1  0  0  0  0
 21 20  2  0  0  0  0
 22 24  1  0  0  0  0
 23 22  1  0  0  0  0
 24 29  2  0  0  0  0
 24 25  1  0  0  0  0
 25 26  2  0  0  0  0
 26 27  1  0  0  0  0
 28 27  2  0  0  0  0
 29 28  1  0  0  0  0
M  END
>  <MODEL>
1

>  <REMARK>
 VINA RESULT:      -5.1      0.000      0.000
  Name = ZINC06157444
                            x       y       z     vdW  Elec       q    Type
                         _______ _______ _______ _____ _____    ______ ____

>  <TORSDO>
F 7

>  <vina_score>
-5.1

$$$$
ZINC29918098
 OpenBabel01081721473D

 22 23  0  0  0  0  0  0  0  0999 V2000
  -32.6910   12.5060  -18.1520 C   0  0  0  0  0  0  0  0  0  0  0  0
  -32.1270   11.5700  -18.9140 N   0  0  0  0  0  0  0  0  0  0  0  0
  -31.7360   11.8630  -20.1420 C   0  0  0  0  0  0  0  0  0  0  0  0
  -31.9120   13.0810  -20.6220 N   0  0  0  0  0  0  0  0  0  0  0  0
  -32.4800   14.0200  -19.8680 C   0  0  0  0  0  0  0  0  0  0  0  0
  -32.8700   13.7320  -18.6320 N   0  0  0  0  0  0  0  0  0  0  0  0
  -33.3030   10.8030  -16.4800 C   0  0  0  0  0  0  0  0  0  0  0  0
  -33.0940   12.2000  -16.8680 N   0  0  0  0  0  0  0  0  0  0  0  0
  -33.3130   13.2720  -15.8940 C   0  0  0  0  0  0  0  0  0  0  0  0
  -32.6630   15.2920  -20.3700 N   0  0  0  0  0  0  0  0  0  0  0  0
  -33.0270   15.4170  -21.2760 H   0  0  0  0  0  0  0  0  0  0  0  0
  -32.4280   16.0770  -19.8220 H   0  0  0  0  0  0  0  0  0  0  0  0
  -31.0930   10.8030  -20.9980 C   0  0  0  0  0  0  0  0  0  0  0  0
  -30.2860   11.5820  -22.4190 S   0  0  0  0  0  0  0  0  0  0  0  0
  -28.9500   12.3930  -21.6030 C   0  0  0  0  0  0  0  0  0  0  0  0
  -28.0750   13.1990  -22.1550 N   0  0  0  0  0  0  0  0  0  0  0  0
  -27.2490   13.6080  -21.2590 N   0  0  0  0  0  0  0  0  0  0  0  0
  -27.5530   13.0770  -20.1110 C   0  0  0  0  0  0  0  0  0  0  0  0
  -28.6380   12.3000  -20.2970 O   0  0  0  0  0  0  0  0  0  0  0  0
  -26.8290   13.2990  -18.8080 C   0  0  0  0  0  0  0  0  0  0  0  0
  -27.8700   14.2840  -17.6970 S   0  0  0  0  0  0  0  0  0  0  0  0
  -28.9210   15.2480  -18.8180 C   0  0  0  0  0  0  0  0  0  0  0  0
  1  8  1  0  0  0  0
  2  1  2  0  0  0  0
  3  2  1  0  0  0  0
  4  3  2  0  0  0  0
  4  5  1  0  0  0  0
  5  6  2  0  0  0  0
  6  1  1  0  0  0  0
  8  7  1  0  0  0  0
  8  9  1  0  0  0  0
 10  5  1  0  0  0  0
 10 12  1  0  0  0  0
 11 10  1  0  0  0  0
 13  3  1  0  0  0  0
 14 15  1  0  0  0  0
 14 13  1  0  0  0  0
 15 19  1  0  0  0  0
 16 15  2  0  0  0  0
 16 17  1  0  0  0  0
 17 18  2  0  0  0  0
 18 20  1  0  0  0  0
 19 18  1  0  0  0  0
 20 21  1  0  0  0  0
 22 21  1  0  0  0  0
M  END
>  <MODEL>
1

>  <REMARK>
 VINA RESULT:      -5.1      0.000      0.000
  Name = ZINC29918098
                            x       y       z     vdW  Elec       q    Type
                         _______ _______ _______ _____ _____    ______ ____

>  <TORSDO>
F 7

>  <vina_score>
-5.1

$$$$
ZINC19844140
 OpenBabel01081721543D

 25 26  0  0  0  0  0  0  0  0999 V2000
  -30.6540   13.5550  -17.6650 N   0  0  0  0  0  0  0  0  0  0  0  0
  -29.4220   12.7550  -17.6480 C   0  0  0  0  0  0  0  0  0  0  0  0
  -28.2440   13.6250  -18.0930 C   0  0  0  0  0  0  0  0  0  0  0  0
  -28.5080   14.1490  -19.4400 N   0  0  0  0  0  0  0  0  0  0  0  0
  -28.6390   13.3560  -20.0670 H   0  0  0  0  0  0  0  0  0  0  0  0
  -29.7400   14.9510  -19.4580 C   0  0  0  0  0  0  0  0  0  0  0  0
  -30.9180   14.0810  -19.0120 C   0  0  0  0  0  0  0  0  0  0  0  0
  -33.6660   12.6160  -15.7770 C   0  0  0  0  0  0  0  0  0  0  0  0
  -33.8940   11.3380  -16.2690 C   0  0  0  0  0  0  0  0  0  0  0  0
  -33.0480   10.8030  -17.2210 C   0  0  0  0  0  0  0  0  0  0  0  0
  -31.9760   11.5370  -17.6890 C   0  0  0  0  0  0  0  0  0  0  0  0
  -31.7400   12.8150  -17.1950 C   0  0  0  0  0  0  0  0  0  0  0  0
  -32.5900   13.3550  -16.2400 C   0  0  0  0  0  0  0  0  0  0  0  0
  -35.3410   12.2290  -14.1340 C   0  0  0  0  0  0  0  0  0  0  0  0
  -34.5000   13.1420  -14.8410 O   0  0  0  0  0  0  0  0  0  0  0  0
  -27.3660   14.9300  -19.9340 C   0  0  0  0  0  0  0  0  0  0  0  0
  -26.7350   14.2120  -21.1290 C   0  0  0  0  0  0  0  0  0  0  0  0
  -27.7740   14.0650  -22.2430 C   0  0  0  0  0  0  0  0  0  0  0  0
  -28.3060   12.6560  -22.2510 C   0  0  0  0  0  0  0  0  0  0  0  0
  -29.5350   12.4260  -21.9290 N   0  0  0  0  0  0  0  0  0  0  0  0
  -27.4800   11.6110  -22.6020 N   0  0  0  0  0  0  0  0  0  0  0  0
  -27.5340   10.7550  -22.1170 H   0  0  0  0  0  0  0  0  0  0  0  0
  -26.8350   11.7180  -23.3390 H   0  0  0  0  0  0  0  0  0  0  0  0
  -30.0340   11.1010  -21.9370 O   0  0  0  0  0  0  0  0  0  0  0  0
  -29.4400   10.3760  -21.9380 H   0  0  0  0  0  0  0  0  0  0  0  0
  1  2  1  0  0  0  0
  1 12  1  0  0  0  0
  3  2  1  0  0  0  0
  4  3  1  0  0  0  0
  5  4  1  0  0  0  0
  6  4  1  0  0  0  0
  6  7  1  0  0  0  0
  7  1  1  0  0  0  0
  8 15  1  0  0  0  0
  9  8  2  0  0  0  0
 10  9  1  0  0  0  0
 11 10  2  0  0  0  0
 11 12  1  0  0  0  0
 12 13  2  0  0  0  0
 13  8  1  0  0  0  0
 15 14  1  0  0  0  0
 16  4  1  0  0  0  0
 17 16  1  0  0  0  0
 18 17  1  0  0  0  0
 19 18  1  0  0  0  0
 19 20  2  0  0  0  0
 21 19  1  0  0  0  0
 21 22  1  0  0  0  0
 23 21  1  0  0  0  0
 24 20  1  0  0  0  0
 25 24  1  0  0  0  0
M  END
>  <MODEL>
1

>  <REMARK>
 VINA RESULT:      -5.1      0.000      0.000
  Name = ZINC19844140
                            x       y       z     vdW  Elec       q    Type
                         _______ _______ _______ _____ _____    ______ ____

>  <TORSDO>
F 8

>  <vina_score>
-5.1

$$$$
ZINC19518055
 OpenBabel01081721593D

 23 23  0  0  1  0  0  0  0  0999 V2000
  -31.3010   12.3600  -20.1610 N   0  0  0  0  0  0  0  0  0  0  0  0
  -31.7820   12.6250  -20.9780 H   0  0  0  0  0  0  0  0  0  0  0  0
  -29.9640   12.2000  -20.1880 C   0  0  0  0  0  0  0  0  0  0  0  0
  -29.3820   11.7810  -19.2090 O   0  0  0  0  0  0  0  0  0  0  0  0
  -33.4050   11.7360  -16.6150 C   0  0  0  0  0  0  0  0  0  0  0  0
  -32.6290   12.8750  -16.7690 C   0  0  0  0  0  0  0  0  0  0  0  0
  -31.9320   13.0830  -17.9430 C   0  0  0  0  0  0  0  0  0  0  0  0
  -32.0090   12.1500  -18.9690 C   0  0  0  0  0  0  0  0  0  0  0  0
  -32.7850   11.0100  -18.8140 C   0  0  0  0  0  0  0  0  0  0  0  0
  -33.4810   10.8030  -17.6400 C   0  0  0  0  0  0  0  0  0  0  0  0
  -34.6440   12.6830  -14.8190 C   0  0  0  0  0  0  0  0  0  0  0  0
  -34.0900   11.5310  -15.4590 O   0  0  0  0  0  0  0  0  0  0  0  0
  -29.1900   12.5400  -21.4350 C   0  0  0  0  0  0  0  0  0  0  0  0
  -27.4540   12.8440  -21.0050 S   0  0  0  0  0  0  0  0  0  0  0  0
  -27.4100   14.6040  -20.5690 C   0  0  0  0  0  0  0  0  0  0  0  0
  -27.3310   14.7520  -19.0490 C   0  0  2  0  0  0  0  0  0  0  0  0
  -26.8990   13.4810  -18.4540 N   0  0  0  0  0  0  0  0  0  0  0  0
  -26.3230   13.6680  -17.6330 H   0  0  0  0  0  0  0  0  0  0  0  0
  -27.7180   12.9380  -18.1790 H   0  0  0  0  0  0  0  0  0  0  0  0
  -26.3560   12.9530  -19.1370 H   0  0  0  0  0  0  0  0  0  0  0  0
  -28.6880   15.1240  -18.5090 C   0  0  0  0  0  0  0  0  0  0  0  0
  -29.6090   15.6640  -19.3240 O   0  0  0  0  0  0  0  0  0  0  0  0
  -28.9470   14.9370  -17.3440 O   0  0  0  0  0  0  0  0  0  0  0  0
  1  8  1  0  0  0  0
  2  1  1  0  0  0  0
  3  1  1  0  0  0  0
  3  4  2  0  0  0  0
  5 12  1  0  0  0  0
  6  5  1  0  0  0  0
  7  6  2  0  0  0  0
  8  9  2  0  0  0  0
  8  7  1  0  0  0  0
  9 10  1  0  0  0  0
 10  5  2  0  0  0  0
 12 11  1  0  0  0  0
 13 14  1  0  0  0  0
 13  3  1  0  0  0  0
 14 15  1  0  0  0  0
 16 15  1  6  0  0  0
 16 21  1  0  0  0  0
 16 17  1  0  0  0  0
 17 19  1  0  0  0  0
 17 18  1  0  0  0  0
 20 17  1  0  0  0  0
 21 23  1  0  0  0  0
 22 21  2  0  0  0  0
M  END
>  <MODEL>
1

>  <REMARK>
 VINA RESULT:      -5.1      0.000      0.000
  Name = ZINC19518055
                            x       y       z     vdW  Elec       q    Type
                         _______ _______ _______ _____ _____    ______ ____

>  <TORSDO>
F 8

>  <vina_score>
-5.1

$$$$
ZINC17218773
 OpenBabel01081721373D

 25 26  0  0  1  0  0  0  0  0999 V2000
  -31.1550   12.9120  -18.1250 C   0  0  0  0  0  0  0  0  0  0  0  0
  -30.7620   14.0220  -18.7810 N   0  0  0  0  0  0  0  0  0  0  0  0
  -31.4200   14.5560  -19.2830 H   0  0  0  0  0  0  0  0  0  0  0  0
  -30.3430   12.2520  -17.5060 O   0  0  0  0  0  0  0  0  0  0  0  0
  -29.4220   14.4150  -18.7480 C   0  0  0  0  0  0  0  0  0  0  0  0
  -28.4280   14.2010  -19.6580 C   0  0  0  0  0  0  0  0  0  0  0  0
  -27.2300   14.6800  -19.3940 N   0  0  0  0  0  0  0  0  0  0  0  0
  -26.9840   15.3400  -18.2870 C   0  0  0  0  0  0  0  0  0  0  0  0
  -28.5330   15.3370  -17.5020 S   0  0  0  0  0  0  0  0  0  0  0  0
  -26.1450   14.4650  -20.3540 C   0  0  0  0  0  0  0  0  0  0  0  0
  -26.1560   13.0280  -20.8100 C   0  0  0  0  0  0  0  0  0  0  0  0
  -27.2100   12.5480  -21.4900 O   0  0  0  0  0  0  0  0  0  0  0  0
  -25.2170   12.3100  -20.5650 O   0  0  0  0  0  0  0  0  0  0  0  0
  -33.2220   12.4740  -19.2960 N   0  0  0  0  0  0  0  0  0  0  0  0
  -32.5770   12.4950  -18.1610 C   0  0  0  0  0  0  0  0  0  0  0  0
  -33.2620   12.1070  -16.9160 C   0  0  2  0  0  0  0  0  0  0  0  0
  -33.4980   10.8030  -16.6450 C   0  0  0  0  0  0  0  0  0  0  0  0
  -34.3220   10.8910  -15.0640 S   0  0  0  0  0  0  0  0  0  0  0  0
  -34.3080   12.6650  -14.8710 C   0  0  0  0  0  0  0  0  0  0  0  0
  -34.7790   13.3940  -13.8910 N   0  0  0  0  0  0  0  0  0  0  0  0
  -35.2150   12.9610  -13.1220 H   0  0  0  0  0  0  0  0  0  0  0  0
  -33.6700   13.0670  -16.0250 N   0  0  0  0  0  0  0  0  0  0  0  0
  -33.5110   14.0210  -16.2060 H   0  0  0  0  0  0  0  0  0  0  0  0
  -34.6130   10.8150  -20.3000 C   0  0  0  0  0  0  0  0  0  0  0  0
  -34.5110   11.8910  -19.3650 O   0  0  0  0  0  0  0  0  0  0  0  0
  1  4  2  0  0  0  0
  2  5  1  0  0  0  0
  2  1  1  0  0  0  0
  3  2  1  0  0  0  0
  5  9  1  0  0  0  0
  6  7  1  0  0  0  0
  6  5  2  0  0  0  0
  7  8  1  0  0  0  0
  8  9  2  0  0  0  0
 10  7  1  0  0  0  0
 11 13  1  0  0  0  0
 11 10  1  0  0  0  0
 12 11  2  0  0  0  0
 14 15  2  0  0  0  0
 15  1  1  0  0  0  0
 16 15  1  6  0  0  0
 16 17  1  0  0  0  0
 16 22  1  0  0  0  0
 17 18  2  0  0  0  0
 18 19  1  0  0  0  0
 19 20  2  0  0  0  0
 20 21  1  0  0  0  0
 22 19  1  0  0  0  0
 23 22  1  0  0  0  0
 24 25  1  0  0  0  0
 25 14  1  0  0  0  0
M  END
>  <MODEL>
1

>  <REMARK>
 VINA RESULT:      -5.1      0.000      0.000
  Name = ZINC17218773
                            x       y       z     vdW  Elec       q    Type
                         _______ _______ _______ _____ _____    ______ ____

>  <TORSDO>
F 6

>  <vina_score>
-5.1

$$$$
ZINC20395712
 OpenBabel01081721353D

 17 17  0  0  0  0  0  0  0  0999 V2000
  -29.0060   13.9220  -18.6170 C   0  0  0  0  0  0  0  0  0  0  0  0
  -29.0090   13.0930  -17.6120 N   0  0  0  0  0  0  0  0  0  0  0  0
  -30.2070   12.6860  -17.3800 N   0  0  0  0  0  0  0  0  0  0  0  0
  -31.0370   13.2380  -18.2320 C   0  0  0  0  0  0  0  0  0  0  0  0
  -30.2970   14.0440  -19.0490 N   0  0  0  0  0  0  0  0  0  0  0  0
  -30.7510   14.8120  -20.0830 N   0  0  0  0  0  0  0  0  0  0  0  0
  -31.2060   14.3900  -20.8480 H   0  0  0  0  0  0  0  0  0  0  0  0
  -30.6240   15.7880  -20.0650 H   0  0  0  0  0  0  0  0  0  0  0  0
  -27.8000   14.6160  -19.1970 C   0  0  0  0  0  0  0  0  0  0  0  0
  -26.8700   13.4490  -20.2300 S   0  0  0  0  0  0  0  0  0  0  0  0
  -28.7360   12.2660  -21.8430 C   0  0  0  0  0  0  0  0  0  0  0  0
  -27.7670   13.4500  -21.8070 C   0  0  0  0  0  0  0  0  0  0  0  0
  -32.7810   12.9920  -18.3060 S   0  0  0  0  0  0  0  0  0  0  0  0
  -32.8550   11.6280  -19.4940 C   0  0  0  0  0  0  0  0  0  0  0  0
  -33.4000   12.1330  -20.8050 C   0  0  0  0  0  0  0  0  0  0  0  0
  -32.6650   12.9600  -21.5650 O   0  0  0  0  0  0  0  0  0  0  0  0
  -34.5000   11.7940  -21.1730 O   0  0  0  0  0  0  0  0  0  0  0  0
  1  2  2  0  0  0  0
  2  3  1  0  0  0  0
  4  3  2  0  0  0  0
  5  1  1  0  0  0  0
  5  4  1  0  0  0  0
  6  8  1  0  0  0  0
  6  5  1  0  0  0  0
  7  6  1  0  0  0  0
  9  1  1  0  0  0  0
 10  9  1  0  0  0  0
 11 12  1  0  0  0  0
 12 10  1  0  0  0  0
 13  4  1  0  0  0  0
 14 13  1  0  0  0  0
 15 14  1  0  0  0  0
 16 15  2  0  0  0  0
 17 15  1  0  0  0  0
M  END
>  <MODEL>
1

>  <REMARK>
 VINA RESULT:      -5.1      0.000      0.000
  Name = ZINC20395712
                            x       y       z     vdW  Elec       q    Type
                         _______ _______ _______ _____ _____    ______ ____

>  <TORSDO>
F 7

>  <vina_score>
-5.1

$$$$
ZINC05665859
 OpenBabel01081721463D

 27 28  0  0  1  0  0  0  0  0999 V2000
  -32.3990   11.9200  -18.9930 C   0  0  2  0  0  0  0  0  0  0  0  0
  -32.4080   12.3960  -17.5520 C   0  0  0  0  0  0  0  0  0  0  0  0
  -31.2270   12.7510  -17.0040 N   0  0  0  0  0  0  0  0  0  0  0  0
  -31.2080   13.0630  -16.0710 H   0  0  0  0  0  0  0  0  0  0  0  0
  -30.0800   12.6910  -17.6920 C   0  0  0  0  0  0  0  0  0  0  0  0
  -29.9730   12.2850  -18.9630 N   0  0  0  0  0  0  0  0  0  0  0  0
  -29.0640   13.0290  -17.1220 O   0  0  0  0  0  0  0  0  0  0  0  0
  -33.4390   12.4560  -16.9170 O   0  0  0  0  0  0  0  0  0  0  0  0
  -31.0460   11.8890  -19.6790 C   0  0  0  0  0  0  0  0  0  0  0  0
  -30.9340   11.5190  -20.8280 O   0  0  0  0  0  0  0  0  0  0  0  0
  -28.6510   12.2680  -19.5940 C   0  0  0  0  0  0  0  0  0  0  0  0
  -27.6540   13.0190  -18.7100 C   0  0  0  0  0  0  0  0  0  0  0  0
  -26.2740   13.0020  -19.3700 C   0  0  0  0  0  0  0  0  0  0  0  0
  -26.3540   13.6800  -20.7390 C   0  0  0  0  0  0  0  0  0  0  0  0
  -27.3510   12.9280  -21.6230 C   0  0  0  0  0  0  0  0  0  0  0  0
  -28.7310   12.9460  -20.9620 C   0  0  0  0  0  0  0  0  0  0  0  0
  -34.3260   10.8040  -20.7340 C   0  0  0  0  0  0  0  0  0  0  0  0
  -34.2080   12.3000  -20.6000 C   0  0  0  0  0  0  0  0  0  0  0  0
  -33.3090   12.8210  -19.7870 C   0  0  0  0  0  0  0  0  0  0  0  0
  -33.1490   14.2290  -19.6170 N   0  0  0  0  0  0  0  0  0  0  0  0
  -33.7530   14.7670  -19.0590 H   0  0  0  0  0  0  0  0  0  0  0  0
  -31.9850   14.8300  -20.3580 C   0  0  0  0  0  0  0  0  0  0  0  0
  -31.1260   15.5630  -19.3250 C   0  0  0  0  0  0  0  0  0  0  0  0
  -29.8220   15.8930  -19.9370 N   0  0  0  0  0  0  0  0  0  0  0  0
  -29.5690   15.1570  -20.5960 H   0  0  0  0  0  0  0  0  0  0  0  0
  -28.7810   15.9800  -18.8920 C   0  0  0  0  0  0  0  0  0  0  0  0
  -29.9170   17.1760  -20.6650 C   0  0  0  0  0  0  0  0  0  0  0  0
  1 19  1  6  0  0  0
  1  2  1  0  0  0  0
  2  3  1  0  0  0  0
  2  8  2  0  0  0  0
  3  4  1  0  0  0  0
  5  7  2  0  0  0  0
  5  3  1  0  0  0  0
  6  5  1  0  0  0  0
  9  1  1  0  0  0  0
  9  6  1  0  0  0  0
 10  9  2  0  0  0  0
 11  6  1  0  0  0  0
 11 12  1  0  0  0  0
 13 12  1  0  0  0  0
 14 13  1  0  0  0  0
 15 16  1  0  0  0  0
 15 14  1  0  0  0  0
 16 11  1  0  0  0  0
 17 18  1  0  0  0  0
 18 19  1  0  0  0  0
 19 20  2  0  0  0  0
 20 21  1  0  0  0  0
 22 20  1  0  0  0  0
 22 23  1  0  0  0  0
 24 23  1  0  0  0  0
 24 26  1  0  0  0  0
 25 24  1  0  0  0  0
 27 24  1  0  0  0  0
M  END
>  <MODEL>
1

>  <REMARK>
 VINA RESULT:      -5.1      0.000      0.000
  Name = ZINC05665859
                            x       y       z     vdW  Elec       q    Type
                         _______ _______ _______ _____ _____    ______ ____

>  <TORSDO>
F 6

>  <vina_score>
-5.1

$$$$
ZINC24195016
 OpenBabel01081721563D

 30 31  0  0  1  0  0  0  0  0999 V2000
  -29.1380   13.7450  -19.5560 C   0  0  0  0  0  0  0  0  0  0  0  0
  -30.0300   13.3210  -20.4770 C   0  0  0  0  0  0  0  0  0  0  0  0
  -31.1240   14.0750  -20.7960 N   0  0  0  0  0  0  0  0  0  0  0  0
  -31.7470   13.7240  -21.4730 H   0  0  0  0  0  0  0  0  0  0  0  0
  -31.3960   15.2610  -20.2400 C   0  0  0  0  0  0  0  0  0  0  0  0
  -30.5990   15.8160  -19.3070 N   0  0  0  0  0  0  0  0  0  0  0  0
  -30.8180   16.6910  -18.9110 H   0  0  0  0  0  0  0  0  0  0  0  0
  -32.3960   15.8590  -20.5900 O   0  0  0  0  0  0  0  0  0  0  0  0
  -29.3910   15.0820  -18.8910 C   0  0  2  0  0  0  0  0  0  0  0  0
  -28.1800   15.9790  -19.1570 C   0  0  0  0  0  0  0  0  0  0  0  0
  -28.0040   12.9660  -19.2230 C   0  0  0  0  0  0  0  0  0  0  0  0
  -27.8570   12.5630  -18.0850 O   0  0  0  0  0  0  0  0  0  0  0  0
  -27.0880   12.6720  -20.1680 O   0  0  0  0  0  0  0  0  0  0  0  0
  -25.6720   14.5450  -20.7390 C   0  0  0  0  0  0  0  0  0  0  0  0
  -26.8450   13.6640  -21.1690 C   0  0  0  0  0  0  0  0  0  0  0  0
  -29.8160   11.9970  -21.1620 C   0  0  0  0  0  0  0  0  0  0  0  0
  -30.6620   10.9900  -20.5450 O   0  0  0  0  0  0  0  0  0  0  0  0
  -31.9900   11.1680  -20.6420 C   0  0  0  0  0  0  0  0  0  0  0  0
  -32.4700   11.5880  -21.6680 O   0  0  0  0  0  0  0  0  0  0  0  0
  -32.8810   10.8410  -19.4720 C   0  0  0  0  0  0  0  0  0  0  0  0
  -32.3250   11.4340  -18.2530 N   0  0  0  0  0  0  0  0  0  0  0  0
  -31.1840   10.8030  -17.5850 C   0  0  0  0  0  0  0  0  0  0  0  0
  -32.9840   12.8210  -17.6320 S   0  0  0  0  0  0  0  0  0  0  0  0
  -33.9860   13.2410  -18.5490 O   0  0  0  0  0  0  0  0  0  0  0  0
  -31.8970   13.6550  -17.2560 O   0  0  0  0  0  0  0  0  0  0  0  0
  -33.8180   12.3790  -16.1430 C   0  0  0  0  0  0  0  0  0  0  0  0
  -34.5840   13.1500  -15.3340 C   0  0  0  0  0  0  0  0  0  0  0  0
  -35.1470   12.5830  -14.2060 C   0  0  0  0  0  0  0  0  0  0  0  0
  -34.9080   11.2770  -13.9370 C   0  0  0  0  0  0  0  0  0  0  0  0
  -33.8650   10.8030  -15.3060 S   0  0  0  0  0  0  0  0  0  0  0  0
  1 11  1  0  0  0  0
  1  9  1  0  0  0  0
  2  1  2  0  0  0  0
  3  2  1  0  0  0  0
  3  5  1  0  0  0  0
  4  3  1  0  0  0  0
  5  6  1  0  0  0  0
  6  7  1  0  0  0  0
  6  9  1  0  0  0  0
  8  5  2  0  0  0  0
  9 10  1  6  0  0  0
 11 12  2  0  0  0  0
 13 11  1  0  0  0  0
 15 14  1  0  0  0  0
 15 13  1  0  0  0  0
 16 17  1  0  0  0  0
 16  2  1  0  0  0  0
 18 17  1  0  0  0  0
 18 20  1  0  0  0  0
 19 18  2  0  0  0  0
 20 21  1  0  0  0  0
 21 23  1  0  0  0  0
 21 22  1  0  0  0  0
 23 25  2  0  0  0  0
 23 26  1  0  0  0  0
 24 23  2  0  0  0  0
 26 27  2  0  0  0  0
 26 30  1  0  0  0  0
 27 28  1  0  0  0  0
 28 29  2  0  0  0  0
 30 29  1  0  0  0  0
M  END
>  <MODEL>
1

>  <REMARK>
 VINA RESULT:      -5.0      0.000      0.000
  Name = ZINC24195016
                            x       y       z     vdW  Elec       q    Type
                         _______ _______ _______ _____ _____    ______ ____

>  <TORSDO>
F 10

>  <vina_score>
-5.0

$$$$
ZINC04642048
 OpenBabel01081721573D

 29 30  0  0  1  0  0  0  0  0999 V2000
  -31.9640   10.8960  -20.1780 C   0  0  2  0  0  0  0  0  0  0  0  0
  -33.4200   11.2860  -20.3410 C   0  0  0  0  0  0  0  0  0  0  0  0
  -33.9420   12.1420  -19.4370 N   0  0  0  0  0  0  0  0  0  0  0  0
  -34.8850   12.4130  -19.5250 H   0  0  0  0  0  0  0  0  0  0  0  0
  -33.2170   12.6350  -18.4270 C   0  0  0  0  0  0  0  0  0  0  0  0
  -31.9270   12.3550  -18.2060 N   0  0  0  0  0  0  0  0  0  0  0  0
  -33.7680   13.3960  -17.6570 O   0  0  0  0  0  0  0  0  0  0  0  0
  -34.0920   10.8440  -21.2490 O   0  0  0  0  0  0  0  0  0  0  0  0
  -31.2310   11.5170  -19.0030 C   0  0  0  0  0  0  0  0  0  0  0  0
  -30.0640   11.2690  -18.7870 O   0  0  0  0  0  0  0  0  0  0  0  0
  -31.2330   11.2770  -21.4400 C   0  0  0  0  0  0  0  0  0  0  0  0
  -31.8330   12.0160  -22.3530 C   0  0  0  0  0  0  0  0  0  0  0  0
  -29.8940   10.8070  -21.5910 N   0  0  0  0  0  0  0  0  0  0  0  0
  -29.6110    9.9100  -21.2980 H   0  0  0  0  0  0  0  0  0  0  0  0
  -28.9460   11.7840  -22.2300 C   0  0  0  0  0  0  0  0  0  0  0  0
  -28.4250   12.6960  -21.1180 C   0  0  0  0  0  0  0  0  0  0  0  0
  -27.0540   13.1310  -21.4590 N   0  0  0  0  0  0  0  0  0  0  0  0
  -26.7900   12.7190  -22.3550 H   0  0  0  0  0  0  0  0  0  0  0  0
  -25.6340   15.1300  -21.1420 C   0  0  0  0  0  0  0  0  0  0  0  0
  -27.0050   14.6030  -21.5750 C   0  0  0  0  0  0  0  0  0  0  0  0
  -26.1060   12.6740  -20.4220 C   0  0  0  0  0  0  0  0  0  0  0  0
  -26.8100   12.7040  -19.0640 C   0  0  0  0  0  0  0  0  0  0  0  0
  -31.2520   12.9710  -17.0610 C   0  0  0  0  0  0  0  0  0  0  0  0
  -30.2500   13.9830  -17.5550 C   0  0  0  0  0  0  0  0  0  0  0  0
  -29.1160   14.2520  -16.8110 C   0  0  0  0  0  0  0  0  0  0  0  0
  -28.1950   15.1790  -17.2640 C   0  0  0  0  0  0  0  0  0  0  0  0
  -28.4130   15.8410  -18.4570 C   0  0  0  0  0  0  0  0  0  0  0  0
  -29.5450   15.5690  -19.2030 C   0  0  0  0  0  0  0  0  0  0  0  0
  -30.4630   14.6410  -18.7510 C   0  0  0  0  0  0  0  0  0  0  0  0
  1 11  1  6  0  0  0
  1  9  1  0  0  0  0
  2  1  1  0  0  0  0
  2  3  1  0  0  0  0
  3  5  1  0  0  0  0
  4  3  1  0  0  0  0
  5  6  1  0  0  0  0
  5  7  2  0  0  0  0
  6 23  1  0  0  0  0
  8  2  2  0  0  0  0
  9 10  2  0  0  0  0
  9  6  1  0  0  0  0
 12 11  1  0  0  0  0
 13 11  2  0  0  0  0
 13 14  1  0  0  0  0
 15 13  1  0  0  0  0
 15 16  1  0  0  0  0
 17 16  1  0  0  0  0
 17 21  1  0  0  0  0
 18 17  1  0  0  0  0
 20 17  1  0  0  0  0
 20 19  1  0  0  0  0
 21 22  1  0  0  0  0
 24 23  1  0  0  0  0
 24 25  2  0  0  0  0
 26 25  1  0  0  0  0
 27 26  2  0  0  0  0
 28 29  2  0  0  0  0
 28 27  1  0  0  0  0
 29 24  1  0  0  0  0
M  END
>  <MODEL>
1

>  <REMARK>
 VINA RESULT:      -5.0      0.000      0.000
  Name = ZINC04642048
                            x       y       z     vdW  Elec       q    Type
                         _______ _______ _______ _____ _____    ______ ____

>  <TORSDO>
F 9

>  <vina_score>
-5.0

$$$$
ZINC05736586
 OpenBabel01081721353D

 27 28  0  0  1  0  0  0  0  0999 V2000
  -29.1300   14.5030  -20.0480 N   0  0  0  0  0  0  0  0  0  0  0  0
  -29.3790   13.2740  -20.5470 C   0  0  0  0  0  0  0  0  0  0  0  0
  -30.7880   12.9830  -21.0260 C   0  0  2  0  0  0  0  0  0  0  0  0
  -31.7880   14.1160  -20.8950 C   0  0  0  0  0  0  0  0  0  0  0  0
  -31.3480   15.2790  -20.3670 N   0  0  0  0  0  0  0  0  0  0  0  0
  -31.9790   16.0280  -20.2720 H   0  0  0  0  0  0  0  0  0  0  0  0
  -32.9400   13.9830  -21.2500 O   0  0  0  0  0  0  0  0  0  0  0  0
  -28.5070   12.4330  -20.6100 O   0  0  0  0  0  0  0  0  0  0  0  0
  -30.0810   15.4420  -19.9720 C   0  0  0  0  0  0  0  0  0  0  0  0
  -29.7700   16.5210  -19.5090 O   0  0  0  0  0  0  0  0  0  0  0  0
  -31.3130   11.8020  -20.2510 C   0  0  0  0  0  0  0  0  0  0  0  0
  -31.9140   10.8120  -20.8830 C   0  0  0  0  0  0  0  0  0  0  0  0
  -31.9690   10.8030  -22.3890 C   0  0  0  0  0  0  0  0  0  0  0  0
  -31.1650   11.7560  -18.8700 N   0  0  0  0  0  0  0  0  0  0  0  0
  -30.2640   11.7380  -18.4730 H   0  0  0  0  0  0  0  0  0  0  0  0
  -32.2670   11.7350  -18.0650 N   0  0  0  0  0  0  0  0  0  0  0  0
  -32.0490   10.8710  -16.8950 C   0  0  0  0  0  0  0  0  0  0  0  0
  -33.3320   10.8120  -16.0630 C   0  0  0  0  0  0  0  0  0  0  0  0
  -33.6860   12.1810  -15.6340 N   0  0  0  0  0  0  0  0  0  0  0  0
  -32.9110   12.5710  -15.0950 H   0  0  0  0  0  0  0  0  0  0  0  0
  -34.8930   12.1490  -14.7810 C   0  0  0  0  0  0  0  0  0  0  0  0
  -33.9250   13.0330  -16.8170 C   0  0  0  0  0  0  0  0  0  0  0  0
  -32.6420   13.0930  -17.6500 C   0  0  0  0  0  0  0  0  0  0  0  0
  -27.7800   14.8190  -19.5760 C   0  0  0  0  0  0  0  0  0  0  0  0
  -27.4820   14.0160  -18.3100 C   0  0  0  0  0  0  0  0  0  0  0  0
  -29.3440   13.8470  -16.6530 C   0  0  0  0  0  0  0  0  0  0  0  0
  -28.1500   14.6890  -17.1090 C   0  0  0  0  0  0  0  0  0  0  0  0
  1  9  1  0  0  0  0
  1 24  1  0  0  0  0
  2  1  1  0  0  0  0
  3  4  1  0  0  0  0
  3  2  1  0  0  0  0
  3 11  1  1  0  0  0
  4  5  1  0  0  0  0
  5  6  1  0  0  0  0
  5  9  1  0  0  0  0
  7  4  2  0  0  0  0
  8  2  2  0  0  0  0
  9 10  2  0  0  0  0
 11 14  1  0  0  0  0
 12 11  2  0  0  0  0
 13 12  1  0  0  0  0
 14 15  1  0  0  0  0
 14 16  1  0  0  0  0
 16 23  1  0  0  0  0
 16 17  1  0  0  0  0
 17 18  1  0  0  0  0
 18 19  1  0  0  0  0
 19 20  1  0  0  0  0
 19 21  1  0  0  0  0
 22 19  1  0  0  0  0
 23 22  1  0  0  0  0
 24 25  1  0  0  0  0
 25 27  1  0  0  0  0
 27 26  1  0  0  0  0
M  END
>  <MODEL>
1

>  <REMARK>
 VINA RESULT:      -5.0      0.000      0.000
  Name = ZINC05736586
                            x       y       z     vdW  Elec       q    Type
                         _______ _______ _______ _____ _____    ______ ____

>  <TORSDO>
F 6

>  <vina_score>
-5.0

$$$$
ZINC02269343
 OpenBabel01081721443D

 27 28  0  0  1  0  0  0  0  0999 V2000
  -31.2270   12.9370  -21.9610 N   0  0  0  0  0  0  0  0  0  0  0  0
  -31.4910   12.2890  -22.6550 H   0  0  0  0  0  0  0  0  0  0  0  0
  -32.5940   14.8790  -21.1250 C   0  0  0  0  0  0  0  0  0  0  0  0
  -32.1820   13.4300  -21.0660 C   0  0  0  0  0  0  0  0  0  0  0  0
  -32.7260   12.6240  -20.1670 C   0  0  0  0  0  0  0  0  0  0  0  0
  -32.4270   11.1370  -20.1430 C   0  0  0  0  0  0  0  0  0  0  0  0
  -32.0130   10.8050  -18.8130 O   0  0  0  0  0  0  0  0  0  0  0  0
  -32.7000   11.3760  -17.7870 C   0  0  0  0  0  0  0  0  0  0  0  0
  -32.6200   10.8030  -16.5240 C   0  0  0  0  0  0  0  0  0  0  0  0
  -33.2940   11.3710  -15.4600 C   0  0  0  0  0  0  0  0  0  0  0  0
  -34.0600   12.5060  -15.6490 C   0  0  0  0  0  0  0  0  0  0  0  0
  -34.1490   13.0800  -16.9030 C   0  0  0  0  0  0  0  0  0  0  0  0
  -33.4720   12.5160  -17.9760 C   0  0  0  0  0  0  0  0  0  0  0  0
  -33.5870   13.0870  -19.2080 O   0  0  0  0  0  0  0  0  0  0  0  0
  -29.8820   13.3690  -21.8700 O   0  0  0  0  0  0  0  0  0  0  0  0
  -28.9340   12.3040  -21.7850 C   0  0  0  0  0  0  0  0  0  0  0  0
  -27.5440   12.8800  -21.5010 C   0  0  1  0  0  0  0  0  0  0  0  0
  -27.4210   14.1590  -22.1280 O   0  0  0  0  0  0  0  0  0  0  0  0
  -27.8150   14.1230  -23.0140 H   0  0  0  0  0  0  0  0  0  0  0  0
  -27.3530   13.0320  -19.9910 C   0  0  0  0  0  0  0  0  0  0  0  0
  -28.6630   12.9080  -19.3230 N   0  0  0  0  0  0  0  0  0  0  0  0
  -29.3960   12.8900  -20.0320 H   0  0  0  0  0  0  0  0  0  0  0  0
  -28.6810   12.0450  -18.7790 H   0  0  0  0  0  0  0  0  0  0  0  0
  -28.8900   14.0560  -18.4250 C   0  0  0  0  0  0  0  0  0  0  0  0
  -29.3640   15.2610  -19.2390 C   0  0  0  0  0  0  0  0  0  0  0  0
  -27.5790   14.4030  -17.7150 C   0  0  0  0  0  0  0  0  0  0  0  0
  -29.9520   13.6930  -17.3850 C   0  0  0  0  0  0  0  0  0  0  0  0
  1 15  1  0  0  0  0
  1  4  1  0  0  0  0
  2  1  1  0  0  0  0
  3  4  1  0  0  0  0
  4  5  2  0  0  0  0
  5  6  1  0  0  0  0
  5 14  1  0  0  0  0
  6  7  1  0  0  0  0
  7  8  1  0  0  0  0
  8  9  1  0  0  0  0
  9 10  2  0  0  0  0
 11 10  1  0  0  0  0
 12 11  2  0  0  0  0
 13  8  2  0  0  0  0
 13 12  1  0  0  0  0
 14 13  1  0  0  0  0
 15 16  1  0  0  0  0
 16 17  1  0  0  0  0
 17 18  1  6  0  0  0
 17 20  1  0  0  0  0
 19 18  1  0  0  0  0
 20 21  1  0  0  0  0
 21 23  1  0  0  0  0
 21 24  1  0  0  0  0
 22 21  1  0  0  0  0
 24 26  1  0  0  0  0
 24 27  1  0  0  0  0
 25 24  1  0  0  0  0
M  END
>  <MODEL>
1

>  <REMARK>
 VINA RESULT:      -5.0      0.000      0.000
  Name = ZINC02269343
                            x       y       z     vdW  Elec       q    Type
                         _______ _______ _______ _____ _____    ______ ____

>  <TORSDO>
F 8

>  <vina_score>
-5.0

$$$$
ZINC28090587
 OpenBabel01081721463D

 30 30  0  0  1  0  0  0  0  0999 V2000
  -30.3140   11.7240  -21.5460 N   0  0  0  0  0  0  0  0  0  0  0  0
  -31.6600   11.7560  -21.5710 C   0  0  0  0  0  0  0  0  0  0  0  0
  -32.2350   12.5450  -22.2910 O   0  0  0  0  0  0  0  0  0  0  0  0
  -29.6430   10.8030  -20.7060 O   0  0  0  0  0  0  0  0  0  0  0  0
  -28.6850   10.9410  -20.7740 H   0  0  0  0  0  0  0  0  0  0  0  0
  -29.5430   12.6430  -22.3890 C   0  0  0  0  0  0  0  0  0  0  0  0
  -28.0490   12.3850  -22.1880 C   0  0  0  0  0  0  0  0  0  0  0  0
  -27.4210   13.5780  -21.6490 O   0  0  0  0  0  0  0  0  0  0  0  0
  -27.4570   13.7370  -20.3160 C   0  0  0  0  0  0  0  0  0  0  0  0
  -26.7240   13.0840  -19.6100 O   0  0  0  0  0  0  0  0  0  0  0  0
  -28.4080   14.7290  -19.7000 C   0  0  1  0  0  0  0  0  0  0  0  0
  -28.9100   15.6360  -20.7410 N   0  0  0  0  0  0  0  0  0  0  0  0
  -29.8980   15.4460  -20.9100 H   0  0  0  0  0  0  0  0  0  0  0  0
  -28.7980   16.6020  -20.4320 H   0  0  0  0  0  0  0  0  0  0  0  0
  -28.3840   15.4900  -21.6020 H   0  0  0  0  0  0  0  0  0  0  0  0
  -29.5820   13.9830  -19.0650 C   0  0  2  0  0  0  0  0  0  0  0  0
  -30.8920   14.6820  -19.4350 C   0  0  0  0  0  0  0  0  0  0  0  0
  -28.4570   15.0910  -17.1270 C   0  0  0  0  0  0  0  0  0  0  0  0
  -29.4210   13.9770  -17.5420 C   0  0  0  0  0  0  0  0  0  0  0  0
  -32.4540   10.8160  -20.7000 C   0  0  0  0  0  0  0  0  0  0  0  0
  -32.7230   11.4690  -19.3690 C   0  0  0  0  0  0  0  0  0  0  0  0
  -33.6880   12.4540  -19.2670 C   0  0  0  0  0  0  0  0  0  0  0  0
  -33.9430   13.0530  -18.0470 C   0  0  0  0  0  0  0  0  0  0  0  0
  -33.2230   12.6720  -16.9250 C   0  0  0  0  0  0  0  0  0  0  0  0
  -32.2480   11.6850  -17.0290 C   0  0  0  0  0  0  0  0  0  0  0  0
  -32.0020   11.0860  -18.2540 C   0  0  0  0  0  0  0  0  0  0  0  0
  -33.4700   13.2640  -15.7260 O   0  0  0  0  0  0  0  0  0  0  0  0
  -34.5450   12.7320  -14.9490 C   0  0  0  0  0  0  0  0  0  0  0  0
  -31.5400   11.3090  -15.9320 O   0  0  0  0  0  0  0  0  0  0  0  0
  -31.5820   11.8220  -15.1480 H   0  0  0  0  0  0  0  0  0  0  0  0
  1  4  1  0  0  0  0
  2  1  1  0  0  0  0
  2 20  1  0  0  0  0
  3  2  2  0  0  0  0
  5  4  1  0  0  0  0
  6  7  1  0  0  0  0
  6  1  1  0  0  0  0
  7  8  1  0  0  0  0
  8  9  1  0  0  0  0
  9 11  1  0  0  0  0
  9 10  2  0  0  0  0
 11 12  1  6  0  0  0
 11 16  1  0  0  0  0
 12 14  1  0  0  0  0
 13 12  1  0  0  0  0
 15 12  1  0  0  0  0
 16 17  1  1  0  0  0
 16 19  1  0  0  0  0
 19 18  1  0  0  0  0
 20 21  1  0  0  0  0
 21 22  2  0  0  0  0
 21 26  1  0  0  0  0
 22 23  1  0  0  0  0
 23 24  2  0  0  0  0
 24 27  1  0  0  0  0
 25 24  1  0  0  0  0
 25 29  1  0  0  0  0
 26 25  2  0  0  0  0
 27 28  1  0  0  0  0
 29 30  1  0  0  0  0
M  END
>  <MODEL>
1

>  <REMARK>
 VINA RESULT:      -5.0      0.000      0.000
  Name = ZINC28090587
                            x       y       z     vdW  Elec       q    Type
                         _______ _______ _______ _____ _____    ______ ____

>  <TORSDO>
F 13

>  <vina_score>
-5.0

$$$$
ZINC20744634
 OpenBabel01081721453D

 28 30  0  0  0  0  0  0  0  0999 V2000
  -32.1720   10.8040  -17.1700 C   0  0  0  0  0  0  0  0  0  0  0  0
  -32.5070   11.9280  -18.0480 N   0  0  0  0  0  0  0  0  0  0  0  0
  -32.0930   12.0860  -19.3380 C   0  0  0  0  0  0  0  0  0  0  0  0
  -32.6480   13.2970  -19.7920 C   0  0  0  0  0  0  0  0  0  0  0  0
  -32.3780   13.7040  -21.1140 C   0  0  0  0  0  0  0  0  0  0  0  0
  -31.6140   12.9270  -21.8720 N   0  0  0  0  0  0  0  0  0  0  0  0
  -31.1110   11.7910  -21.4030 C   0  0  0  0  0  0  0  0  0  0  0  0
  -33.3920   13.8390  -18.7220 C   0  0  0  0  0  0  0  0  0  0  0  0
  -31.3360   11.3710  -20.1690 N   0  0  0  0  0  0  0  0  0  0  0  0
  -33.3000   13.0310  -17.7040 N   0  0  0  0  0  0  0  0  0  0  0  0
  -32.8980   14.8830  -21.6100 N   0  0  0  0  0  0  0  0  0  0  0  0
  -33.5220   14.8640  -22.3710 H   0  0  0  0  0  0  0  0  0  0  0  0
  -32.5180   16.1630  -21.0060 C   0  0  0  0  0  0  0  0  0  0  0  0
  -31.3360   15.9490  -20.0590 C   0  0  0  0  0  0  0  0  0  0  0  0
  -30.2720   17.0160  -20.3220 C   0  0  0  0  0  0  0  0  0  0  0  0
  -29.2280   16.8980  -19.3530 O   0  0  0  0  0  0  0  0  0  0  0  0
  -29.0870   17.7580  -18.9260 H   0  0  0  0  0  0  0  0  0  0  0  0
  -30.3190   11.0190  -22.2350 N   0  0  0  0  0  0  0  0  0  0  0  0
  -30.6550   10.1580  -22.5750 H   0  0  0  0  0  0  0  0  0  0  0  0
  -28.9820   11.4830  -22.6110 C   0  0  0  0  0  0  0  0  0  0  0  0
  -28.4720   12.4450  -21.5690 C   0  0  0  0  0  0  0  0  0  0  0  0
  -28.6880   12.1870  -20.2280 C   0  0  0  0  0  0  0  0  0  0  0  0
  -28.2170   13.0650  -19.2710 C   0  0  0  0  0  0  0  0  0  0  0  0
  -27.5370   14.2110  -19.6560 C   0  0  0  0  0  0  0  0  0  0  0  0
  -27.3280   14.4700  -21.0030 C   0  0  0  0  0  0  0  0  0  0  0  0
  -27.7950   13.5870  -21.9550 C   0  0  0  0  0  0  0  0  0  0  0  0
  -27.0780   15.0790  -18.7160 O   0  0  0  0  0  0  0  0  0  0  0  0
  -27.5430   14.8910  -17.3790 C   0  0  0  0  0  0  0  0  0  0  0  0
  2 10  1  0  0  0  0
  2  1  1  0  0  0  0
  3  2  1  0  0  0  0
  4  3  1  0  0  0  0
  4  8  1  0  0  0  0
  5  4  2  0  0  0  0
  6  7  2  0  0  0  0
  6  5  1  0  0  0  0
  7  9  1  0  0  0  0
  8 10  2  0  0  0  0
  9  3  2  0  0  0  0
 11  5  1  0  0  0  0
 11 13  1  0  0  0  0
 12 11  1  0  0  0  0
 13 14  1  0  0  0  0
 15 14  1  0  0  0  0
 15 16  1  0  0  0  0
 16 17  1  0  0  0  0
 18  7  1  0  0  0  0
 19 18  1  0  0  0  0
 20 18  1  0  0  0  0
 20 21  1  0  0  0  0
 21 22  1  0  0  0  0
 22 23  2  0  0  0  0
 24 23  1  0  0  0  0
 24 27  1  0  0  0  0
 25 24  2  0  0  0  0
 26 21  2  0  0  0  0
 26 25  1  0  0  0  0
 27 28  1  0  0  0  0
M  END
>  <MODEL>
1

>  <REMARK>
 VINA RESULT:      -4.9      0.000      0.000
  Name = ZINC20744634
                            x       y       z     vdW  Elec       q    Type
                         _______ _______ _______ _____ _____    ______ ____

>  <TORSDO>
F 9

>  <vina_score>
-4.9

$$$$
ZINC17430523
 OpenBabel01081722013D

 34 36  0  0  1  0  0  0  0  0999 V2000
  -29.4660   15.1860  -18.6580 C   0  0  0  0  0  0  0  0  0  0  0  0
  -30.5610   14.3650  -18.4620 C   0  0  0  0  0  0  0  0  0  0  0  0
  -31.3990   14.5800  -19.5190 N   0  0  0  0  0  0  0  0  0  0  0  0
  -30.8170   15.5160  -20.3210 C   0  0  0  0  0  0  0  0  0  0  0  0
  -29.6760   15.8720  -19.8110 N   0  0  0  0  0  0  0  0  0  0  0  0
  -32.6900   13.9280  -19.7480 C   0  0  1  0  0  0  0  0  0  0  0  0
  -32.5960   12.9250  -20.9270 C   0  0  2  0  0  0  0  0  0  0  0  0
  -33.7490   11.9410  -20.6080 C   0  0  1  0  0  0  0  0  0  0  0  0
  -34.0030   12.1330  -19.1000 C   0  0  2  0  0  0  0  0  0  0  0  0
  -33.0450   13.0940  -18.6240 O   0  0  0  0  0  0  0  0  0  0  0  0
  -31.3360   12.2520  -20.9250 O   0  0  0  0  0  0  0  0  0  0  0  0
  -31.4800   11.2970  -20.8320 H   0  0  0  0  0  0  0  0  0  0  0  0
  -34.9170   12.2790  -21.3590 O   0  0  0  0  0  0  0  0  0  0  0  0
  -35.6870   11.8290  -20.9770 H   0  0  0  0  0  0  0  0  0  0  0  0
  -33.8140   10.8040  -18.3670 C   0  0  0  0  0  0  0  0  0  0  0  0
  -33.5770   11.0540  -16.9800 O   0  0  0  0  0  0  0  0  0  0  0  0
  -34.4200   11.0500  -16.5010 H   0  0  0  0  0  0  0  0  0  0  0  0
  -30.7680   13.4930  -17.4030 N   0  0  0  0  0  0  0  0  0  0  0  0
  -31.2210   13.8070  -16.5870 H   0  0  0  0  0  0  0  0  0  0  0  0
  -30.3480   12.2150  -17.4900 C   0  0  0  0  0  0  0  0  0  0  0  0
  -29.7080   11.8520  -18.4550 O   0  0  0  0  0  0  0  0  0  0  0  0
  -28.2940   15.2990  -17.7750 C   0  0  0  0  0  0  0  0  0  0  0  0
  -28.4680   15.9170  -16.6130 N   0  0  0  0  0  0  0  0  0  0  0  0
  -27.7130   16.0160  -15.9900 H   0  0  0  0  0  0  0  0  0  0  0  0
  -27.0800   14.7720  -18.1700 N   0  0  0  0  0  0  0  0  0  0  0  0
  -26.4350   15.3330  -18.6580 H   0  0  0  0  0  0  0  0  0  0  0  0
  -26.7630   13.4240  -17.8730 O   0  0  0  0  0  0  0  0  0  0  0  0
  -26.2270   12.6960  -18.9790 C   0  0  0  0  0  0  0  0  0  0  0  0
  -27.9410   14.1550  -22.6090 C   0  0  0  0  0  0  0  0  0  0  0  0
  -26.9200   14.8560  -21.9970 C   0  0  0  0  0  0  0  0  0  0  0  0
  -26.3660   14.3840  -20.8220 C   0  0  0  0  0  0  0  0  0  0  0  0
  -26.8330   13.2100  -20.2600 C   0  0  0  0  0  0  0  0  0  0  0  0
  -27.8500   12.5060  -20.8750 C   0  0  0  0  0  0  0  0  0  0  0  0
  -28.4080   12.9810  -22.0470 C   0  0  0  0  0  0  0  0  0  0  0  0
  1  2  2  0  0  0  0
  1 22  1  0  0  0  0
  2 18  1  0  0  0  0
  3  2  1  0  0  0  0
  4  5  2  0  0  0  0
  4  3  1  0  0  0  0
  5  1  1  0  0  0  0
  6  3  1  1  0  0  0
  6 10  1  0  0  0  0
  7 11  1  1  0  0  0
  7  8  1  0  0  0  0
  7  6  1  0  0  0  0
  8 13  1  6  0  0  0
  8  9  1  0  0  0  0
  9 10  1  0  0  0  0
  9 15  1  1  0  0  0
 11 12  1  0  0  0  0
 13 14  1  0  0  0  0
 15 16  1  0  0  0  0
 16 17  1  0  0  0  0
 18 19  1  0  0  0  0
 20 18  1  0  0  0  0
 21 20  2  0  0  0  0
 22 23  2  0  0  0  0
 23 24  1  0  0  0  0
 25 27  1  0  0  0  0
 25 22  1  0  0  0  0
 26 25  1  0  0  0  0
 28 27  1  0  0  0  0
 29 34  2  0  0  0  0
 29 30  1  0  0  0  0
 30 31  2  0  0  0  0
 31 32  1  0  0  0  0
 32 28  1  0  0  0  0
 33 32  2  0  0  0  0
 34 33  1  0  0  0  0
M  END
>  <MODEL>
1

>  <REMARK>
 VINA RESULT:      -4.7      0.000      0.000
  Name = ZINC17430523
                            x       y       z     vdW  Elec       q    Type
                         _______ _______ _______ _____ _____    ______ ____

>  <TORSDO>
F 11

>  <vina_score>
-4.7

$$$$
ZINC04474059
 OpenBabel01081721583D

 33 35  0  0  1  0  0  0  0  0999 V2000
  -31.4570   12.4080  -17.7470 C   0  0  0  0  0  0  0  0  0  0  0  0
  -30.9200   12.2530  -19.0490 C   0  0  0  0  0  0  0  0  0  0  0  0
  -31.5620   11.4880  -19.9420 C   0  0  0  0  0  0  0  0  0  0  0  0
  -31.1070   11.3100  -21.1910 O   0  0  0  0  0  0  0  0  0  0  0  0
  -29.8220   11.5780  -21.4750 C   0  0  0  0  0  0  0  0  0  0  0  0
  -29.2680   11.0540  -22.6120 N   0  0  0  0  0  0  0  0  0  0  0  0
  -28.3270   11.2420  -22.8330 H   0  0  0  0  0  0  0  0  0  0  0  0
  -29.8100   10.4890  -23.2090 H   0  0  0  0  0  0  0  0  0  0  0  0
  -29.0580   12.3550  -20.6630 C   0  0  0  0  0  0  0  0  0  0  0  0
  -27.7200   12.6140  -21.0030 C   0  0  0  0  0  0  0  0  0  0  0  0
  -27.2790   12.2320  -22.0720 O   0  0  0  0  0  0  0  0  0  0  0  0
  -29.6350   12.9410  -19.4070 C   0  0  1  0  0  0  0  0  0  0  0  0
  -29.8550   14.4240  -19.5660 C   0  0  0  0  0  0  0  0  0  0  0  0
  -30.6360   15.1720  -20.4180 C   0  0  0  0  0  0  0  0  0  0  0  0
  -30.6330   16.5530  -20.3240 C   0  0  0  0  0  0  0  0  0  0  0  0
  -29.8430   17.1770  -19.3760 C   0  0  0  0  0  0  0  0  0  0  0  0
  -29.0600   16.4300  -18.5210 C   0  0  0  0  0  0  0  0  0  0  0  0
  -29.0580   15.0390  -18.6080 C   0  0  0  0  0  0  0  0  0  0  0  0
  -28.3640   14.0800  -17.8690 N   0  0  0  0  0  0  0  0  0  0  0  0
  -27.7410   14.2950  -17.1380 H   0  0  0  0  0  0  0  0  0  0  0  0
  -28.6440   12.8270  -18.2720 C   0  0  0  0  0  0  0  0  0  0  0  0
  -28.1880   11.8020  -17.8120 O   0  0  0  0  0  0  0  0  0  0  0  0
  -32.0170   13.4440  -17.4400 O   0  0  0  0  0  0  0  0  0  0  0  0
  -26.9230   13.2850  -20.1440 O   0  0  0  0  0  0  0  0  0  0  0  0
  -25.5360   13.3690  -20.4760 C   0  0  0  0  0  0  0  0  0  0  0  0
  -31.3480   11.4080  -16.8480 O   0  0  0  0  0  0  0  0  0  0  0  0
  -32.2570   11.4250  -15.7450 C   0  0  0  0  0  0  0  0  0  0  0  0
  -33.6030   10.8460  -16.1840 C   0  0  0  0  0  0  0  0  0  0  0  0
  -34.6880   12.4770  -14.8030 C   0  0  0  0  0  0  0  0  0  0  0  0
  -34.5840   11.1020  -15.1760 O   0  0  0  0  0  0  0  0  0  0  0  0
  -32.8430   10.8090  -19.5310 C   0  0  0  0  0  0  0  0  0  0  0  0
  -33.8460   11.0430  -20.5230 O   0  0  0  0  0  0  0  0  0  0  0  0
  -34.5230   12.2940  -20.3810 C   0  0  0  0  0  0  0  0  0  0  0  0
  1 23  2  0  0  0  0
  1 26  1  0  0  0  0
  2  1  1  0  0  0  0
  3 31  1  0  0  0  0
  3  2  2  0  0  0  0
  4  3  1  0  0  0  0
  5  4  1  0  0  0  0
  5  9  2  0  0  0  0
  6  5  1  0  0  0  0
  7  6  1  0  0  0  0
  8  6  1  0  0  0  0
 10  9  1  0  0  0  0
 10 24  1  0  0  0  0
 11 10  2  0  0  0  0
 12  9  1  6  0  0  0
 12  2  1  0  0  0  0
 12 21  1  0  0  0  0
 13 12  1  0  0  0  0
 13 18  2  0  0  0  0
 14 15  2  0  0  0  0
 14 13  1  0  0  0  0
 15 16  1  0  0  0  0
 16 17  2  0  0  0  0
 18 17  1  0  0  0  0
 18 19  1  0  0  0  0
 19 20  1  0  0  0  0
 21 19  1  0  0  0  0
 21 22  2  0  0  0  0
 25 24  1  0  0  0  0
 26 27  1  0  0  0  0
 28 27  1  0  0  0  0
 28 30  1  0  0  0  0
 30 29  1  0  0  0  0
 32 33  1  0  0  0  0
 32 31  1  0  0  0  0
M  END
>  <MODEL>
1

>  <REMARK>
 VINA RESULT:      -4.6      0.000      0.000
  Name = ZINC04474059
                            x       y       z     vdW  Elec       q    Type
                         _______ _______ _______ _____ _____    ______ ____

>  <TORSDO>
F 7

>  <vina_score>
-4.6

$$$$
ZINC05885721
 OpenBabel01081721523D

 27 28  0  0  0  0  0  0  0  0999 V2000
  -31.7230   12.4270  -20.2770 C   0  0  0  0  0  0  0  0  0  0  0  0
  -31.4830   11.6240  -19.0750 C   0  0  0  0  0  0  0  0  0  0  0  0
  -32.3250   11.8210  -17.9420 C   0  0  0  0  0  0  0  0  0  0  0  0
  -33.3040   12.7370  -17.9940 C   0  0  0  0  0  0  0  0  0  0  0  0
  -34.2170   13.0140  -16.8240 C   0  0  0  0  0  0  0  0  0  0  0  0
  -34.1800   11.8640  -15.8230 C   0  0  0  0  0  0  0  0  0  0  0  0
  -32.7130   11.5650  -15.4890 C   0  0  0  0  0  0  0  0  0  0  0  0
  -33.5150   13.4770  -19.1260 N   0  0  0  0  0  0  0  0  0  0  0  0
  -34.2470   14.1340  -19.1260 H   0  0  0  0  0  0  0  0  0  0  0  0
  -32.0570   10.9660  -16.7310 C   0  0  0  0  0  0  0  0  0  0  0  0
  -30.5800   10.8030  -19.0450 O   0  0  0  0  0  0  0  0  0  0  0  0
  -32.7670   13.3490  -20.2430 C   0  0  0  0  0  0  0  0  0  0  0  0
  -29.5590   12.0910  -21.3530 N   0  0  0  0  0  0  0  0  0  0  0  0
  -29.1460   12.0730  -20.4590 H   0  0  0  0  0  0  0  0  0  0  0  0
  -30.8910   12.2650  -21.4750 C   0  0  0  0  0  0  0  0  0  0  0  0
  -31.4010   12.2890  -22.5780 O   0  0  0  0  0  0  0  0  0  0  0  0
  -28.7290   11.9300  -22.5470 C   0  0  0  0  0  0  0  0  0  0  0  0
  -27.4860   12.8150  -22.4290 C   0  0  0  0  0  0  0  0  0  0  0  0
  -27.7990   14.0180  -21.5380 C   0  0  0  0  0  0  0  0  0  0  0  0
  -26.3110   12.7400  -20.1570 C   0  0  0  0  0  0  0  0  0  0  0  0
  -26.8180   14.0880  -20.4460 N   0  0  0  0  0  0  0  0  0  0  0  0
  -25.7030   14.9570  -20.8460 C   0  0  0  0  0  0  0  0  0  0  0  0
  -27.4610   14.6380  -19.2450 C   0  0  0  0  0  0  0  0  0  0  0  0
  -28.0140   13.5110  -18.4110 C   0  0  0  0  0  0  0  0  0  0  0  0
  -28.9070   13.7570  -17.4850 C   0  0  0  0  0  0  0  0  0  0  0  0
  -33.0310   14.1100  -21.3240 O   0  0  0  0  0  0  0  0  0  0  0  0
  -32.3380   14.3620  -21.9010 H   0  0  0  0  0  0  0  0  0  0  0  0
  1 12  2  0  0  0  0
  1  2  1  0  0  0  0
  2 11  2  0  0  0  0
  2  3  1  0  0  0  0
  3 10  1  0  0  0  0
  4  3  2  0  0  0  0
  4  5  1  0  0  0  0
  5  6  1  0  0  0  0
  6  7  1  0  0  0  0
  8  4  1  0  0  0  0
  9  8  1  0  0  0  0
 10  7  1  0  0  0  0
 12  8  1  0  0  0  0
 13 14  1  0  0  0  0
 15 13  1  0  0  0  0
 15  1  1  0  0  0  0
 16 15  2  0  0  0  0
 17 18  1  0  0  0  0
 17 13  1  0  0  0  0
 18 19  1  0  0  0  0
 19 21  1  0  0  0  0
 21 20  1  0  0  0  0
 21 23  1  0  0  0  0
 22 21  1  0  0  0  0
 23 24  1  0  0  0  0
 24 25  2  0  0  0  0
 26 12  1  0  0  0  0
 27 26  1  0  0  0  0
M  END
>  <MODEL>
1

>  <REMARK>
 VINA RESULT:      -4.4      0.000      0.000
  Name = ZINC05885721
                            x       y       z     vdW  Elec       q    Type
                         _______ _______ _______ _____ _____    ______ ____

>  <TORSDO>
F 8

>  <vina_score>
-4.4

$$$$
ZINC29491643
 OpenBabel01081721373D

 27 28  0  0  1  0  0  0  0  0999 V2000
  -33.7250   12.9270  -16.6800 C   0  0  0  0  0  0  0  0  0  0  0  0
  -34.3160   12.6050  -15.4820 N   0  0  0  0  0  0  0  0  0  0  0  0
  -35.2430   12.2730  -15.4640 H   0  0  0  0  0  0  0  0  0  0  0  0
  -33.8130   12.7050  -14.6420 H   0  0  0  0  0  0  0  0  0  0  0  0
  -34.3950   12.7930  -17.8010 N   0  0  0  0  0  0  0  0  0  0  0  0
  -35.3730   12.8970  -17.8050 H   0  0  0  0  0  0  0  0  0  0  0  0
  -33.7300   12.5070  -18.9660 C   0  0  0  0  0  0  0  0  0  0  0  0
  -33.0550   13.5180  -19.6530 C   0  0  0  0  0  0  0  0  0  0  0  0
  -32.3860   13.2260  -20.8240 C   0  0  0  0  0  0  0  0  0  0  0  0
  -32.3860   11.9290  -21.3190 C   0  0  0  0  0  0  0  0  0  0  0  0
  -33.0600   10.9230  -20.6430 C   0  0  0  0  0  0  0  0  0  0  0  0
  -33.7260   11.2050  -19.4680 C   0  0  0  0  0  0  0  0  0  0  0  0
  -31.7260   11.6450  -22.4740 O   0  0  0  0  0  0  0  0  0  0  0  0
  -30.5190   10.8890  -22.3620 C   0  0  0  0  0  0  0  0  0  0  0  0
  -32.0660   13.5210  -16.7110 S   0  0  0  0  0  0  0  0  0  0  0  0
  -31.1680   11.9510  -16.6380 C   0  0  0  0  0  0  0  0  0  0  0  0
  -29.3210   13.9650  -17.3900 C   0  0  0  0  0  0  0  0  0  0  0  0
  -29.4500   12.7650  -18.2200 N   0  0  0  0  0  0  0  0  0  0  0  0
  -30.3240   11.7980  -17.8760 C   0  0  0  0  0  0  0  0  0  0  0  0
  -30.4300   10.8040  -18.5640 O   0  0  0  0  0  0  0  0  0  0  0  0
  -28.6280   12.6160  -19.4240 C   0  0  2  0  0  0  0  0  0  0  0  0
  -27.1450   12.8070  -19.0670 C   0  0  0  0  0  0  0  0  0  0  0  0
  -26.3080   12.9710  -20.3600 C   0  0  0  0  0  0  0  0  0  0  0  0
  -27.5190   13.7000  -21.5350 S   0  0  0  0  0  0  0  0  0  0  0  0
  -27.1460   15.0440  -21.8080 O   0  0  0  0  0  0  0  0  0  0  0  0
  -27.7210   12.7970  -22.6130 O   0  0  0  0  0  0  0  0  0  0  0  0
  -29.0210   13.7020  -20.4660 C   0  0  0  0  0  0  0  0  0  0  0  0
  1  2  2  0  0  0  0
  2  3  1  0  0  0  0
  2  4  1  0  0  0  0
  5  1  1  0  0  0  0
  6  5  1  0  0  0  0
  7  5  1  0  0  0  0
  8  7  2  0  0  0  0
  9  8  1  0  0  0  0
 10  9  2  0  0  0  0
 10 11  1  0  0  0  0
 11 12  2  0  0  0  0
 12  7  1  0  0  0  0
 13 14  1  0  0  0  0
 13 10  1  0  0  0  0
 15  1  1  0  0  0  0
 15 16  1  0  0  0  0
 18 19  1  0  0  0  0
 18 17  1  0  0  0  0
 19 16  1  0  0  0  0
 20 19  2  0  0  0  0
 21 22  1  0  0  0  0
 21 18  1  1  0  0  0
 23 22  1  0  0  0  0
 24 27  1  0  0  0  0
 24 23  1  0  0  0  0
 25 24  2  0  0  0  0
 26 24  2  0  0  0  0
 27 21  1  0  0  0  0
M  END
>  <MODEL>
1

>  <REMARK>
 VINA RESULT:      -4.3      0.000      0.000
  Name = ZINC29491643
                            x       y       z     vdW  Elec       q    Type
                         _______ _______ _______ _____ _____    ______ ____

>  <TORSDO>
F 7

>  <vina_score>
-4.3

$$$$
ZINC31971727
 OpenBabel01081721533D

 28 29  0  0  0  0  0  0  0  0999 V2000
  -33.3620   11.3330  -18.7040 C   0  0  0  0  0  0  0  0  0  0  0  0
  -32.2710   11.1440  -19.5370 C   0  0  0  0  0  0  0  0  0  0  0  0
  -31.0370   11.6750  -19.1940 C   0  0  0  0  0  0  0  0  0  0  0  0
  -30.8940   12.3940  -18.0080 C   0  0  0  0  0  0  0  0  0  0  0  0
  -31.9890   12.5870  -17.1780 C   0  0  0  0  0  0  0  0  0  0  0  0
  -33.2220   12.0550  -17.5240 C   0  0  0  0  0  0  0  0  0  0  0  0
  -29.9320   11.4850  -20.0360 N   0  0  0  0  0  0  0  0  0  0  0  0
  -29.2570   10.8030  -19.8160 H   0  0  0  0  0  0  0  0  0  0  0  0
  -29.7940   12.2360  -21.1460 C   0  0  0  0  0  0  0  0  0  0  0  0
  -30.6740   13.0050  -21.4710 O   0  0  0  0  0  0  0  0  0  0  0  0
  -28.5470   12.1190  -21.9850 C   0  0  0  0  0  0  0  0  0  0  0  0
  -27.4480   13.0000  -21.3870 C   0  0  0  0  0  0  0  0  0  0  0  0
  -27.5360   14.4030  -21.9910 C   0  0  0  0  0  0  0  0  0  0  0  0
  -28.4880   15.2100  -21.2180 N   0  0  0  0  0  0  0  0  0  0  0  0
  -28.7760   16.0180  -21.7690 H   0  0  0  0  0  0  0  0  0  0  0  0
  -29.3060   14.6450  -20.9900 H   0  0  0  0  0  0  0  0  0  0  0  0
  -28.0440   15.5280  -20.3560 H   0  0  0  0  0  0  0  0  0  0  0  0
  -29.6460   12.9270  -17.6560 N   0  0  0  0  0  0  0  0  0  0  0  0
  -28.9780   12.3610  -17.2050 H   0  0  0  0  0  0  0  0  0  0  0  0
  -29.3600   14.2140  -17.9360 C   0  0  0  0  0  0  0  0  0  0  0  0
  -30.1400   14.8830  -18.5790 O   0  0  0  0  0  0  0  0  0  0  0  0
  -28.0700   14.8220  -17.4500 C   0  0  0  0  0  0  0  0  0  0  0  0
  -27.0440   15.2420  -18.5050 C   0  0  0  0  0  0  0  0  0  0  0  0
  -26.7880   14.0080  -17.6380 C   0  0  0  0  0  0  0  0  0  0  0  0
  -34.9120   10.8030  -20.4290 C   0  0  0  0  0  0  0  0  0  0  0  0
  -34.5740   10.8110  -19.0410 O   0  0  0  0  0  0  0  0  0  0  0  0
  -34.2940   12.2400  -16.7070 O   0  0  0  0  0  0  0  0  0  0  0  0
  -34.0320   12.7460  -15.3960 C   0  0  0  0  0  0  0  0  0  0  0  0
  1  6  2  0  0  0  0
  2  3  2  0  0  0  0
  2  1  1  0  0  0  0
  3  4  1  0  0  0  0
  4 18  1  0  0  0  0
  4  5  2  0  0  0  0
  6  5  1  0  0  0  0
  6 27  1  0  0  0  0
  7  8  1  0  0  0  0
  7  3  1  0  0  0  0
  9  7  1  0  0  0  0
 10  9  2  0  0  0  0
 11 12  1  0  0  0  0
 11  9  1  0  0  0  0
 13 12  1  0  0  0  0
 13 14  1  0  0  0  0
 14 16  1  0  0  0  0
 14 17  1  0  0  0  0
 15 14  1  0  0  0  0
 18 19  1  0  0  0  0
 20 18  1  0  0  0  0
 20 22  1  0  0  0  0
 21 20  2  0  0  0  0
 23 24  1  0  0  0  0
 23 22  1  0  0  0  0
 24 22  1  0  0  0  0
 25 26  1  0  0  0  0
 26  1  1  0  0  0  0
 27 28  1  0  0  0  0
M  END
>  <MODEL>
1

>  <REMARK>
 VINA RESULT:      -4.3      0.000      0.000
  Name = ZINC31971727
                            x       y       z     vdW  Elec       q    Type
                         _______ _______ _______ _____ _____    ______ ____

>  <TORSDO>
F 9

>  <vina_score>
-4.3

$$$$
ZINC17376865
 OpenBabel01081721533D

 28 30  0  0  1  0  0  0  0  0999 V2000
  -32.5620   11.7350  -17.2100 C   0  0  0  0  0  0  0  0  0  0  0  0
  -32.3510   12.6530  -18.2360 C   0  0  0  0  0  0  0  0  0  0  0  0
  -31.1550   12.5860  -18.9560 C   0  0  0  0  0  0  0  0  0  0  0  0
  -31.2020   13.5950  -19.9020 N   0  0  0  0  0  0  0  0  0  0  0  0
  -32.3690   14.2520  -19.7720 C   0  0  0  0  0  0  0  0  0  0  0  0
  -32.7220   15.1970  -20.4530 O   0  0  0  0  0  0  0  0  0  0  0  0
  -30.2640   11.6540  -18.6400 N   0  0  0  0  0  0  0  0  0  0  0  0
  -30.5010   10.8030  -17.6620 C   0  0  0  0  0  0  0  0  0  0  0  0
  -33.0850   13.7090  -18.7680 N   0  0  0  0  0  0  0  0  0  0  0  0
  -33.9720   14.0060  -18.4630 H   0  0  0  0  0  0  0  0  0  0  0  0
  -31.6160   10.8320  -16.9590 N   0  0  0  0  0  0  0  0  0  0  0  0
  -35.2180   12.7760  -14.7640 C   0  0  0  0  0  0  0  0  0  0  0  0
  -33.9460   12.7480  -15.5710 C   0  0  0  0  0  0  0  0  0  0  0  0
  -33.7360   11.7600  -16.4640 N   0  0  0  0  0  0  0  0  0  0  0  0
  -34.4140   11.0570  -16.5880 H   0  0  0  0  0  0  0  0  0  0  0  0
  -33.1110   13.6130  -15.4170 O   0  0  0  0  0  0  0  0  0  0  0  0
  -30.1540   13.8970  -20.8810 C   0  0  1  0  0  0  0  0  0  0  0  0
  -28.9990   14.6730  -20.2100 C   0  0  2  0  0  0  0  0  0  0  0  0
  -27.7270   14.1160  -20.8920 C   0  0  1  0  0  0  0  0  0  0  0  0
  -28.2670   13.0730  -21.8960 C   0  0  2  0  0  0  0  0  0  0  0  0
  -29.5500   12.6770  -21.3630 O   0  0  0  0  0  0  0  0  0  0  0  0
  -28.9690   14.4100  -18.8050 O   0  0  0  0  0  0  0  0  0  0  0  0
  -28.8470   13.4600  -18.6560 H   0  0  0  0  0  0  0  0  0  0  0  0
  -27.0300   15.1570  -21.5780 O   0  0  0  0  0  0  0  0  0  0  0  0
  -27.0800   15.0050  -22.5340 H   0  0  0  0  0  0  0  0  0  0  0  0
  -27.3270   11.8670  -21.9720 C   0  0  0  0  0  0  0  0  0  0  0  0
  -26.1320   12.1490  -21.2400 O   0  0  0  0  0  0  0  0  0  0  0  0
  -25.3830   12.2050  -21.8530 H   0  0  0  0  0  0  0  0  0  0  0  0
  1 11  1  0  0  0  0
  1 14  1  0  0  0  0
  2  1  2  0  0  0  0
  3  7  2  0  0  0  0
  3  2  1  0  0  0  0
  4  5  1  0  0  0  0
  4  3  1  0  0  0  0
  5  9  1  0  0  0  0
  6  5  2  0  0  0  0
  7  8  1  0  0  0  0
  8 11  2  0  0  0  0
  9 10  1  0  0  0  0
  9  2  1  0  0  0  0
 13 16  2  0  0  0  0
 13 12  1  0  0  0  0
 14 13  1  0  0  0  0
 15 14  1  0  0  0  0
 17 18  1  0  0  0  0
 17  4  1  1  0  0  0
 18 22  1  1  0  0  0
 19 24  1  6  0  0  0
 19 18  1  0  0  0  0
 20 26  1  1  0  0  0
 20 21  1  0  0  0  0
 20 19  1  0  0  0  0
 21 17  1  0  0  0  0
 22 23  1  0  0  0  0
 25 24  1  0  0  0  0
 26 27  1  0  0  0  0
 28 27  1  0  0  0  0
M  END
>  <MODEL>
1

>  <REMARK>
 VINA RESULT:      -4.3      0.000      0.000
  Name = ZINC17376865
                            x       y       z     vdW  Elec       q    Type
                         _______ _______ _______ _____ _____    ______ ____

>  <TORSDO>
F 6

>  <vina_score>
-4.3

$$$$
ZINC09467478
 OpenBabel01081721523D

 33 35  0  0  0  0  0  0  0  0999 V2000
  -30.0370   14.0180  -18.3330 C   0  0  0  0  0  0  0  0  0  0  0  0
  -30.1030   15.1930  -18.9150 N   0  0  0  0  0  0  0  0  0  0  0  0
  -28.9600   15.4990  -19.4160 N   0  0  0  0  0  0  0  0  0  0  0  0
  -28.0930   14.5390  -19.1830 C   0  0  0  0  0  0  0  0  0  0  0  0
  -28.7460   13.5650  -18.4820 N   0  0  0  0  0  0  0  0  0  0  0  0
  -32.4590   13.7320  -17.8290 C   0  0  0  0  0  0  0  0  0  0  0  0
  -33.4860   13.0720  -17.1870 C   0  0  0  0  0  0  0  0  0  0  0  0
  -33.2070   12.0040  -16.3450 C   0  0  0  0  0  0  0  0  0  0  0  0
  -31.8950   11.5920  -16.1520 C   0  0  0  0  0  0  0  0  0  0  0  0
  -30.8640   12.2420  -16.7950 C   0  0  0  0  0  0  0  0  0  0  0  0
  -31.1400   13.3170  -17.6410 C   0  0  0  0  0  0  0  0  0  0  0  0
  -34.2200   11.3590  -15.7100 O   0  0  0  0  0  0  0  0  0  0  0  0
  -34.8320   12.0380  -14.6120 C   0  0  0  0  0  0  0  0  0  0  0  0
  -34.1740   13.2510  -14.3890 F   0  0  0  0  0  0  0  0  0  0  0  0
  -34.7460   11.2430  -13.4640 F   0  0  0  0  0  0  0  0  0  0  0  0
  -28.2270   12.3870  -18.0270 N   0  0  0  0  0  0  0  0  0  0  0  0
  -27.4130   12.3890  -17.4740 H   0  0  0  0  0  0  0  0  0  0  0  0
  -28.6680   11.5350  -18.2520 H   0  0  0  0  0  0  0  0  0  0  0  0
  -26.4030   14.5150  -19.6780 S   0  0  0  0  0  0  0  0  0  0  0  0
  -26.4150   13.0690  -20.7680 C   0  0  0  0  0  0  0  0  0  0  0  0
  -27.6930   13.0530  -21.5660 C   0  0  0  0  0  0  0  0  0  0  0  0
  -28.5640   12.0340  -21.4230 N   0  0  0  0  0  0  0  0  0  0  0  0
  -28.3640   11.3000  -20.7980 H   0  0  0  0  0  0  0  0  0  0  0  0
  -27.9380   13.9560  -22.3370 O   0  0  0  0  0  0  0  0  0  0  0  0
  -29.8060   12.0180  -22.2000 C   0  0  0  0  0  0  0  0  0  0  0  0
  -30.7690   13.0690  -21.6440 C   0  0  0  0  0  0  0  0  0  0  0  0
  -31.9400   12.4020  -21.0690 N   0  0  0  0  0  0  0  0  0  0  0  0
  -33.1380   12.8940  -21.3390 C   0  0  0  0  0  0  0  0  0  0  0  0
  -34.3060   12.1480  -20.7100 C   0  0  0  0  0  0  0  0  0  0  0  0
  -33.3920   10.8350  -19.8070 S   0  0  0  0  0  0  0  0  0  0  0  0
  -33.2950   13.8700  -22.0410 O   0  0  0  0  0  0  0  0  0  0  0  0
  -31.7420   11.3240  -20.2870 C   0  0  0  0  0  0  0  0  0  0  0  0
  -30.6860   10.8060  -19.9800 O   0  0  0  0  0  0  0  0  0  0  0  0
  1 11  1  0  0  0  0
  2  1  2  0  0  0  0
  3  4  2  0  0  0  0
  3  2  1  0  0  0  0
  4  5  1  0  0  0  0
  5  1  1  0  0  0  0
  5 16  1  0  0  0  0
  6 11  2  0  0  0  0
  6  7  1  0  0  0  0
  7  8  2  0  0  0  0
  8  9  1  0  0  0  0
  8 12  1  0  0  0  0
 10  9  2  0  0  0  0
 11 10  1  0  0  0  0
 12 13  1  0  0  0  0
 13 14  1  0  0  0  0
 13 15  1  0  0  0  0
 16 17  1  0  0  0  0
 18 16  1  0  0  0  0
 19  4  1  0  0  0  0
 20 19  1  0  0  0  0
 21 22  1  0  0  0  0
 21 20  1  0  0  0  0
 22 23  1  0  0  0  0
 24 21  2  0  0  0  0
 25 26  1  0  0  0  0
 25 22  1  0  0  0  0
 26 27  1  0  0  0  0
 27 32  1  0  0  0  0
 28 27  1  0  0  0  0
 28 29  1  0  0  0  0
 29 30  2  0  0  0  0
 31 28  2  0  0  0  0
 32 33  2  0  0  0  0
 32 30  1  0  0  0  0
M  END
>  <MODEL>
1

>  <REMARK>
 VINA RESULT:      -4.2      0.000      0.000
  Name = ZINC09467478
                            x       y       z     vdW  Elec       q    Type
                         _______ _______ _______ _____ _____    ______ ____

>  <TORSDO>
F 10

>  <vina_score>
-4.2

$$$$
ZINC23644902
 OpenBabel01081721583D

 30 31  0  0  0  0  0  0  0  0999 V2000
  -33.3010   11.6150  -18.5860 N   0  0  0  0  0  0  0  0  0  0  0  0
  -32.1610   12.3560  -18.7960 C   0  0  0  0  0  0  0  0  0  0  0  0
  -32.0430   13.0980  -19.9530 C   0  0  0  0  0  0  0  0  0  0  0  0
  -33.0980   13.0770  -20.8850 C   0  0  0  0  0  0  0  0  0  0  0  0
  -34.1910   12.3290  -20.6340 N   0  0  0  0  0  0  0  0  0  0  0  0
  -34.9260   12.3080  -21.2890 H   0  0  0  0  0  0  0  0  0  0  0  0
  -33.0210   13.7260  -21.9130 O   0  0  0  0  0  0  0  0  0  0  0  0
  -34.2890   11.6140  -19.5000 C   0  0  0  0  0  0  0  0  0  0  0  0
  -35.2890   10.9520  -19.2960 O   0  0  0  0  0  0  0  0  0  0  0  0
  -31.1520   12.3580  -17.8630 N   0  0  0  0  0  0  0  0  0  0  0  0
  -31.3680   12.3030  -16.9040 H   0  0  0  0  0  0  0  0  0  0  0  0
  -30.2130   12.4140  -18.1530 H   0  0  0  0  0  0  0  0  0  0  0  0
  -30.8870   13.8690  -20.1970 N   0  0  0  0  0  0  0  0  0  0  0  0
  -30.7630   15.0940  -19.6450 C   0  0  0  0  0  0  0  0  0  0  0  0
  -31.6080   15.4990  -18.8730 O   0  0  0  0  0  0  0  0  0  0  0  0
  -29.5770   15.9580  -19.9850 C   0  0  0  0  0  0  0  0  0  0  0  0
  -28.3640   15.8740  -18.6440 S   0  0  0  0  0  0  0  0  0  0  0  0
  -27.3470   14.5610  -19.2330 C   0  0  0  0  0  0  0  0  0  0  0  0
  -26.9980   13.4230  -18.6470 N   0  0  0  0  0  0  0  0  0  0  0  0
  -26.2520   12.5830  -19.2200 N   0  0  0  0  0  0  0  0  0  0  0  0
  -25.7720   12.7800  -20.4320 C   0  0  0  0  0  0  0  0  0  0  0  0
  -26.4940   14.3770  -20.7960 S   0  0  0  0  0  0  0  0  0  0  0  0
  -29.8190   13.3390  -21.0480 C   0  0  0  0  0  0  0  0  0  0  0  0
  -29.6590   11.8400  -20.7900 C   0  0  0  0  0  0  0  0  0  0  0  0
  -29.5860   11.1450  -22.0360 O   0  0  0  0  0  0  0  0  0  0  0  0
  -30.8580   10.8060  -22.5890 C   0  0  0  0  0  0  0  0  0  0  0  0
  -33.4400   10.8230  -17.3620 C   0  0  0  0  0  0  0  0  0  0  0  0
  -34.2740   10.8430  -15.0070 C   0  0  0  0  0  0  0  0  0  0  0  0
  -34.2110   11.6320  -16.3160 C   0  0  0  0  0  0  0  0  0  0  0  0
  -33.5000   12.9640  -16.0750 C   0  0  0  0  0  0  0  0  0  0  0  0
  1 27  1  0  0  0  0
  2  1  1  0  0  0  0
  2 10  1  0  0  0  0
  3  2  2  0  0  0  0
  4  5  1  0  0  0  0
  4  3  1  0  0  0  0
  5  8  1  0  0  0  0
  6  5  1  0  0  0  0
  7  4  2  0  0  0  0
  8  9  2  0  0  0  0
  8  1  1  0  0  0  0
 10 11  1  0  0  0  0
 12 10  1  0  0  0  0
 13  3  1  0  0  0  0
 13 14  1  0  0  0  0
 14 15  2  0  0  0  0
 16 14  1  0  0  0  0
 16 17  1  0  0  0  0
 18 19  2  0  0  0  0
 18 17  1  0  0  0  0
 20 19  1  0  0  0  0
 21 20  2  0  0  0  0
 22 21  1  0  0  0  0
 22 18  1  0  0  0  0
 23 24  1  0  0  0  0
 23 13  1  0  0  0  0
 25 24  1  0  0  0  0
 26 25  1  0  0  0  0
 27 29  1  0  0  0  0
 29 30  1  0  0  0  0
 29 28  1  0  0  0  0
M  END
>  <MODEL>
1

>  <REMARK>
 VINA RESULT:      -4.2      0.000      0.000
  Name = ZINC23644902
                            x       y       z     vdW  Elec       q    Type
                         _______ _______ _______ _____ _____    ______ ____

>  <TORSDO>
F 10

>  <vina_score>
-4.2

$$$$
ZINC26641275
 OpenBabel01081721593D

 32 32  0  0  1  0  0  0  0  0999 V2000
  -27.5860   14.4720  -21.5380 S   0  0  0  0  0  0  0  0  0  0  0  0
  -28.6810   13.0940  -21.6150 C   0  0  0  0  0  0  0  0  0  0  0  0
  -28.3400   11.8280  -21.6920 N   0  0  0  0  0  0  0  0  0  0  0  0
  -29.3930   11.0930  -21.7300 N   0  0  0  0  0  0  0  0  0  0  0  0
  -30.4610   11.8380  -21.6800 C   0  0  0  0  0  0  0  0  0  0  0  0
  -30.0450   13.1390  -21.6050 N   0  0  0  0  0  0  0  0  0  0  0  0
  -31.8880   11.3550  -21.7010 C   0  0  0  0  0  0  0  0  0  0  0  0
  -32.5390   11.6310  -20.3430 C   0  0  0  0  0  0  0  0  0  0  0  0
  -34.0380   11.6560  -20.5010 C   0  0  0  0  0  0  0  0  0  0  0  0
  -34.7640   12.6110  -19.8890 N   0  0  0  0  0  0  0  0  0  0  0  0
  -35.7430   12.6280  -19.9920 H   0  0  0  0  0  0  0  0  0  0  0  0
  -34.3160   13.2950  -19.3400 H   0  0  0  0  0  0  0  0  0  0  0  0
  -34.5900   10.8140  -21.1780 O   0  0  0  0  0  0  0  0  0  0  0  0
  -30.8900   14.3350  -21.5300 C   0  0  0  0  0  0  0  0  0  0  0  0
  -30.9180   14.8500  -20.0900 C   0  0  0  0  0  0  0  0  0  0  0  0
  -32.3640   15.1270  -19.6760 C   0  0  0  0  0  0  0  0  0  0  0  0
  -30.1040   16.1430  -19.9960 C   0  0  0  0  0  0  0  0  0  0  0  0
  -26.5800   13.9950  -20.1110 C   0  0  2  0  0  0  0  0  0  0  0  0
  -25.8750   12.6700  -20.4040 C   0  0  0  0  0  0  0  0  0  0  0  0
  -30.4010   12.0620  -17.9250 N   0  0  0  0  0  0  0  0  0  0  0  0
  -30.6040   11.5690  -18.7530 H   0  0  0  0  0  0  0  0  0  0  0  0
  -29.3300   12.8780  -17.8730 C   0  0  0  0  0  0  0  0  0  0  0  0
  -28.5370   13.0200  -18.9540 N   0  0  0  0  0  0  0  0  0  0  0  0
  -28.7400   12.5270  -19.7820 H   0  0  0  0  0  0  0  0  0  0  0  0
  -27.4660   13.8360  -18.9020 C   0  0  0  0  0  0  0  0  0  0  0  0
  -27.2170   14.4450  -17.8830 O   0  0  0  0  0  0  0  0  0  0  0  0
  -29.0790   13.4880  -16.8520 O   0  0  0  0  0  0  0  0  0  0  0  0
  -31.2620   11.9090  -16.7500 C   0  0  0  0  0  0  0  0  0  0  0  0
  -32.3570   12.9780  -16.7780 C   0  0  0  0  0  0  0  0  0  0  0  0
  -33.5420   10.8060  -16.4260 C   0  0  0  0  0  0  0  0  0  0  0  0
  -33.7140   12.3250  -16.5070 C   0  0  0  0  0  0  0  0  0  0  0  0
  -34.2750   12.8460  -15.1820 C   0  0  0  0  0  0  0  0  0  0  0  0
  2  6  1  0  0  0  0
  2  1  1  0  0  0  0
  3  2  2  0  0  0  0
  4  3  1  0  0  0  0
  4  5  2  0  0  0  0
  5  6  1  0  0  0  0
  6 14  1  0  0  0  0
  7  5  1  0  0  0  0
  7  8  1  0  0  0  0
  9  8  1  0  0  0  0
  9 10  1  0  0  0  0
 10 12  1  0  0  0  0
 11 10  1  0  0  0  0
 13  9  2  0  0  0  0
 14 15  1  0  0  0  0
 15 17  1  0  0  0  0
 15 16  1  0  0  0  0
 18  1  1  6  0  0  0
 18 25  1  0  0  0  0
 19 18  1  0  0  0  0
 20 22  1  0  0  0  0
 20 28  1  0  0  0  0
 21 20  1  0  0  0  0
 22 27  2  0  0  0  0
 23 25  1  0  0  0  0
 23 22  1  0  0  0  0
 24 23  1  0  0  0  0
 25 26  2  0  0  0  0
 29 28  1  0  0  0  0
 29 31  1  0  0  0  0
 31 30  1  0  0  0  0
 31 32  1  0  0  0  0
M  END
>  <MODEL>
1

>  <REMARK>
 VINA RESULT:      -4.2      0.000      0.000
  Name = ZINC26641275
                            x       y       z     vdW  Elec       q    Type
                         _______ _______ _______ _____ _____    ______ ____

>  <TORSDO>
F 11

>  <vina_score>
-4.2

$$$$
ZINC03365459
 OpenBabel01081721523D

 29 30  0  0  0  0  0  0  0  0999 V2000
  -31.0290   12.3640  -17.7650 C   0  0  0  0  0  0  0  0  0  0  0  0
  -31.6170   12.0250  -16.5450 C   0  0  0  0  0  0  0  0  0  0  0  0
  -32.9510   11.6750  -16.4990 C   0  0  0  0  0  0  0  0  0  0  0  0
  -33.7070   11.6650  -17.6590 C   0  0  0  0  0  0  0  0  0  0  0  0
  -33.1290   11.9950  -18.8710 C   0  0  0  0  0  0  0  0  0  0  0  0
  -31.7960   12.3470  -18.9310 C   0  0  0  0  0  0  0  0  0  0  0  0
  -28.8360   12.3270  -18.8510 N   0  0  0  0  0  0  0  0  0  0  0  0
  -29.2280   11.7770  -19.5670 H   0  0  0  0  0  0  0  0  0  0  0  0
  -29.6010   12.7390  -17.8210 C   0  0  0  0  0  0  0  0  0  0  0  0
  -29.1160   13.4190  -16.9380 O   0  0  0  0  0  0  0  0  0  0  0  0
  -26.8310   12.6870  -20.0840 C   0  0  0  0  0  0  0  0  0  0  0  0
  -27.4820   12.6840  -18.9040 N   0  0  0  0  0  0  0  0  0  0  0  0
  -27.0050   12.9310  -18.0780 H   0  0  0  0  0  0  0  0  0  0  0  0
  -27.4180   12.3810  -21.1010 O   0  0  0  0  0  0  0  0  0  0  0  0
  -25.3740   13.0700  -20.1410 C   0  0  0  0  0  0  0  0  0  0  0  0
  -26.4800   14.9140  -21.1990 C   0  0  0  0  0  0  0  0  0  0  0  0
  -25.2370   14.3180  -20.8230 O   0  0  0  0  0  0  0  0  0  0  0  0
  -34.0990   11.9750  -20.3410 S   0  0  0  0  0  0  0  0  0  0  0  0
  -33.7300   10.8030  -21.0560 O   0  0  0  0  0  0  0  0  0  0  0  0
  -35.4400   12.2370  -19.9480 O   0  0  0  0  0  0  0  0  0  0  0  0
  -33.6170   13.2630  -21.2640 N   0  0  0  0  0  0  0  0  0  0  0  0
  -32.4080   13.9100  -20.9870 C   0  0  0  0  0  0  0  0  0  0  0  0
  -32.3900   15.0220  -20.1570 C   0  0  0  0  0  0  0  0  0  0  0  0
  -31.1950   15.6630  -19.8880 C   0  0  0  0  0  0  0  0  0  0  0  0
  -30.0170   15.1960  -20.4400 C   0  0  0  0  0  0  0  0  0  0  0  0
  -30.0260   14.0850  -21.2630 C   0  0  0  0  0  0  0  0  0  0  0  0
  -31.2200   13.4370  -21.5370 C   0  0  0  0  0  0  0  0  0  0  0  0
  -31.2310   12.3440  -22.3470 O   0  0  0  0  0  0  0  0  0  0  0  0
  -30.4120   11.2400  -21.9580 C   0  0  0  0  0  0  0  0  0  0  0  0
  1  2  2  0  0  0  0
  2  3  1  0  0  0  0
  4  3  2  0  0  0  0
  5  4  1  0  0  0  0
  6  5  2  0  0  0  0
  6  1  1  0  0  0  0
  7  9  1  0  0  0  0
  8  7  1  0  0  0  0
  9  1  1  0  0  0  0
  9 10  2  0  0  0  0
 11 12  1  0  0  0  0
 12  7  1  0  0  0  0
 12 13  1  0  0  0  0
 14 11  2  0  0  0  0
 15 11  1  0  0  0  0
 16 17  1  0  0  0  0
 17 15  1  0  0  0  0
 18 20  2  0  0  0  0
 18  5  1  0  0  0  0
 19 18  2  0  0  0  0
 21 22  1  0  0  0  0
 21 18  1  0  0  0  0
 22 23  2  0  0  0  0
 23 24  1  0  0  0  0
 25 24  2  0  0  0  0
 26 25  1  0  0  0  0
 27 26  2  0  0  0  0
 27 22  1  0  0  0  0
 28 29  1  0  0  0  0
 28 27  1  0  0  0  0
M  END
>  <MODEL>
1

>  <REMARK>
 VINA RESULT:      -4.1      0.000      0.000
  Name = ZINC03365459
                            x       y       z     vdW  Elec       q    Type
                         _______ _______ _______ _____ _____    ______ ____

>  <TORSDO>
F 8

>  <vina_score>
-4.1

$$$$
ZINC16562397
 OpenBabel01081721553D

 30 31  0  0  1  0  0  0  0  0999 V2000
  -33.9170   12.3320  -19.1860 C   0  0  1  0  0  0  0  0  0  0  0  0
  -33.8470   10.8030  -19.1700 C   0  0  0  0  0  0  0  0  0  0  0  0
  -33.0140   12.8630  -18.1440 N   0  0  0  0  0  0  0  0  0  0  0  0
  -32.4740   13.6350  -18.5350 H   0  0  0  0  0  0  0  0  0  0  0  0
  -33.8040   13.3620  -16.9990 C   0  0  0  0  0  0  0  0  0  0  0  0
  -32.0840   11.8070  -17.6940 C   0  0  0  0  0  0  0  0  0  0  0  0
  -28.0750   13.2280  -18.1070 C   0  0  0  0  0  0  0  0  0  0  0  0
  -29.0260   14.0090  -17.4680 C   0  0  0  0  0  0  0  0  0  0  0  0
  -30.3220   13.5470  -17.3350 C   0  0  0  0  0  0  0  0  0  0  0  0
  -30.6710   12.3080  -17.8400 C   0  0  0  0  0  0  0  0  0  0  0  0
  -29.7230   11.5250  -18.4720 C   0  0  0  0  0  0  0  0  0  0  0  0
  -28.4270   11.9850  -18.6130 C   0  0  0  0  0  0  0  0  0  0  0  0
  -26.8010   13.6800  -18.2400 O   0  0  0  0  0  0  0  0  0  0  0  0
  -25.7870   13.9020  -20.4230 C   0  0  0  0  0  0  0  0  0  0  0  0
  -25.9710   13.0120  -19.1930 C   0  0  0  0  0  0  0  0  0  0  0  0
  -33.4650   12.8420  -20.5310 C   0  0  0  0  0  0  0  0  0  0  0  0
  -34.2200   12.7960  -21.4820 O   0  0  0  0  0  0  0  0  0  0  0  0
  -32.1660   13.3710  -20.6840 C   0  0  0  0  0  0  0  0  0  0  0  0
  -31.1390   12.6120  -21.2730 C   0  0  0  0  0  0  0  0  0  0  0  0
  -29.9000   13.1700  -21.4040 N   0  0  0  0  0  0  0  0  0  0  0  0
  -28.8230   12.3890  -22.0220 C   0  0  0  0  0  0  0  0  0  0  0  0
  -29.6450   14.4150  -20.9750 C   0  0  0  0  0  0  0  0  0  0  0  0
  -30.5840   15.1850  -20.4010 N   0  0  0  0  0  0  0  0  0  0  0  0
  -30.2380   16.5360  -19.9540 C   0  0  0  0  0  0  0  0  0  0  0  0
  -28.5230   14.8640  -21.1100 O   0  0  0  0  0  0  0  0  0  0  0  0
  -31.8420   14.7290  -20.2290 C   0  0  0  0  0  0  0  0  0  0  0  0
  -32.6910   15.4280  -19.7080 O   0  0  0  0  0  0  0  0  0  0  0  0
  -31.3780   11.3460  -21.7090 N   0  0  0  0  0  0  0  0  0  0  0  0
  -32.2830   11.0880  -21.9970 H   0  0  0  0  0  0  0  0  0  0  0  0
  -30.6460   10.6880  -21.7370 H   0  0  0  0  0  0  0  0  0  0  0  0
  1 16  1  6  0  0  0
  1  2  1  0  0  0  0
  1  3  1  0  0  0  0
  3  6  1  0  0  0  0
  3  5  1  0  0  0  0
  4  3  1  0  0  0  0
  7  8  2  0  0  0  0
  8  9  1  0  0  0  0
 10  6  1  0  0  0  0
 10  9  2  0  0  0  0
 11 10  1  0  0  0  0
 12 11  2  0  0  0  0
 12  7  1  0  0  0  0
 13  7  1  0  0  0  0
 14 15  1  0  0  0  0
 15 13  1  0  0  0  0
 17 16  2  0  0  0  0
 18 16  1  0  0  0  0
 18 26  1  0  0  0  0
 19 18  2  0  0  0  0
 20 19  1  0  0  0  0
 20 22  1  0  0  0  0
 21 20  1  0  0  0  0
 22 23  1  0  0  0  0
 23 26  1  0  0  0  0
 23 24  1  0  0  0  0
 25 22  2  0  0  0  0
 26 27  2  0  0  0  0
 28 19  1  0  0  0  0
 29 28  1  0  0  0  0
 30 28  1  0  0  0  0
M  END
>  <MODEL>
1

>  <REMARK>
 VINA RESULT:      -4.0      0.000      0.000
  Name = ZINC16562397
                            x       y       z     vdW  Elec       q    Type
                         _______ _______ _______ _____ _____    ______ ____

>  <TORSDO>
F 8

>  <vina_score>
-4.0

$$$$
ZINC19639944
 OpenBabel01081721413D

 35 37  0  0  1  0  0  0  0  0999 V2000
  -32.2130   11.8540  -17.8510 C   0  0  1  0  0  0  0  0  0  0  0  0
  -31.3300   11.2040  -18.9490 C   0  0  0  0  0  0  0  0  0  0  0  0
  -32.2900   11.1250  -20.1530 C   0  0  2  0  0  0  0  0  0  0  0  0
  -31.7860   11.8360  -21.4060 C   0  0  1  0  0  0  0  0  0  0  0  0
  -32.9370   12.7580  -21.1050 C   0  0  0  0  0  0  0  0  0  0  0  0
  -33.3760   13.7230  -21.6950 O   0  0  0  0  0  0  0  0  0  0  0  0
  -33.3190   12.1550  -19.9600 N   0  0  0  0  0  0  0  0  0  0  0  0
  -33.0630   12.8450  -18.6810 C   0  0  0  0  0  0  0  0  0  0  0  0
  -30.4260   12.4690  -21.2580 C   0  0  0  0  0  0  0  0  0  0  0  0
  -29.3250   11.8890  -21.8610 C   0  0  0  0  0  0  0  0  0  0  0  0
  -28.0780   12.4700  -21.7270 C   0  0  0  0  0  0  0  0  0  0  0  0
  -26.8780   11.8380  -22.3830 C   0  0  0  0  0  0  0  0  0  0  0  0
  -27.9320   13.6300  -20.9880 C   0  0  0  0  0  0  0  0  0  0  0  0
  -26.5720   14.2620  -20.8400 C   0  0  0  0  0  0  0  0  0  0  0  0
  -29.0330   14.2090  -20.3860 C   0  0  0  0  0  0  0  0  0  0  0  0
  -30.2810   13.6310  -20.5240 C   0  0  0  0  0  0  0  0  0  0  0  0
  -28.8730   15.4730  -19.5810 C   0  0  2  0  0  0  0  0  0  0  0  0
  -28.3710   15.1310  -18.2030 C   0  0  0  0  0  0  0  0  0  0  0  0
  -27.2300   14.4400  -18.0570 O   0  0  0  0  0  0  0  0  0  0  0  0
  -28.9950   15.4810  -17.2290 O   0  0  0  0  0  0  0  0  0  0  0  0
  -30.1360   16.1350  -19.4780 O   0  0  0  0  0  0  0  0  0  0  0  0
  -30.0770   17.0090  -19.8970 H   0  0  0  0  0  0  0  0  0  0  0  0
  -31.9330   11.0830  -22.6120 O   0  0  0  0  0  0  0  0  0  0  0  0
  -32.0630   11.6890  -23.3580 H   0  0  0  0  0  0  0  0  0  0  0  0
  -33.0990   10.8090  -17.1700 C   0  0  0  0  0  0  0  0  0  0  0  0
  -32.8920   10.8750  -15.6550 C   0  0  0  0  0  0  0  0  0  0  0  0
  -34.2510   10.8510  -14.9530 C   0  0  0  0  0  0  0  0  0  0  0  0
  -34.7130   12.2860  -14.6880 C   0  0  0  0  0  0  0  0  0  0  0  0
  -36.2690   10.8240  -13.3920 C   0  0  0  0  0  0  0  0  0  0  0  0
  -35.8790   12.2710  -13.6980 C   0  0  0  0  0  0  0  0  0  0  0  0
  -31.3540   12.5940  -16.8230 C   0  0  0  0  0  0  0  0  0  0  0  0
  -29.9380   12.4830  -17.2170 N   0  0  0  0  0  0  0  0  0  0  0  0
  -29.5210   13.4140  -17.2530 H   0  0  0  0  0  0  0  0  0  0  0  0
  -29.4390   11.9140  -16.5320 H   0  0  0  0  0  0  0  0  0  0  0  0
  -29.8740   12.0460  -18.1350 H   0  0  0  0  0  0  0  0  0  0  0  0
  1 25  1  1  0  0  0
  1 31  1  0  0  0  0
  2  1  1  0  0  0  0
  3  7  1  1  0  0  0
  3  2  1  0  0  0  0
  4 23  1  6  0  0  0
  4  9  1  0  0  0  0
  4  5  1  0  0  0  0
  4  3  1  0  0  0  0
  5  7  1  0  0  0  0
  6  5  2  0  0  0  0
  7  8  1  0  0  0  0
  8  1  1  0  0  0  0
  9 16  2  0  0  0  0
 10 11  2  0  0  0  0
 10  9  1  0  0  0  0
 11 13  1  0  0  0  0
 12 11  1  0  0  0  0
 13 14  1  0  0  0  0
 13 15  2  0  0  0  0
 16 15  1  0  0  0  0
 17 15  1  6  0  0  0
 17 21  1  0  0  0  0
 17 18  1  0  0  0  0
 18 19  2  0  0  0  0
 18 20  1  0  0  0  0
 22 21  1  0  0  0  0
 24 23  1  0  0  0  0
 25 26  1  0  0  0  0
 26 27  1  0  0  0  0
 27 28  1  0  0  0  0
 28 30  1  0  0  0  0
 30 29  1  0  0  0  0
 32 31  1  0  0  0  0
 32 34  1  0  0  0  0
 33 32  1  0  0  0  0
 35 32  1  0  0  0  0
M  END
>  <MODEL>
1

>  <REMARK>
 VINA RESULT:      -4.0      0.000      0.000
  Name = ZINC19639944
                            x       y       z     vdW  Elec       q    Type
                         _______ _______ _______ _____ _____    ______ ____

>  <TORSDO>
F 12

>  <vina_score>
-4.0

$$$$
ZINC30924904
 OpenBabel01081721383D

 35 36  0  0  0  0  0  0  0  0999 V2000
  -30.4520   17.0720  -20.3760 C   0  0  0  0  0  0  0  0  0  0  0  0
  -28.8980   16.1540  -18.7380 C   0  0  0  0  0  0  0  0  0  0  0  0
  -29.1270   16.5720  -20.0000 N   0  0  0  0  0  0  0  0  0  0  0  0
  -28.4040   16.5410  -20.6670 H   0  0  0  0  0  0  0  0  0  0  0  0
  -29.7880   16.1920  -17.9160 O   0  0  0  0  0  0  0  0  0  0  0  0
  -27.5360   15.6400  -18.3510 C   0  0  0  0  0  0  0  0  0  0  0  0
  -27.5160   14.1790  -18.4640 N   0  0  0  0  0  0  0  0  0  0  0  0
  -26.9550   13.8320  -17.6860 H   0  0  0  0  0  0  0  0  0  0  0  0
  -26.9260   13.4620  -19.8360 S   0  0  0  0  0  0  0  0  0  0  0  0
  -26.0590   12.4200  -19.4090 O   0  0  0  0  0  0  0  0  0  0  0  0
  -26.4930   14.5120  -20.6890 O   0  0  0  0  0  0  0  0  0  0  0  0
  -31.5860   10.8040  -22.5980 C   0  0  0  0  0  0  0  0  0  0  0  0
  -30.4230   11.4680  -21.9080 C   0  0  0  0  0  0  0  0  0  0  0  0
  -30.1780   11.2190  -20.5700 C   0  0  0  0  0  0  0  0  0  0  0  0
  -29.1110   11.8280  -19.9370 C   0  0  0  0  0  0  0  0  0  0  0  0
  -28.2870   12.6850  -20.6430 C   0  0  0  0  0  0  0  0  0  0  0  0
  -28.5340   12.9380  -21.9790 C   0  0  0  0  0  0  0  0  0  0  0  0
  -29.5990   12.3260  -22.6120 C   0  0  0  0  0  0  0  0  0  0  0  0
  -31.4880   16.0160  -20.0830 C   0  0  0  0  0  0  0  0  0  0  0  0
  -31.1240   14.7220  -19.9920 N   0  0  0  0  0  0  0  0  0  0  0  0
  -30.1940   14.4570  -20.1820 H   0  0  0  0  0  0  0  0  0  0  0  0
  -32.6490   16.3320  -19.9310 O   0  0  0  0  0  0  0  0  0  0  0  0
  -32.0650   13.7550  -19.6250 C   0  0  0  0  0  0  0  0  0  0  0  0
  -32.8880   13.1830  -20.5890 C   0  0  0  0  0  0  0  0  0  0  0  0
  -33.8140   12.2240  -20.2270 C   0  0  0  0  0  0  0  0  0  0  0  0
  -33.9320   11.8380  -18.9050 C   0  0  0  0  0  0  0  0  0  0  0  0
  -33.1170   12.4090  -17.9380 C   0  0  0  0  0  0  0  0  0  0  0  0
  -32.1830   13.3680  -18.2980 C   0  0  0  0  0  0  0  0  0  0  0  0
  -33.2360   12.0290  -16.6390 O   0  0  0  0  0  0  0  0  0  0  0  0
  -33.5990   13.0400  -15.6960 C   0  0  0  0  0  0  0  0  0  0  0  0
  -34.6190   12.4870  -14.7350 C   0  0  0  0  0  0  0  0  0  0  0  0
  -34.8700   13.1300  -13.5760 N   0  0  0  0  0  0  0  0  0  0  0  0
  -35.5360   12.7690  -12.9480 H   0  0  0  0  0  0  0  0  0  0  0  0
  -34.3860   13.9590  -13.3590 H   0  0  0  0  0  0  0  0  0  0  0  0
  -35.2140   11.4660  -15.0030 O   0  0  0  0  0  0  0  0  0  0  0  0
  1 19  1  0  0  0  0
  1  3  1  0  0  0  0
  2  6  1  0  0  0  0
  2  5  2  0  0  0  0
  3  2  1  0  0  0  0
  4  3  1  0  0  0  0
  7  6  1  0  0  0  0
  7  8  1  0  0  0  0
  9 10  2  0  0  0  0
  9  7  1  0  0  0  0
 11  9  2  0  0  0  0
 12 13  1  0  0  0  0
 13 14  2  0  0  0  0
 14 15  1  0  0  0  0
 16 15  2  0  0  0  0
 16  9  1  0  0  0  0
 17 16  1  0  0  0  0
 18 17  2  0  0  0  0
 18 13  1  0  0  0  0
 19 20  1  0  0  0  0
 19 22  2  0  0  0  0
 20 23  1  0  0  0  0
 21 20  1  0  0  0  0
 23 28  2  0  0  0  0
 24 25  2  0  0  0  0
 24 23  1  0  0  0  0
 25 26  1  0  0  0  0
 26 27  2  0  0  0  0
 27 29  1  0  0  0  0
 28 27  1  0  0  0  0
 29 30  1  0  0  0  0
 30 31  1  0  0  0  0
 31 32  1  0  0  0  0
 32 34  1  0  0  0  0
 32 33  1  0  0  0  0
 35 31  2  0  0  0  0
M  END
>  <MODEL>
1

>  <REMARK>
 VINA RESULT:      -3.9      0.000      0.000
  Name = ZINC30924904
                            x       y       z     vdW  Elec       q    Type
                         _______ _______ _______ _____ _____    ______ ____

>  <TORSDO>
F 10

>  <vina_score>
-3.9

$$$$
ZINC31172347
 OpenBabel01081721403D

 34 36  0  0  0  0  0  0  0  0999 V2000
  -27.8260   15.1690  -20.2150 C   0  0  0  0  0  0  0  0  0  0  0  0
  -25.4780   14.9500  -20.7650 C   0  0  0  0  0  0  0  0  0  0  0  0
  -26.6890   14.2460  -20.3210 N   0  0  0  0  0  0  0  0  0  0  0  0
  -26.5070   13.8640  -19.3940 H   0  0  0  0  0  0  0  0  0  0  0  0
  -27.0030   13.1250  -21.2180 C   0  0  0  0  0  0  0  0  0  0  0  0
  -28.4190   12.6690  -20.9760 C   0  0  0  0  0  0  0  0  0  0  0  0
  -29.4010   13.0500  -21.8150 N   0  0  0  0  0  0  0  0  0  0  0  0
  -29.2080   13.6760  -22.5490 H   0  0  0  0  0  0  0  0  0  0  0  0
  -28.6730   11.9600  -20.0250 O   0  0  0  0  0  0  0  0  0  0  0  0
  -30.7010   12.5540  -21.6430 C   0  0  0  0  0  0  0  0  0  0  0  0
  -31.6570   13.3240  -20.9940 C   0  0  0  0  0  0  0  0  0  0  0  0
  -32.9390   12.8370  -20.8290 C   0  0  0  0  0  0  0  0  0  0  0  0
  -33.2680   11.5750  -21.3030 C   0  0  0  0  0  0  0  0  0  0  0  0
  -32.3130   10.8040  -21.9470 C   0  0  0  0  0  0  0  0  0  0  0  0
  -31.0320   11.2920  -22.1170 C   0  0  0  0  0  0  0  0  0  0  0  0
  -34.5290   11.0940  -21.1360 O   0  0  0  0  0  0  0  0  0  0  0  0
  -34.9410   10.8040  -19.7990 C   0  0  0  0  0  0  0  0  0  0  0  0
  -28.1540   15.4050  -18.7390 C   0  0  0  0  0  0  0  0  0  0  0  0
  -29.4290   14.6840  -18.3870 C   0  0  0  0  0  0  0  0  0  0  0  0
  -29.4050   13.6620  -17.5090 N   0  0  0  0  0  0  0  0  0  0  0  0
  -28.5690   13.4340  -17.0420 H   0  0  0  0  0  0  0  0  0  0  0  0
  -30.4780   15.0230  -18.8920 O   0  0  0  0  0  0  0  0  0  0  0  0
  -30.5700   12.9230  -17.2610 C   0  0  0  0  0  0  0  0  0  0  0  0
  -30.8060   11.7440  -17.9590 C   0  0  0  0  0  0  0  0  0  0  0  0
  -31.9480   11.0090  -17.7150 C   0  0  0  0  0  0  0  0  0  0  0  0
  -32.8700   11.4530  -16.7780 C   0  0  0  0  0  0  0  0  0  0  0  0
  -32.6380   12.6400  -16.0790 C   0  0  0  0  0  0  0  0  0  0  0  0
  -33.7220   12.8210  -15.2220 N   0  0  0  0  0  0  0  0  0  0  0  0
  -33.8430   13.5730  -14.5990 H   0  0  0  0  0  0  0  0  0  0  0  0
  -34.5730   11.7930  -15.3920 C   0  0  0  0  0  0  0  0  0  0  0  0
  -35.6220   11.6460  -14.7920 O   0  0  0  0  0  0  0  0  0  0  0  0
  -34.0880   10.9500  -16.3230 N   0  0  0  0  0  0  0  0  0  0  0  0
  -34.5200   10.1200  -16.6310 H   0  0  0  0  0  0  0  0  0  0  0  0
  -31.4870   13.3730  -16.3220 C   0  0  0  0  0  0  0  0  0  0  0  0
  1 18  1  0  0  0  0
  2  3  1  0  0  0  0
  3  1  1  0  0  0  0
  3  4  1  0  0  0  0
  5  6  1  0  0  0  0
  5  3  1  0  0  0  0
  6  9  2  0  0  0  0
  7 10  1  0  0  0  0
  7  6  1  0  0  0  0
  8  7  1  0  0  0  0
 10 11  2  0  0  0  0
 11 12  1  0  0  0  0
 13 16  1  0  0  0  0
 13 12  2  0  0  0  0
 14 13  1  0  0  0  0
 15 14  2  0  0  0  0
 15 10  1  0  0  0  0
 16 17  1  0  0  0  0
 18 19  1  0  0  0  0
 19 20  1  0  0  0  0
 20 23  1  0  0  0  0
 20 21  1  0  0  0  0
 22 19  2  0  0  0  0
 23 34  2  0  0  0  0
 24 25  2  0  0  0  0
 24 23  1  0  0  0  0
 25 26  1  0  0  0  0
 26 32  1  0  0  0  0
 26 27  2  0  0  0  0
 27 28  1  0  0  0  0
 28 29  1  0  0  0  0
 30 28  1  0  0  0  0
 30 31  2  0  0  0  0
 32 30  1  0  0  0  0
 33 32  1  0  0  0  0
 34 27  1  0  0  0  0
M  END
>  <MODEL>
1

>  <REMARK>
 VINA RESULT:      -3.8      0.000      0.000
  Name = ZINC31172347
                            x       y       z     vdW  Elec       q    Type
                         _______ _______ _______ _____ _____    ______ ____

>  <TORSDO>
F 8

>  <vina_score>
-3.8

$$$$
ZINC28314515
 OpenBabel01081721493D

 34 35  0  0  0  0  0  0  0  0999 V2000
  -30.9260   11.3120  -19.0870 C   0  0  0  0  0  0  0  0  0  0  0  0
  -30.0500   11.2420  -20.1610 C   0  0  0  0  0  0  0  0  0  0  0  0
  -30.5410   11.1340  -21.4480 C   0  0  0  0  0  0  0  0  0  0  0  0
  -31.9060   11.1020  -21.6720 C   0  0  0  0  0  0  0  0  0  0  0  0
  -32.7860   11.1660  -20.6040 C   0  0  0  0  0  0  0  0  0  0  0  0
  -32.2980   11.2730  -19.3070 C   0  0  0  0  0  0  0  0  0  0  0  0
  -29.8940   12.6810  -17.4390 C   0  0  0  0  0  0  0  0  0  0  0  0
  -30.4410   11.4180  -17.8200 O   0  0  0  0  0  0  0  0  0  0  0  0
  -34.1280   11.1280  -20.8240 O   0  0  0  0  0  0  0  0  0  0  0  0
  -34.8220   12.3770  -20.8170 C   0  0  0  0  0  0  0  0  0  0  0  0
  -29.5880   11.0590  -22.6120 C   0  0  0  0  0  0  0  0  0  0  0  0
  -28.2720   11.5690  -22.2020 N   0  0  0  0  0  0  0  0  0  0  0  0
  -28.2060   11.5180  -21.1850 H   0  0  0  0  0  0  0  0  0  0  0  0
  -27.5440   11.0010  -22.6370 H   0  0  0  0  0  0  0  0  0  0  0  0
  -28.0990   12.9690  -22.6130 C   0  0  0  0  0  0  0  0  0  0  0  0
  -28.2720   13.8680  -21.4150 C   0  0  0  0  0  0  0  0  0  0  0  0
  -29.5130   14.4070  -21.1300 C   0  0  0  0  0  0  0  0  0  0  0  0
  -29.6760   15.2290  -20.0270 C   0  0  0  0  0  0  0  0  0  0  0  0
  -28.5860   15.5210  -19.2110 C   0  0  0  0  0  0  0  0  0  0  0  0
  -27.3440   14.9800  -19.4990 C   0  0  0  0  0  0  0  0  0  0  0  0
  -27.1870   14.1530  -20.6010 C   0  0  0  0  0  0  0  0  0  0  0  0
  -30.8980   15.7550  -19.7440 O   0  0  0  0  0  0  0  0  0  0  0  0
  -32.0400   14.9990  -20.1530 C   0  0  0  0  0  0  0  0  0  0  0  0
  -28.7430   16.3320  -18.1320 O   0  0  0  0  0  0  0  0  0  0  0  0
  -28.4140   15.7820  -16.8540 C   0  0  0  0  0  0  0  0  0  0  0  0
  -25.9670   13.6220  -20.8830 O   0  0  0  0  0  0  0  0  0  0  0  0
  -25.4560   12.6490  -19.9700 C   0  0  0  0  0  0  0  0  0  0  0  0
  -33.1600   11.3410  -18.2560 O   0  0  0  0  0  0  0  0  0  0  0  0
  -33.3740   12.6290  -17.6750 C   0  0  0  0  0  0  0  0  0  0  0  0
  -33.7730   12.4690  -16.2310 C   0  0  0  0  0  0  0  0  0  0  0  0
  -34.0760   11.2480  -15.7470 N   0  0  0  0  0  0  0  0  0  0  0  0
  -34.3370   11.1440  -14.8030 H   0  0  0  0  0  0  0  0  0  0  0  0
  -34.0360   10.4610  -16.3370 H   0  0  0  0  0  0  0  0  0  0  0  0
  -33.8230   13.4390  -15.5050 O   0  0  0  0  0  0  0  0  0  0  0  0
  1  8  1  0  0  0  0
  2  1  2  0  0  0  0
  3  2  1  0  0  0  0
  4  3  2  0  0  0  0
  4  5  1  0  0  0  0
  5  6  2  0  0  0  0
  6  1  1  0  0  0  0
  6 28  1  0  0  0  0
  8  7  1  0  0  0  0
  9 10  1  0  0  0  0
  9  5  1  0  0  0  0
 11 12  1  0  0  0  0
 11  3  1  0  0  0  0
 12 13  1  0  0  0  0
 14 12  1  0  0  0  0
 15 12  1  0  0  0  0
 15 16  1  0  0  0  0
 16 17  2  0  0  0  0
 16 21  1  0  0  0  0
 17 18  1  0  0  0  0
 18 22  1  0  0  0  0
 18 19  2  0  0  0  0
 19 24  1  0  0  0  0
 20 19  1  0  0  0  0
 21 20  2  0  0  0  0
 23 22  1  0  0  0  0
 24 25  1  0  0  0  0
 26 21  1  0  0  0  0
 26 27  1  0  0  0  0
 28 29  1  0  0  0  0
 29 30  1  0  0  0  0
 30 31  1  0  0  0  0
 30 34  2  0  0  0  0
 31 32  1  0  0  0  0
 33 31  1  0  0  0  0
M  END
>  <MODEL>
1

>  <REMARK>
 VINA RESULT:      -3.7      0.000      0.000
  Name = ZINC28314515
                            x       y       z     vdW  Elec       q    Type
                         _______ _______ _______ _____ _____    ______ ____

>  <TORSDO>
F 12

>  <vina_score>
-3.7

$$$$
ZINC03215161
 OpenBabel01081721423D

 26 27  0  0  0  0  0  0  0  0999 V2000
  -29.5480   13.4890  -17.3480 C   0  0  0  0  0  0  0  0  0  0  0  0
  -28.5590   13.3270  -18.2640 C   0  0  0  0  0  0  0  0  0  0  0  0
  -28.6460   12.9110  -19.6780 C   0  0  0  0  0  0  0  0  0  0  0  0
  -27.5060   12.8360  -20.3450 N   0  0  0  0  0  0  0  0  0  0  0  0
  -26.3270   13.1250  -19.7580 C   0  0  0  0  0  0  0  0  0  0  0  0
  -25.2140   13.0990  -20.2480 O   0  0  0  0  0  0  0  0  0  0  0  0
  -29.7130   12.6520  -20.2030 O   0  0  0  0  0  0  0  0  0  0  0  0
  -26.7960   13.5650  -18.0920 S   0  0  0  0  0  0  0  0  0  0  0  0
  -32.8480   13.1570  -19.1000 C   0  0  0  0  0  0  0  0  0  0  0  0
  -31.5570   13.5540  -18.8090 C   0  0  0  0  0  0  0  0  0  0  0  0
  -30.9180   13.0670  -17.6630 C   0  0  0  0  0  0  0  0  0  0  0  0
  -31.5870   12.1720  -16.8200 C   0  0  0  0  0  0  0  0  0  0  0  0
  -32.8780   11.7770  -17.1200 C   0  0  0  0  0  0  0  0  0  0  0  0
  -33.5100   12.2660  -18.2590 C   0  0  0  0  0  0  0  0  0  0  0  0
  -32.7180   13.6420  -21.4250 C   0  0  0  0  0  0  0  0  0  0  0  0
  -33.4710   13.6340  -20.2110 O   0  0  0  0  0  0  0  0  0  0  0  0
  -33.5290   10.9070  -16.3020 O   0  0  0  0  0  0  0  0  0  0  0  0
  -34.1760   11.4580  -15.1530 C   0  0  0  0  0  0  0  0  0  0  0  0
  -34.7790   11.8760  -18.5510 O   0  0  0  0  0  0  0  0  0  0  0  0
  -34.9300   10.8280  -19.5120 C   0  0  0  0  0  0  0  0  0  0  0  0
  -27.5260   12.4300  -21.7530 C   0  0  0  0  0  0  0  0  0  0  0  0
  -28.2060   13.5170  -22.5870 C   0  0  0  0  0  0  0  0  0  0  0  0
  -27.6420   14.8270  -22.2180 N   0  0  0  0  0  0  0  0  0  0  0  0
  -27.7460   15.4750  -22.9980 H   0  0  0  0  0  0  0  0  0  0  0  0
  -28.1370   15.1930  -21.4050 H   0  0  0  0  0  0  0  0  0  0  0  0
  -26.6530   14.7210  -21.9930 H   0  0  0  0  0  0  0  0  0  0  0  0
  2  8  1  0  0  0  0
  2  1  2  0  0  0  0
  3  2  1  0  0  0  0
  4  5  1  0  0  0  0
  4  3  1  0  0  0  0
  5  8  1  0  0  0  0
  6  5  2  0  0  0  0
  7  3  2  0  0  0  0
  9 10  2  0  0  0  0
  9 14  1  0  0  0  0
 10 11  1  0  0  0  0
 11  1  1  0  0  0  0
 11 12  2  0  0  0  0
 13 12  1  0  0  0  0
 13 17  1  0  0  0  0
 14 13  2  0  0  0  0
 15 16  1  0  0  0  0
 16  9  1  0  0  0  0
 17 18  1  0  0  0  0
 19 14  1  0  0  0  0
 20 19  1  0  0  0  0
 21  4  1  0  0  0  0
 22 23  1  0  0  0  0
 22 21  1  0  0  0  0
 23 26  1  0  0  0  0
 23 25  1  0  0  0  0
 24 23  1  0  0  0  0
M  END
>  <MODEL>
1

>  <REMARK>
 VINA RESULT:      -3.7      0.000      0.000
  Name = ZINC03215161
                            x       y       z     vdW  Elec       q    Type
                         _______ _______ _______ _____ _____    ______ ____

>  <TORSDO>
F 7

>  <vina_score>
-3.7

$$$$
ZINC15084765
 OpenBabel01081721503D

 33 35  0  0  1  0  0  0  0  0999 V2000
  -30.8680   13.8070  -18.2310 C   0  0  0  0  0  0  0  0  0  0  0  0
  -31.4610   12.5420  -18.3110 C   0  0  0  0  0  0  0  0  0  0  0  0
  -32.2770   12.2250  -19.4030 C   0  0  0  0  0  0  0  0  0  0  0  0
  -32.4940   13.1650  -20.4000 C   0  0  0  0  0  0  0  0  0  0  0  0
  -31.9020   14.4210  -20.3140 C   0  0  0  0  0  0  0  0  0  0  0  0
  -32.2690   15.1530  -21.4070 O   0  0  0  0  0  0  0  0  0  0  0  0
  -33.4180   14.4790  -21.9540 C   0  0  0  0  0  0  0  0  0  0  0  0
  -33.2340   13.1090  -21.5480 O   0  0  0  0  0  0  0  0  0  0  0  0
  -31.0940   14.7390  -19.2250 C   0  0  0  0  0  0  0  0  0  0  0  0
  -31.2270   11.5480  -17.2480 C   0  0  0  0  0  0  0  0  0  0  0  0
  -31.9120   11.6030  -16.1480 N   0  0  0  0  0  0  0  0  0  0  0  0
  -32.8770   12.6040  -15.9720 N   0  0  0  0  0  0  0  0  0  0  0  0
  -32.6440   13.5460  -16.1360 H   0  0  0  0  0  0  0  0  0  0  0  0
  -34.1230   12.2760  -15.5770 C   0  0  0  0  0  0  0  0  0  0  0  0
  -34.4160   11.0010  -15.2550 N   0  0  0  0  0  0  0  0  0  0  0  0
  -35.3260   10.7610  -14.9670 H   0  0  0  0  0  0  0  0  0  0  0  0
  -33.7180   10.3080  -15.3070 H   0  0  0  0  0  0  0  0  0  0  0  0
  -34.9860   13.1320  -15.5130 O   0  0  0  0  0  0  0  0  0  0  0  0
  -32.8560   10.9980  -19.4860 O   0  0  0  0  0  0  0  0  0  0  0  0
  -34.2660   10.9300  -19.2670 C   0  0  0  0  0  0  0  0  0  0  0  0
  -30.5200   15.9700  -19.1420 O   0  0  0  0  0  0  0  0  0  0  0  0
  -29.9550   16.5040  -20.3410 C   0  0  0  0  0  0  0  0  0  0  0  0
  -29.9890   14.1540  -17.0570 C   0  0  0  0  0  0  0  0  0  0  0  0
  -27.1740   13.3640  -19.2740 C   0  0  0  0  0  0  0  0  0  0  0  0
  -27.4980   12.2280  -18.7540 N   0  0  0  0  0  0  0  0  0  0  0  0
  -28.5000   12.3420  -17.7620 O   0  0  0  0  0  0  0  0  0  0  0  0
  -28.5500   13.7230  -17.3520 C   0  0  1  0  0  0  0  0  0  0  0  0
  -28.0020   14.4450  -18.6060 C   0  0  0  0  0  0  0  0  0  0  0  0
  -26.1690   13.5750  -20.3320 C   0  0  0  0  0  0  0  0  0  0  0  0
  -25.2130   12.8310  -20.4200 O   0  0  0  0  0  0  0  0  0  0  0  0
  -26.3120   14.5940  -21.2020 O   0  0  0  0  0  0  0  0  0  0  0  0
  -27.9110   13.1040  -22.2750 C   0  0  0  0  0  0  0  0  0  0  0  0
  -27.4690   14.5550  -22.0790 C   0  0  0  0  0  0  0  0  0  0  0  0
  1 23  1  0  0  0  0
  2  1  1  0  0  0  0
  2 10  1  0  0  0  0
  3  2  2  0  0  0  0
  4  5  2  0  0  0  0
  4  3  1  0  0  0  0
  5  9  1  0  0  0  0
  6  5  1  0  0  0  0
  7  8  1  0  0  0  0
  7  6  1  0  0  0  0
  8  4  1  0  0  0  0
  9 21  1  0  0  0  0
  9  1  2  0  0  0  0
 10 11  2  0  0  0  0
 11 12  1  0  0  0  0
 12 14  1  0  0  0  0
 13 12  1  0  0  0  0
 14 18  2  0  0  0  0
 14 15  1  0  0  0  0
 15 16  1  0  0  0  0
 17 15  1  0  0  0  0
 19  3  1  0  0  0  0
 19 20  1  0  0  0  0
 22 21  1  0  0  0  0
 24 25  2  0  0  0  0
 24 28  1  0  0  0  0
 25 26  1  0  0  0  0
 26 27  1  0  0  0  0
 27 23  1  6  0  0  0
 28 27  1  0  0  0  0
 29 24  1  0  0  0  0
 30 29  2  0  0  0  0
 31 29  1  0  0  0  0
 32 33  1  0  0  0  0
 33 31  1  0  0  0  0
M  END
>  <MODEL>
1

>  <REMARK>
 VINA RESULT:      -3.6      0.000      0.000
  Name = ZINC15084765
                            x       y       z     vdW  Elec       q    Type
                         _______ _______ _______ _____ _____    ______ ____

>  <TORSDO>
F 9

>  <vina_score>
-3.6

$$$$
ZINC24869044
 OpenBabel01081721423D

 29 30  0  0  1  0  0  0  0  0999 V2000
  -29.5120   13.4180  -21.3630 C   0  0  0  0  0  0  0  0  0  0  0  0
  -30.7270   12.8570  -21.1990 N   0  0  0  0  0  0  0  0  0  0  0  0
  -30.9220   11.4120  -21.3840 C   0  0  0  0  0  0  0  0  0  0  0  0
  -31.6440   10.8590  -20.1450 C   0  0  0  0  0  0  0  0  0  0  0  0
  -32.8740   11.6270  -19.9180 N   0  0  0  0  0  0  0  0  0  0  0  0
  -33.4200   11.6010  -20.7790 H   0  0  0  0  0  0  0  0  0  0  0  0
  -32.5770   13.0350  -19.6210 C   0  0  0  0  0  0  0  0  0  0  0  0
  -31.8930   13.6750  -20.8330 C   0  0  0  0  0  0  0  0  0  0  0  0
  -29.3700   14.6120  -21.2110 O   0  0  0  0  0  0  0  0  0  0  0  0
  -28.3310   12.5600  -21.7380 C   0  0  0  0  0  0  0  0  0  0  0  0
  -27.0510   13.1840  -21.1800 C   0  0  0  0  0  0  0  0  0  0  0  0
  -26.8920   12.8030  -19.8120 O   0  0  0  0  0  0  0  0  0  0  0  0
  -28.8400   15.1040  -16.9890 C   0  0  0  0  0  0  0  0  0  0  0  0
  -27.8070   15.6460  -17.7310 C   0  0  0  0  0  0  0  0  0  0  0  0
  -27.1500   14.8750  -18.6730 C   0  0  0  0  0  0  0  0  0  0  0  0
  -27.5340   13.5610  -18.8820 C   0  0  0  0  0  0  0  0  0  0  0  0
  -28.5730   13.0150  -18.1340 C   0  0  0  0  0  0  0  0  0  0  0  0
  -29.2240   13.7910  -17.1890 C   0  0  0  0  0  0  0  0  0  0  0  0
  -28.9500   11.7230  -18.3320 O   0  0  0  0  0  0  0  0  0  0  0  0
  -29.5220   11.3040  -17.7190 H   0  0  0  0  0  0  0  0  0  0  0  0
  -33.6830   11.0230  -18.8490 C   0  0  0  0  0  0  0  0  0  0  0  0
  -32.8090   10.8030  -17.6120 C   0  0  1  0  0  0  0  0  0  0  0  0
  -31.7740   11.7860  -17.5790 O   0  0  0  0  0  0  0  0  0  0  0  0
  -31.6980   12.2060  -18.4500 H   0  0  0  0  0  0  0  0  0  0  0  0
  -33.6710   10.9250  -16.3530 C   0  0  0  0  0  0  0  0  0  0  0  0
  -33.9380   12.6790  -15.9720 S   0  0  0  0  0  0  0  0  0  0  0  0
  -34.5710   13.2600  -17.2280 O   0  0  0  0  0  0  0  0  0  0  0  0
  -32.6910   13.3490  -15.8500 O   0  0  0  0  0  0  0  0  0  0  0  0
  -34.9350   12.8140  -14.9680 O   0  0  0  0  0  0  0  0  0  0  0  0
  1  9  2  0  0  0  0
  1  2  1  0  0  0  0
  2  8  1  0  0  0  0
  3  2  1  0  0  0  0
  3  4  1  0  0  0  0
  4  5  1  0  0  0  0
  5  7  1  0  0  0  0
  5 21  1  0  0  0  0
  6  5  1  0  0  0  0
  8  7  1  0  0  0  0
 10  1  1  0  0  0  0
 10 11  1  0  0  0  0
 11 12  1  0  0  0  0
 12 16  1  0  0  0  0
 14 13  2  0  0  0  0
 15 14  1  0  0  0  0
 16 15  2  0  0  0  0
 16 17  1  0  0  0  0
 17 18  2  0  0  0  0
 18 13  1  0  0  0  0
 19 17  1  0  0  0  0
 19 20  1  0  0  0  0
 22 21  1  6  0  0  0
 22 23  1  0  0  0  0
 22 25  1  0  0  0  0
 24 23  1  0  0  0  0
 25 26  1  0  0  0  0
 26 28  2  0  0  0  0
 26 29  1  0  0  0  0
 27 26  2  0  0  0  0
M  END
>  <MODEL>
1

>  <REMARK>
 VINA RESULT:      -3.6      0.000      0.000
  Name = ZINC24869044
                            x       y       z     vdW  Elec       q    Type
                         _______ _______ _______ _____ _____    ______ ____

>  <TORSDO>
F 10

>  <vina_score>
-3.6

$$$$
ZINC05887406
 OpenBabel01081721563D

 33 33  0  0  1  0  0  0  0  0999 V2000
  -33.0170   11.8290  -17.5120 C   0  0  2  0  0  0  0  0  0  0  0  0
  -31.6990   12.5510  -17.3890 C   0  0  0  0  0  0  0  0  0  0  0  0
  -31.3740   13.5130  -18.2760 N   0  0  0  0  0  0  0  0  0  0  0  0
  -32.0260   13.7950  -18.9580 H   0  0  0  0  0  0  0  0  0  0  0  0
  -30.9320   12.2660  -16.4940 O   0  0  0  0  0  0  0  0  0  0  0  0
  -30.1080   14.1110  -18.2260 C   0  0  0  0  0  0  0  0  0  0  0  0
  -29.7330   14.5100  -17.0400 C   0  0  0  0  0  0  0  0  0  0  0  0
  -28.4400   15.1450  -16.6840 C   0  0  0  0  0  0  0  0  0  0  0  0
  -27.8980   16.0640  -17.7490 C   0  0  0  0  0  0  0  0  0  0  0  0
  -27.2970   15.3320  -18.9210 C   0  0  0  0  0  0  0  0  0  0  0  0
  -28.2720   14.7490  -19.8070 N   0  0  0  0  0  0  0  0  0  0  0  0
  -29.4200   14.1890  -19.4930 C   0  0  0  0  0  0  0  0  0  0  0  0
  -29.9960   13.6510  -20.4190 O   0  0  0  0  0  0  0  0  0  0  0  0
  -27.9450   14.7840  -21.2340 C   0  0  0  0  0  0  0  0  0  0  0  0
  -27.1440   13.5330  -21.6050 C   0  0  0  0  0  0  0  0  0  0  0  0
  -25.8840   13.5580  -20.9320 O   0  0  0  0  0  0  0  0  0  0  0  0
  -25.3920   12.2670  -20.5690 C   0  0  0  0  0  0  0  0  0  0  0  0
  -33.3290   11.1120  -16.1970 C   0  0  0  0  0  0  0  0  0  0  0  0
  -35.0760   10.8370  -14.4320 C   0  0  0  0  0  0  0  0  0  0  0  0
  -34.5650   11.7430  -15.5530 C   0  0  0  0  0  0  0  0  0  0  0  0
  -34.1960   13.1120  -14.9750 C   0  0  0  0  0  0  0  0  0  0  0  0
  -32.9330   10.8040  -18.6440 C   0  0  2  0  0  0  0  0  0  0  0  0
  -31.5870   10.9050  -19.3140 C   0  0  0  0  0  0  0  0  0  0  0  0
  -31.5100   11.1050  -20.6450 N   0  0  0  0  0  0  0  0  0  0  0  0
  -32.3300   11.2590  -21.1670 H   0  0  0  0  0  0  0  0  0  0  0  0
  -30.5730   10.8050  -18.6570 O   0  0  0  0  0  0  0  0  0  0  0  0
  -30.2500   11.0940  -21.2910 O   0  0  0  0  0  0  0  0  0  0  0  0
  -30.3630   10.8190  -22.2150 H   0  0  0  0  0  0  0  0  0  0  0  0
  -34.0330   11.0860  -19.6690 C   0  0  0  0  0  0  0  0  0  0  0  0
  -34.2190   12.5980  -19.8170 C   0  0  0  0  0  0  0  0  0  0  0  0
  -33.5210   13.0750  -21.0920 C   0  0  0  0  0  0  0  0  0  0  0  0
  -32.7760   14.2620  -20.8110 O   0  0  0  0  0  0  0  0  0  0  0  0
  -32.9170   14.9080  -21.5200 H   0  0  0  0  0  0  0  0  0  0  0  0
  1  2  1  1  0  0  0
  1 18  1  0  0  0  0
  2  5  2  0  0  0  0
  3  6  1  0  0  0  0
  3  2  1  0  0  0  0
  4  3  1  0  0  0  0
  6  7  2  0  0  0  0
  7  8  1  0  0  0  0
  9  8  1  0  0  0  0
 10  9  1  0  0  0  0
 11 12  1  0  0  0  0
 11 10  1  0  0  0  0
 12  6  1  0  0  0  0
 13 12  2  0  0  0  0
 14 11  1  0  0  0  0
 15 14  1  0  0  0  0
 15 16  1  0  0  0  0
 16 17  1  0  0  0  0
 18 20  1  0  0  0  0
 20 21  1  0  0  0  0
 20 19  1  0  0  0  0
 22 29  1  6  0  0  0
 22  1  1  0  0  0  0
 23 26  2  0  0  0  0
 23 22  1  0  0  0  0
 24 23  1  0  0  0  0
 25 24  1  0  0  0  0
 27 24  1  0  0  0  0
 28 27  1  0  0  0  0
 30 29  1  0  0  0  0
 31 32  1  0  0  0  0
 31 30  1  0  0  0  0
 33 32  1  0  0  0  0
M  END
>  <MODEL>
1

>  <REMARK>
 VINA RESULT:      -3.4      0.000      0.000
  Name = ZINC05887406
                            x       y       z     vdW  Elec       q    Type
                         _______ _______ _______ _____ _____    ______ ____

>  <TORSDO>
F 14

>  <vina_score>
-3.4

$$$$
ZINC21195156
 OpenBabel01081721473D

 34 36  0  0  0  0  0  0  0  0999 V2000
  -27.9320   14.3550  -18.2830 C   0  0  0  0  0  0  0  0  0  0  0  0
  -26.6670   13.8980  -17.8870 C   0  0  0  0  0  0  0  0  0  0  0  0
  -25.8940   13.1880  -18.7600 C   0  0  0  0  0  0  0  0  0  0  0  0
  -26.3490   12.9200  -20.0490 C   0  0  0  0  0  0  0  0  0  0  0  0
  -25.5690   12.2170  -20.9070 O   0  0  0  0  0  0  0  0  0  0  0  0
  -27.5950   13.3700  -20.4590 C   0  0  0  0  0  0  0  0  0  0  0  0
  -28.3940   14.0870  -19.5840 C   0  0  0  0  0  0  0  0  0  0  0  0
  -28.7660   15.1140  -17.3480 C   0  0  0  0  0  0  0  0  0  0  0  0
  -28.2700   15.9800  -16.6580 O   0  0  0  0  0  0  0  0  0  0  0  0
  -30.2400   14.8180  -17.2440 C   0  0  0  0  0  0  0  0  0  0  0  0
  -30.4890   13.4790  -17.6780 O   0  0  0  0  0  0  0  0  0  0  0  0
  -33.6230   11.4790  -15.8850 C   0  0  0  0  0  0  0  0  0  0  0  0
  -33.7550   12.8190  -16.2190 C   0  0  0  0  0  0  0  0  0  0  0  0
  -32.7060   13.4880  -16.8180 C   0  0  0  0  0  0  0  0  0  0  0  0
  -31.5210   12.8200  -17.0880 C   0  0  0  0  0  0  0  0  0  0  0  0
  -31.3900   11.4800  -16.7550 C   0  0  0  0  0  0  0  0  0  0  0  0
  -32.4380   10.8110  -16.1550 C   0  0  0  0  0  0  0  0  0  0  0  0
  -35.2360   11.4270  -14.1390 C   0  0  0  0  0  0  0  0  0  0  0  0
  -34.6560   10.8210  -15.2950 O   0  0  0  0  0  0  0  0  0  0  0  0
  -29.6140   14.5280  -19.9800 O   0  0  0  0  0  0  0  0  0  0  0  0
  -29.8040   14.6220  -20.8930 H   0  0  0  0  0  0  0  0  0  0  0  0
  -28.0810   13.0760  -21.8560 C   0  0  0  0  0  0  0  0  0  0  0  0
  -29.3030   12.2630  -21.7880 N   0  0  0  0  0  0  0  0  0  0  0  0
  -29.1750   11.4570  -22.4000 H   0  0  0  0  0  0  0  0  0  0  0  0
  -30.4660   13.0190  -22.2700 C   0  0  0  0  0  0  0  0  0  0  0  0
  -31.7010   12.1140  -22.2590 C   0  0  0  0  0  0  0  0  0  0  0  0
  -31.9270   11.6170  -20.8950 N   0  0  0  0  0  0  0  0  0  0  0  0
  -32.0540   12.4220  -20.2830 H   0  0  0  0  0  0  0  0  0  0  0  0
  -30.7620   10.8600  -20.4130 C   0  0  0  0  0  0  0  0  0  0  0  0
  -29.5280   11.7660  -20.4250 C   0  0  0  0  0  0  0  0  0  0  0  0
  -33.1480   10.8030  -20.8270 C   0  0  0  0  0  0  0  0  0  0  0  0
  -34.2750   11.6250  -20.1990 C   0  0  0  0  0  0  0  0  0  0  0  0
  -34.7180   12.6150  -21.1300 O   0  0  0  0  0  0  0  0  0  0  0  0
  -35.6070   12.3880  -21.4450 H   0  0  0  0  0  0  0  0  0  0  0  0
  1  2  1  0  0  0  0
  1  8  1  0  0  0  0
  3  2  2  0  0  0  0
  4  3  1  0  0  0  0
  5  4  1  0  0  0  0
  6  4  2  0  0  0  0
  6  7  1  0  0  0  0
  7  1  2  0  0  0  0
  8 10  1  0  0  0  0
  8  9  2  0  0  0  0
 11 10  1  0  0  0  0
 11 15  1  0  0  0  0
 12 19  1  0  0  0  0
 13 12  2  0  0  0  0
 14 13  1  0  0  0  0
 15 14  2  0  0  0  0
 15 16  1  0  0  0  0
 16 17  2  0  0  0  0
 17 12  1  0  0  0  0
 19 18  1  0  0  0  0
 20  7  1  0  0  0  0
 21 20  1  0  0  0  0
 22 23  1  0  0  0  0
 22  6  1  0  0  0  0
 23 30  1  0  0  0  0
 24 23  1  0  0  0  0
 25 26  1  0  0  0  0
 25 23  1  0  0  0  0
 26 27  1  0  0  0  0
 27 31  1  0  0  0  0
 27 29  1  0  0  0  0
 27 28  1  0  0  0  0
 30 29  1  0  0  0  0
 31 32  1  0  0  0  0
 33 32  1  0  0  0  0
 34 33  1  0  0  0  0
M  END
>  <MODEL>
1

>  <REMARK>
 VINA RESULT:      -3.2      0.000      0.000
  Name = ZINC21195156
                            x       y       z     vdW  Elec       q    Type
                         _______ _______ _______ _____ _____    ______ ____

>  <TORSDO>
F 11

>  <vina_score>
-3.2

$$$$
ZINC04794950
 OpenBabel01081721363D

 24 24  0  0  0  0  0  0  0  0999 V2000
  -31.0580   12.0870  -17.9110 P   0  0  0  0  0  0  0  0  0  0  0  0
  -29.5280   12.5170  -18.1260 N   0  0  0  0  0  0  0  0  0  0  0  0
  -29.1740   13.5230  -19.3220 P   0  0  0  0  0  0  0  0  0  0  0  0
  -29.8840   12.9910  -20.6560 N   0  0  0  0  0  0  0  0  0  0  0  0
  -31.4340   12.5920  -20.5950 P   0  0  0  0  0  0  0  0  0  0  0  0
  -31.6610   11.6390  -19.3260 N   0  0  0  0  0  0  0  0  0  0  0  0
  -32.3930   10.8410  -16.0600 C   0  0  0  0  0  0  0  0  0  0  0  0
  -31.1390   10.8030  -16.8260 N   0  0  0  0  0  0  0  0  0  0  0  0
  -31.0910    9.9260  -17.3450 H   0  0  0  0  0  0  0  0  0  0  0  0
  -31.9340   13.3930  -17.3100 N   0  0  0  0  0  0  0  0  0  0  0  0
  -32.2490   13.9700  -18.0890 H   0  0  0  0  0  0  0  0  0  0  0  0
  -33.1030   12.9360  -16.5470 C   0  0  0  0  0  0  0  0  0  0  0  0
  -27.5070   13.5700  -19.5460 N   0  0  0  0  0  0  0  0  0  0  0  0
  -27.1320   12.9550  -20.8270 C   0  0  0  0  0  0  0  0  0  0  0  0
  -26.8060   12.9240  -18.4280 C   0  0  0  0  0  0  0  0  0  0  0  0
  -29.7410   15.0640  -18.9520 N   0  0  0  0  0  0  0  0  0  0  0  0
  -29.6650   15.9470  -20.1240 C   0  0  0  0  0  0  0  0  0  0  0  0
  -29.0080   15.6350  -17.8140 C   0  0  0  0  0  0  0  0  0  0  0  0
  -32.3720   13.9800  -20.4340 N   0  0  0  0  0  0  0  0  0  0  0  0
  -33.6060   13.6990  -19.6880 C   0  0  0  0  0  0  0  0  0  0  0  0
  -32.6720   14.5660  -21.7470 C   0  0  0  0  0  0  0  0  0  0  0  0
  -31.8650   11.7740  -22.0010 N   0  0  0  0  0  0  0  0  0  0  0  0
  -32.9360   10.8030  -21.7390 C   0  0  0  0  0  0  0  0  0  0  0  0
  -30.6990   11.1210  -22.6090 C   0  0  0  0  0  0  0  0  0  0  0  0
  1 10  1  0  0  0  0
  1  8  1  0  0  0  0
  2  1  1  0  0  0  0
  3 16  1  0  0  0  0
  3  2  1  0  0  0  0
  4  5  1  0  0  0  0
  4  3  1  0  0  0  0
  5 19  1  0  0  0  0
  5  6  1  0  0  0  0
  6  1  1  0  0  0  0
  8  7  1  0  0  0  0
  9  8  1  0  0  0  0
 10 12  1  0  0  0  0
 11 10  1  0  0  0  0
 13  3  1  0  0  0  0
 13 15  1  0  0  0  0
 14 13  1  0  0  0  0
 16 18  1  0  0  0  0
 17 16  1  0  0  0  0
 19 20  1  0  0  0  0
 21 19  1  0  0  0  0
 22 23  1  0  0  0  0
 22  5  1  0  0  0  0
 24 22  1  0  0  0  0
M  END
>  <MODEL>
1

>  <REMARK>
 VINA RESULT:      -3.0      0.000      0.000
  Name = ZINC04794950
                            x       y       z     vdW  Elec       q    Type
                         _______ _______ _______ _____ _____    ______ ____

>  <TORSDO>
F 6

>  <vina_score>
-3.0

$$$$
ZINC29647851
 OpenBabel01081721403D

 34 35  0  0  0  0  0  0  0  0999 V2000
  -29.8300   11.7830  -19.7030 C   0  0  0  0  0  0  0  0  0  0  0  0
  -28.9930   11.5580  -18.8520 O   0  0  0  0  0  0  0  0  0  0  0  0
  -31.1950   11.8440  -19.3510 C   0  0  0  0  0  0  0  0  0  0  0  0
  -31.6060   12.4180  -18.1350 C   0  0  0  0  0  0  0  0  0  0  0  0
  -32.9390   12.4540  -17.8390 N   0  0  0  0  0  0  0  0  0  0  0  0
  -33.8540   11.9510  -18.6810 C   0  0  0  0  0  0  0  0  0  0  0  0
  -33.5230   11.3960  -19.8570 N   0  0  0  0  0  0  0  0  0  0  0  0
  -34.5740   10.8710  -20.7310 C   0  0  0  0  0  0  0  0  0  0  0  0
  -35.0280   12.0040  -18.3690 O   0  0  0  0  0  0  0  0  0  0  0  0
  -32.2330   11.3110  -20.2430 C   0  0  0  0  0  0  0  0  0  0  0  0
  -31.9350   10.8030  -21.3090 O   0  0  0  0  0  0  0  0  0  0  0  0
  -30.6910   12.9280  -17.2680 N   0  0  0  0  0  0  0  0  0  0  0  0
  -30.8860   12.9500  -16.3020 H   0  0  0  0  0  0  0  0  0  0  0  0
  -29.8340   13.2760  -17.6050 H   0  0  0  0  0  0  0  0  0  0  0  0
  -33.3770   13.0490  -16.5740 C   0  0  0  0  0  0  0  0  0  0  0  0
  -34.2180   12.0340  -15.7970 C   0  0  0  0  0  0  0  0  0  0  0  0
  -33.3640   10.8070  -15.4720 C   0  0  0  0  0  0  0  0  0  0  0  0
  -34.7130   12.6700  -14.4960 C   0  0  0  0  0  0  0  0  0  0  0  0
  -29.4110   11.9980  -21.1350 C   0  0  0  0  0  0  0  0  0  0  0  0
  -29.1580   13.4230  -21.3610 N   0  0  0  0  0  0  0  0  0  0  0  0
  -28.3320   13.7100  -21.8130 H   0  0  0  0  0  0  0  0  0  0  0  0
  -29.6600   15.5480  -20.3340 C   0  0  0  0  0  0  0  0  0  0  0  0
  -30.5840   16.4860  -19.9160 C   0  0  0  0  0  0  0  0  0  0  0  0
  -31.9350   16.2570  -20.0970 C   0  0  0  0  0  0  0  0  0  0  0  0
  -32.3670   15.0880  -20.6980 C   0  0  0  0  0  0  0  0  0  0  0  0
  -31.4490   14.1480  -21.1220 C   0  0  0  0  0  0  0  0  0  0  0  0
  -30.0890   14.3730  -20.9370 C   0  0  0  0  0  0  0  0  0  0  0  0
  -28.1880   15.7990  -20.1360 C   0  0  0  0  0  0  0  0  0  0  0  0
  -27.5990   14.6890  -19.3820 N   0  0  0  0  0  0  0  0  0  0  0  0
  -26.6680   13.9030  -19.9570 C   0  0  0  0  0  0  0  0  0  0  0  0
  -26.0630   12.7610  -19.1810 C   0  0  0  0  0  0  0  0  0  0  0  0
  -26.3170   14.1140  -21.0980 O   0  0  0  0  0  0  0  0  0  0  0  0
  -28.2520   15.7660  -17.2860 C   0  0  0  0  0  0  0  0  0  0  0  0
  -28.0240   14.4350  -18.0030 C   0  0  0  0  0  0  0  0  0  0  0  0
  1  3  1  0  0  0  0
  1  2  2  0  0  0  0
  3  4  2  0  0  0  0
  4  5  1  0  0  0  0
  4 12  1  0  0  0  0
  5 15  1  0  0  0  0
  6  9  2  0  0  0  0
  6  5  1  0  0  0  0
  7  6  1  0  0  0  0
  8  7  1  0  0  0  0
 10  7  1  0  0  0  0
 10  3  1  0  0  0  0
 11 10  2  0  0  0  0
 12 13  1  0  0  0  0
 14 12  1  0  0  0  0
 15 16  1  0  0  0  0
 16 17  1  0  0  0  0
 16 18  1  0  0  0  0
 19  1  1  0  0  0  0
 20 19  1  0  0  0  0
 20 27  1  0  0  0  0
 21 20  1  0  0  0  0
 22 28  1  0  0  0  0
 22 23  2  0  0  0  0
 24 23  1  0  0  0  0
 25 24  2  0  0  0  0
 26 27  2  0  0  0  0
 26 25  1  0  0  0  0
 27 22  1  0  0  0  0
 28 29  1  0  0  0  0
 29 34  1  0  0  0  0
 30 29  1  0  0  0  0
 30 31  1  0  0  0  0
 32 30  2  0  0  0  0
 34 33  1  0  0  0  0
M  END
>  <MODEL>
1

>  <REMARK>
 VINA RESULT:      -2.9      0.000      0.000
  Name = ZINC29647851
                            x       y       z     vdW  Elec       q    Type
                         _______ _______ _______ _____ _____    ______ ____

>  <TORSDO>
F 10

>  <vina_score>
-2.9

$$$$
ZINC01843099
 OpenBabel01081721453D

 31 33  0  0  1  0  0  0  0  0999 V2000
  -28.2050   12.3890  -19.3820 C   0  0  0  0  0  0  0  0  0  0  0  0
  -29.0430   12.3210  -18.3650 N   0  0  0  0  0  0  0  0  0  0  0  0
  -30.3220   11.9650  -18.5620 C   0  0  0  0  0  0  0  0  0  0  0  0
  -31.2340   11.8780  -17.5020 C   0  0  0  0  0  0  0  0  0  0  0  0
  -32.5360   11.5120  -17.7560 C   0  0  0  0  0  0  0  0  0  0  0  0
  -32.9560   11.2180  -19.0610 C   0  0  0  0  0  0  0  0  0  0  0  0
  -32.0830   11.2920  -20.1070 C   0  0  0  0  0  0  0  0  0  0  0  0
  -30.7530   11.6660  -19.8770 C   0  0  0  0  0  0  0  0  0  0  0  0
  -29.8090   11.7560  -20.9290 C   0  0  0  0  0  0  0  0  0  0  0  0
  -28.5680   12.1170  -20.6320 N   0  0  0  0  0  0  0  0  0  0  0  0
  -30.1720   11.4770  -22.2300 N   0  0  0  0  0  0  0  0  0  0  0  0
  -29.8980   10.6280  -22.6460 H   0  0  0  0  0  0  0  0  0  0  0  0
  -30.7050   12.1270  -22.7420 H   0  0  0  0  0  0  0  0  0  0  0  0
  -26.4390   12.9830  -17.7640 C   0  0  0  0  0  0  0  0  0  0  0  0
  -26.8950   12.7600  -19.1390 N   0  0  0  0  0  0  0  0  0  0  0  0
  -25.9610   12.9290  -20.2560 C   0  0  0  0  0  0  0  0  0  0  0  0
  -26.3820   14.1380  -21.0940 C   0  0  0  0  0  0  0  0  0  0  0  0
  -26.3250   15.4010  -20.2330 C   0  0  0  0  0  0  0  0  0  0  0  0
  -27.6170   15.5980  -19.5700 N   0  0  0  0  0  0  0  0  0  0  0  0
  -27.6530   15.7640  -18.6010 H   0  0  0  0  0  0  0  0  0  0  0  0
  -28.7560   15.5510  -20.2890 C   0  0  0  0  0  0  0  0  0  0  0  0
  -28.7120   15.3480  -21.4840 O   0  0  0  0  0  0  0  0  0  0  0  0
  -30.0850   15.7540  -19.6090 C   0  0  1  0  0  0  0  0  0  0  0  0
  -30.6040   17.1780  -19.8860 C   0  0  0  0  0  0  0  0  0  0  0  0
  -31.9720   16.9570  -20.5750 C   0  0  0  0  0  0  0  0  0  0  0  0
  -32.3270   15.5140  -20.1340 C   0  0  0  0  0  0  0  0  0  0  0  0
  -31.0530   14.8350  -20.1430 O   0  0  0  0  0  0  0  0  0  0  0  0
  -33.4240   11.4310  -16.7300 O   0  0  0  0  0  0  0  0  0  0  0  0
  -33.8410   12.6600  -16.1340 C   0  0  0  0  0  0  0  0  0  0  0  0
  -34.2470   10.8550  -19.2860 O   0  0  0  0  0  0  0  0  0  0  0  0
  -35.0290   11.7180  -20.1140 C   0  0  0  0  0  0  0  0  0  0  0  0
  1 15  1  0  0  0  0
  1  2  2  0  0  0  0
  3  2  1  0  0  0  0
  3  4  2  0  0  0  0
  5  4  1  0  0  0  0
  5 28  1  0  0  0  0
  6  5  2  0  0  0  0
  7  8  2  0  0  0  0
  7  6  1  0  0  0  0
  8  3  1  0  0  0  0
  9 10  2  0  0  0  0
  9  8  1  0  0  0  0
 10  1  1  0  0  0  0
 11  9  1  0  0  0  0
 12 11  1  0  0  0  0
 13 11  1  0  0  0  0
 15 14  1  0  0  0  0
 16 15  1  0  0  0  0
 17 16  1  0  0  0  0
 17 18  1  0  0  0  0
 18 19  1  0  0  0  0
 19 20  1  0  0  0  0
 21 19  1  0  0  0  0
 22 21  2  0  0  0  0
 23 21  1  6  0  0  0
 24 23  1  0  0  0  0
 25 26  1  0  0  0  0
 25 24  1  0  0  0  0
 27 26  1  0  0  0  0
 27 23  1  0  0  0  0
 28 29  1  0  0  0  0
 30  6  1  0  0  0  0
 31 30  1  0  0  0  0
M  END
>  <MODEL>
1

>  <REMARK>
 VINA RESULT:      -2.8      0.000      0.000
  Name = ZINC01843099
                            x       y       z     vdW  Elec       q    Type
                         _______ _______ _______ _____ _____    ______ ____

>  <TORSDO>
F 9

>  <vina_score>
-2.8

$$$$
ZINC29372671
 OpenBabel01081721473D

 33 34  0  0  1  0  0  0  0  0999 V2000
  -30.2240   14.1620  -17.9410 N   0  0  0  0  0  0  0  0  0  0  0  0
  -30.3340   14.9880  -18.4640 H   0  0  0  0  0  0  0  0  0  0  0  0
  -28.9940   13.6470  -17.7430 C   0  0  0  0  0  0  0  0  0  0  0  0
  -28.8590   12.6290  -17.0990 O   0  0  0  0  0  0  0  0  0  0  0  0
  -32.0420   12.4390  -17.9240 C   0  0  0  0  0  0  0  0  0  0  0  0
  -33.1290   11.9760  -17.1960 C   0  0  0  0  0  0  0  0  0  0  0  0
  -33.9460   10.8040  -17.6750 C   0  0  0  0  0  0  0  0  0  0  0  0
  -33.4330   12.6220  -16.0290 C   0  0  0  0  0  0  0  0  0  0  0  0
  -32.1850   13.8930  -15.9460 S   0  0  0  0  0  0  0  0  0  0  0  0
  -31.3320   13.5280  -17.4100 C   0  0  0  0  0  0  0  0  0  0  0  0
  -34.5150   12.3390  -15.0830 C   0  0  0  0  0  0  0  0  0  0  0  0
  -34.6770   11.0900  -14.6000 N   0  0  0  0  0  0  0  0  0  0  0  0
  -34.0690   10.3690  -14.8840 H   0  0  0  0  0  0  0  0  0  0  0  0
  -35.7600   10.8060  -13.6550 C   0  0  0  0  0  0  0  0  0  0  0  0
  -35.2670   13.2290  -14.7340 O   0  0  0  0  0  0  0  0  0  0  0  0
  -31.6480   11.8030  -19.1860 C   0  0  0  0  0  0  0  0  0  0  0  0
  -30.6260   11.1450  -19.2420 O   0  0  0  0  0  0  0  0  0  0  0  0
  -32.4180   11.9480  -20.2830 O   0  0  0  0  0  0  0  0  0  0  0  0
  -32.4190   14.3340  -20.7680 C   0  0  0  0  0  0  0  0  0  0  0  0
  -33.2610   13.1280  -20.3450 C   0  0  0  0  0  0  0  0  0  0  0  0
  -27.7870   14.3380  -18.3230 C   0  0  1  0  0  0  0  0  0  0  0  0
  -26.5190   13.7810  -17.6730 C   0  0  0  0  0  0  0  0  0  0  0  0
  -27.7370   14.1030  -19.7680 N   0  0  0  0  0  0  0  0  0  0  0  0
  -26.9120   14.8200  -20.5060 C   0  0  0  0  0  0  0  0  0  0  0  0
  -26.8310   14.6330  -21.8740 C   0  0  0  0  0  0  0  0  0  0  0  0
  -27.6290   13.6770  -22.4750 C   0  0  0  0  0  0  0  0  0  0  0  0
  -28.4940   12.9300  -21.6670 C   0  0  0  0  0  0  0  0  0  0  0  0
  -28.5130   13.1770  -20.2930 C   0  0  0  0  0  0  0  0  0  0  0  0
  -29.3690   11.8950  -22.2560 C   0  0  0  0  0  0  0  0  0  0  0  0
  -30.6720   12.1620  -22.4790 N   0  0  0  0  0  0  0  0  0  0  0  0
  -31.2560   11.4720  -22.8710 H   0  0  0  0  0  0  0  0  0  0  0  0
  -31.0390   13.0460  -22.2500 H   0  0  0  0  0  0  0  0  0  0  0  0
  -28.9160   10.8040  -22.5390 O   0  0  0  0  0  0  0  0  0  0  0  0
  1  3  1  0  0  0  0
  1 10  1  0  0  0  0
  2  1  1  0  0  0  0
  3  4  2  0  0  0  0
  5 10  2  0  0  0  0
  5  6  1  0  0  0  0
  6  8  2  0  0  0  0
  7  6  1  0  0  0  0
  8  9  1  0  0  0  0
  8 11  1  0  0  0  0
 10  9  1  0  0  0  0
 11 15  2  0  0  0  0
 11 12  1  0  0  0  0
 12 14  1  0  0  0  0
 13 12  1  0  0  0  0
 16  5  1  0  0  0  0
 17 16  2  0  0  0  0
 18 16  1  0  0  0  0
 19 20  1  0  0  0  0
 20 18  1  0  0  0  0
 21 23  1  6  0  0  0
 21  3  1  0  0  0  0
 21 22  1  0  0  0  0
 24 23  1  0  0  0  0
 25 24  2  0  0  0  0
 26 25  1  0  0  0  0
 26 27  1  0  0  0  0
 27 28  2  0  0  0  0
 28 23  1  0  0  0  0
 29 27  1  0  0  0  0
 30 29  1  0  0  0  0
 30 32  1  0  0  0  0
 31 30  1  0  0  0  0
 33 29  2  0  0  0  0
M  END
>  <MODEL>
1

>  <REMARK>
 VINA RESULT:      -2.6      0.000      0.000
  Name = ZINC29372671
                            x       y       z     vdW  Elec       q    Type
                         _______ _______ _______ _____ _____    ______ ____

>  <TORSDO>
F 8

>  <vina_score>
-2.6

$$$$
ZINC06279516
 OpenBabel01081721423D

 26 27  0  0  1  0  0  0  0  0999 V2000
  -33.6980   12.7560  -19.0820 C   0  0  0  0  0  0  0  0  0  0  0  0
  -32.5950   12.6260  -18.1270 N   0  0  0  0  0  0  0  0  0  0  0  0
  -31.3560   12.6130  -18.5550 C   0  0  2  0  0  0  0  0  0  0  0  0
  -31.0340   12.6140  -19.9970 C   0  0  0  0  0  0  0  0  0  0  0  0
  -29.7860   13.1040  -20.3740 C   0  0  0  0  0  0  0  0  0  0  0  0
  -28.8900   13.5330  -19.3790 C   0  0  0  0  0  0  0  0  0  0  0  0
  -29.1620   13.2980  -18.0270 C   0  0  0  0  0  0  0  0  0  0  0  0
  -30.2820   12.5960  -17.6740 N   0  0  0  0  0  0  0  0  0  0  0  0
  -30.3250   12.0970  -16.8260 H   0  0  0  0  0  0  0  0  0  0  0  0
  -32.8770   12.5100  -16.6950 C   0  0  2  0  0  0  0  0  0  0  0  0
  -32.7690   11.0390  -16.2610 C   0  0  0  0  0  0  0  0  0  0  0  0
  -33.3690   10.8600  -14.8460 C   0  0  0  0  0  0  0  0  0  0  0  0
  -34.6260   12.2020  -14.7680 S   0  0  0  0  0  0  0  0  0  0  0  0
  -35.9230   11.6210  -14.7660 O   0  0  0  0  0  0  0  0  0  0  0  0
  -34.2650   13.1130  -13.7400 O   0  0  0  0  0  0  0  0  0  0  0  0
  -34.3260   12.9950  -16.4040 C   0  0  0  0  0  0  0  0  0  0  0  0
  -28.3110   13.7590  -17.0650 N   0  0  0  0  0  0  0  0  0  0  0  0
  -28.0860   14.7180  -17.0260 H   0  0  0  0  0  0  0  0  0  0  0  0
  -27.9220   13.1350  -16.4110 H   0  0  0  0  0  0  0  0  0  0  0  0
  -31.9680   12.1320  -20.9680 C   0  0  0  0  0  0  0  0  0  0  0  0
  -32.7090   11.7490  -21.7400 N   0  0  0  0  0  0  0  0  0  0  0  0
  -27.6920   14.2230  -19.7530 C   0  0  0  0  0  0  0  0  0  0  0  0
  -26.7410   14.7700  -20.0490 N   0  0  0  0  0  0  0  0  0  0  0  0
  -29.3990   13.1680  -21.8280 C   0  0  0  0  0  0  0  0  0  0  0  0
  -28.9330   11.8440  -22.2710 C   0  0  0  0  0  0  0  0  0  0  0  0
  -28.5740   10.8210  -22.6130 N   0  0  0  0  0  0  0  0  0  0  0  0
  1  2  1  0  0  0  0
  3  2  1  6  0  0  0
  3  8  1  0  0  0  0
  4  3  1  0  0  0  0
  5  4  2  0  0  0  0
  5  6  1  0  0  0  0
  6  7  2  0  0  0  0
  7  8  1  0  0  0  0
  7 17  1  0  0  0  0
  8  9  1  0  0  0  0
 10  2  1  6  0  0  0
 10 16  1  0  0  0  0
 10 11  1  0  0  0  0
 11 12  1  0  0  0  0
 12 13  1  0  0  0  0
 13 14  2  0  0  0  0
 13 15  2  0  0  0  0
 16 13  1  0  0  0  0
 17 18  1  0  0  0  0
 17 19  1  0  0  0  0
 20  4  1  0  0  0  0
 21 20  3  0  0  0  0
 22  6  1  0  0  0  0
 23 22  3  0  0  0  0
 24  5  1  0  0  0  0
 25 24  1  0  0  0  0
 26 25  3  0  0  0  0
M  END
>  <MODEL>
1

>  <REMARK>
 VINA RESULT:      -2.4      0.000      0.000
  Name = ZINC06279516
                            x       y       z     vdW  Elec       q    Type
                         _______ _______ _______ _____ _____    ______ ____

>  <TORSDO>
F 6

>  <vina_score>
-2.4

$$$$
ZINC24628488
 OpenBabel01081721513D

 29 30  0  0  0  0  0  0  0  0999 V2000
  -29.5560   13.9140  -18.8740 C   0  0  0  0  0  0  0  0  0  0  0  0
  -29.6220   13.0650  -17.8300 N   0  0  0  0  0  0  0  0  0  0  0  0
  -28.8360   12.5260  -17.5840 H   0  0  0  0  0  0  0  0  0  0  0  0
  -30.5270   14.5810  -19.1780 O   0  0  0  0  0  0  0  0  0  0  0  0
  -26.2570   15.1500  -20.1600 C   0  0  0  0  0  0  0  0  0  0  0  0
  -27.4110   15.0790  -19.4010 C   0  0  0  0  0  0  0  0  0  0  0  0
  -28.3070   14.0340  -19.6510 C   0  0  0  0  0  0  0  0  0  0  0  0
  -27.9950   13.1000  -20.6510 C   0  0  0  0  0  0  0  0  0  0  0  0
  -26.8750   13.2110  -21.3440 N   0  0  0  0  0  0  0  0  0  0  0  0
  -26.0190   14.1910  -21.1280 C   0  0  0  0  0  0  0  0  0  0  0  0
  -28.8460   12.0770  -20.9050 O   0  0  0  0  0  0  0  0  0  0  0  0
  -29.6460   12.1770  -22.0860 C   0  0  0  0  0  0  0  0  0  0  0  0
  -31.1150   11.9500  -21.7270 C   0  0  0  0  0  0  0  0  0  0  0  0
  -31.8150   13.1560  -21.8360 F   0  0  0  0  0  0  0  0  0  0  0  0
  -31.2060   11.4750  -20.4150 F   0  0  0  0  0  0  0  0  0  0  0  0
  -31.6690   11.0100  -22.6020 F   0  0  0  0  0  0  0  0  0  0  0  0
  -30.8080   12.9520  -17.0930 N   0  0  0  0  0  0  0  0  0  0  0  0
  -31.0630   13.6610  -16.4600 H   0  0  0  0  0  0  0  0  0  0  0  0
  -31.5980   11.8720  -17.2510 C   0  0  0  0  0  0  0  0  0  0  0  0
  -31.2820   10.9960  -18.0340 O   0  0  0  0  0  0  0  0  0  0  0  0
  -32.8400   11.7530  -16.4790 C   0  0  0  0  0  0  0  0  0  0  0  0
  -33.2340   12.5700  -15.4390 C   0  0  0  0  0  0  0  0  0  0  0  0
  -34.4750   12.1010  -14.9970 C   0  0  0  0  0  0  0  0  0  0  0  0
  -34.8050   11.0240  -15.7510 C   0  0  0  0  0  0  0  0  0  0  0  0
  -33.8200   10.8030  -16.6550 N   0  0  0  0  0  0  0  0  0  0  0  0
  -33.8070   10.0830  -17.3260 H   0  0  0  0  0  0  0  0  0  0  0  0
  -35.2810   12.6740  -13.8960 N   0  0  0  0  0  0  0  0  0  0  0  0
  -36.2100   12.0400  -13.4290 O   0  0  0  0  0  0  0  0  0  0  0  0
  -35.0170   13.7800  -13.4590 O   0  0  0  0  0  0  0  0  0  0  0  0
  1  2  1  0  0  0  0
  2  3  1  0  0  0  0
  2 17  1  0  0  0  0
  4  1  2  0  0  0  0
  5  6  2  0  0  0  0
  7  6  1  0  0  0  0
  7  1  1  0  0  0  0
  8  7  2  0  0  0  0
  9 10  2  0  0  0  0
  9  8  1  0  0  0  0
 10  5  1  0  0  0  0
 11  8  1  0  0  0  0
 12 13  1  0  0  0  0
 12 11  1  0  0  0  0
 13 15  1  0  0  0  0
 14 13  1  0  0  0  0
 16 13  1  0  0  0  0
 17 18  1  0  0  0  0
 19 17  1  0  0  0  0
 19 21  1  0  0  0  0
 20 19  2  0  0  0  0
 21 22  2  0  0  0  0
 22 23  1  0  0  0  0
 23 27  1  0  0  0  0
 24 23  2  0  0  0  0
 25 21  1  0  0  0  0
 25 24  1  0  0  0  0
 26 25  1  0  0  0  0
 27 29  2  0  0  0  0
 27 28  2  0  0  0  0
M  END
>  <MODEL>
1

>  <REMARK>
 VINA RESULT:      -2.3      0.000      0.000
  Name = ZINC24628488
                            x       y       z     vdW  Elec       q    Type
                         _______ _______ _______ _____ _____    ______ ____

>  <TORSDO>
F 7

>  <vina_score>
-2.3

$$$$
ZINC23280832
 OpenBabel01081721473D

 29 30  0  0  0  0  0  0  0  0999 V2000
  -27.1740   15.1000  -19.2280 N   0  0  0  0  0  0  0  0  0  0  0  0
  -27.4380   15.8990  -19.7390 H   0  0  0  0  0  0  0  0  0  0  0  0
  -26.4270   14.1420  -19.8130 C   0  0  0  0  0  0  0  0  0  0  0  0
  -26.1020   13.1570  -19.1840 O   0  0  0  0  0  0  0  0  0  0  0  0
  -27.5910   14.9520  -17.8320 C   0  0  0  0  0  0  0  0  0  0  0  0
  -30.8150   12.3010  -17.4690 C   0  0  0  0  0  0  0  0  0  0  0  0
  -29.6200   11.7280  -17.7480 C   0  0  0  0  0  0  0  0  0  0  0  0
  -28.5050   12.5340  -17.8840 C   0  0  0  0  0  0  0  0  0  0  0  0
  -28.6410   13.8740  -17.7350 C   0  0  0  0  0  0  0  0  0  0  0  0
  -30.3840   14.0310  -17.3830 S   0  0  0  0  0  0  0  0  0  0  0  0
  -32.3870   11.5370  -17.2430 S   0  0  0  0  0  0  0  0  0  0  0  0
  -32.3110   10.8030  -16.0280 O   0  0  0  0  0  0  0  0  0  0  0  0
  -32.7250   10.9280  -18.4810 O   0  0  0  0  0  0  0  0  0  0  0  0
  -33.4890   12.7480  -16.9950 N   0  0  0  0  0  0  0  0  0  0  0  0
  -33.5540   13.3930  -19.3530 C   0  0  0  0  0  0  0  0  0  0  0  0
  -34.3770   13.1650  -18.0830 C   0  0  0  0  0  0  0  0  0  0  0  0
  -33.5760   13.4040  -15.6880 C   0  0  0  0  0  0  0  0  0  0  0  0
  -34.6970   12.7600  -14.8680 C   0  0  0  0  0  0  0  0  0  0  0  0
  -25.9980   14.2940  -21.2500 C   0  0  0  0  0  0  0  0  0  0  0  0
  -27.4390   14.6960  -22.2700 S   0  0  0  0  0  0  0  0  0  0  0  0
  -28.3440   13.1910  -22.1250 C   0  0  0  0  0  0  0  0  0  0  0  0
  -27.9980   12.0210  -22.6110 N   0  0  0  0  0  0  0  0  0  0  0  0
  -28.8910   11.1450  -22.3190 N   0  0  0  0  0  0  0  0  0  0  0  0
  -29.8530   11.6980  -21.6350 C   0  0  0  0  0  0  0  0  0  0  0  0
  -31.0800   11.0060  -21.1020 C   0  0  0  0  0  0  0  0  0  0  0  0
  -29.5400   13.0210  -21.4880 N   0  0  0  0  0  0  0  0  0  0  0  0
  -30.2700   13.9740  -20.8380 N   0  0  0  0  0  0  0  0  0  0  0  0
  -29.8750   14.8580  -20.6560 H   0  0  0  0  0  0  0  0  0  0  0  0
  -31.1910   13.7800  -20.5520 H   0  0  0  0  0  0  0  0  0  0  0  0
  1  5  1  0  0  0  0
  2  1  1  0  0  0  0
  3  1  1  0  0  0  0
  3  4  2  0  0  0  0
  5  9  1  0  0  0  0
  6 10  1  0  0  0  0
  6 11  1  0  0  0  0
  7  6  2  0  0  0  0
  8  7  1  0  0  0  0
  8  9  2  0  0  0  0
  9 10  1  0  0  0  0
 11 14  1  0  0  0  0
 11 12  2  0  0  0  0
 13 11  2  0  0  0  0
 14 17  1  0  0  0  0
 15 16  1  0  0  0  0
 16 14  1  0  0  0  0
 17 18  1  0  0  0  0
 19  3  1  0  0  0  0
 20 21  1  0  0  0  0
 20 19  1  0  0  0  0
 21 26  1  0  0  0  0
 22 23  1  0  0  0  0
 22 21  2  0  0  0  0
 23 24  2  0  0  0  0
 24 26  1  0  0  0  0
 24 25  1  0  0  0  0
 26 27  1  0  0  0  0
 27 28  1  0  0  0  0
 27 29  1  0  0  0  0
M  END
>  <MODEL>
1

>  <REMARK>
 VINA RESULT:      -2.1      0.000      0.000
  Name = ZINC23280832
                            x       y       z     vdW  Elec       q    Type
                         _______ _______ _______ _____ _____    ______ ____

>  <TORSDO>
F 10

>  <vina_score>
-2.1

$$$$
ZINC25133930
 OpenBabel01081721593D

 32 33  0  0  0  0  0  0  0  0999 V2000
  -30.6450   13.1480  -17.2160 C   0  0  0  0  0  0  0  0  0  0  0  0
  -31.2190   11.9750  -16.8860 N   0  0  0  0  0  0  0  0  0  0  0  0
  -30.7870   11.1270  -17.1390 H   0  0  0  0  0  0  0  0  0  0  0  0
  -31.1780   14.1960  -16.9040 O   0  0  0  0  0  0  0  0  0  0  0  0
  -28.1260   12.7140  -19.9630 C   0  0  0  0  0  0  0  0  0  0  0  0
  -29.3190   12.7000  -19.2760 C   0  0  0  0  0  0  0  0  0  0  0  0
  -29.3680   13.1620  -17.9580 C   0  0  0  0  0  0  0  0  0  0  0  0
  -28.2050   13.6310  -17.3410 C   0  0  0  0  0  0  0  0  0  0  0  0
  -27.0180   13.6470  -18.0370 C   0  0  0  0  0  0  0  0  0  0  0  0
  -26.9720   13.1870  -19.3480 C   0  0  0  0  0  0  0  0  0  0  0  0
  -28.0620   12.1320  -21.6250 S   0  0  0  0  0  0  0  0  0  0  0  0
  -29.1970   11.2970  -21.8070 O   0  0  0  0  0  0  0  0  0  0  0  0
  -26.7350   11.6710  -21.8430 O   0  0  0  0  0  0  0  0  0  0  0  0
  -27.8010   14.7640  -22.1890 C   0  0  0  0  0  0  0  0  0  0  0  0
  -28.2760   13.4430  -22.6120 N   0  0  0  0  0  0  0  0  0  0  0  0
  -27.8060   13.2300  -23.4920 H   0  0  0  0  0  0  0  0  0  0  0  0
  -25.7990   13.1990  -20.0300 O   0  0  0  0  0  0  0  0  0  0  0  0
  -25.3540   14.4610  -20.5330 C   0  0  0  0  0  0  0  0  0  0  0  0
  -32.4860   11.9610  -16.1510 C   0  0  0  0  0  0  0  0  0  0  0  0
  -33.3560   10.8070  -16.6530 C   0  0  0  0  0  0  0  0  0  0  0  0
  -33.4540   10.8680  -18.1140 N   0  0  0  0  0  0  0  0  0  0  0  0
  -33.8970   10.0010  -18.4160 H   0  0  0  0  0  0  0  0  0  0  0  0
  -34.2820   12.1060  -18.8370 S   0  0  0  0  0  0  0  0  0  0  0  0
  -34.6010   13.0360  -17.8110 O   0  0  0  0  0  0  0  0  0  0  0  0
  -35.2770   11.5050  -19.6550 O   0  0  0  0  0  0  0  0  0  0  0  0
  -33.1600   12.9190  -19.9240 C   0  0  0  0  0  0  0  0  0  0  0  0
  -32.6850   12.2630  -21.0440 C   0  0  0  0  0  0  0  0  0  0  0  0
  -31.8060   12.9010  -21.9000 C   0  0  0  0  0  0  0  0  0  0  0  0
  -31.3950   14.1930  -21.6300 C   0  0  0  0  0  0  0  0  0  0  0  0
  -31.8660   14.8480  -20.5070 C   0  0  0  0  0  0  0  0  0  0  0  0
  -31.3480   16.4700  -20.1670 Cl  0  0  0  0  0  0  0  0  0  0  0  0
  -32.7480   14.2100  -19.6530 C   0  0  0  0  0  0  0  0  0  0  0  0
  1  4  2  0  0  0  0
  1  2  1  0  0  0  0
  2 19  1  0  0  0  0
  3  2  1  0  0  0  0
  5 10  2  0  0  0  0
  5  6  1  0  0  0  0
  6  7  2  0  0  0  0
  7  8  1  0  0  0  0
  7  1  1  0  0  0  0
  9  8  2  0  0  0  0
 10  9  1  0  0  0  0
 11  5  1  0  0  0  0
 12 11  2  0  0  0  0
 13 11  2  0  0  0  0
 15 14  1  0  0  0  0
 15 11  1  0  0  0  0
 16 15  1  0  0  0  0
 17 10  1  0  0  0  0
 18 17  1  0  0  0  0
 20 19  1  0  0  0  0
 21 20  1  0  0  0  0
 22 21  1  0  0  0  0
 23 21  1  0  0  0  0
 23 24  2  0  0  0  0
 25 23  2  0  0  0  0
 26 32  1  0  0  0  0
 26 23  1  0  0  0  0
 27 26  2  0  0  0  0
 28 29  2  0  0  0  0
 28 27  1  0  0  0  0
 29 30  1  0  0  0  0
 30 31  1  0  0  0  0
 30 32  2  0  0  0  0
M  END
>  <MODEL>
1

>  <REMARK>
 VINA RESULT:      -1.5      0.000      0.000
  Name = ZINC25133930
                            x       y       z     vdW  Elec       q    Type
                         _______ _______ _______ _____ _____    ______ ____

>  <TORSDO>
F 9

>  <vina_score>
-1.5

$$$$
ZINC02428102
 OpenBabel01081721393D

 34 36  0  0  0  0  0  0  0  0999 V2000
  -30.2860   14.1080  -20.5690 N   0  0  0  0  0  0  0  0  0  0  0  0
  -30.6030   14.7070  -21.2830 H   0  0  0  0  0  0  0  0  0  0  0  0
  -31.1620   13.3360  -19.8970 C   0  0  0  0  0  0  0  0  0  0  0  0
  -30.7820   12.6530  -18.9690 O   0  0  0  0  0  0  0  0  0  0  0  0
  -27.9720   12.2130  -21.8690 C   0  0  0  0  0  0  0  0  0  0  0  0
  -26.8170   11.5450  -22.2270 C   0  0  0  0  0  0  0  0  0  0  0  0
  -25.6140   11.8450  -21.6060 C   0  0  0  0  0  0  0  0  0  0  0  0
  -25.5510   12.8030  -20.6170 C   0  0  0  0  0  0  0  0  0  0  0  0
  -26.7010   13.4870  -20.2330 C   0  0  0  0  0  0  0  0  0  0  0  0
  -26.9340   14.4700  -19.2990 N   0  0  0  0  0  0  0  0  0  0  0  0
  -26.2500   14.8670  -18.7120 H   0  0  0  0  0  0  0  0  0  0  0  0
  -28.2770   14.8190  -19.3070 C   0  0  0  0  0  0  0  0  0  0  0  0
  -28.9320   14.0590  -20.2540 C   0  0  0  0  0  0  0  0  0  0  0  0
  -27.9240   13.1910  -20.8640 C   0  0  0  0  0  0  0  0  0  0  0  0
  -29.8810   10.8030  -21.9790 C   0  0  0  0  0  0  0  0  0  0  0  0
  -29.1480   11.9210  -22.4820 O   0  0  0  0  0  0  0  0  0  0  0  0
  -28.8790   15.7970  -18.4760 C   0  0  0  0  0  0  0  0  0  0  0  0
  -29.3770   16.7910  -18.9690 O   0  0  0  0  0  0  0  0  0  0  0  0
  -28.9000   15.6250  -17.1370 O   0  0  0  0  0  0  0  0  0  0  0  0
  -28.8510   14.2810  -16.6550 C   0  0  0  0  0  0  0  0  0  0  0  0
  -32.6150   13.3210  -20.2980 C   0  0  0  0  0  0  0  0  0  0  0  0
  -33.1930   11.9230  -20.0680 C   0  0  0  0  0  0  0  0  0  0  0  0
  -33.8230   11.8740  -18.7320 N   0  0  0  0  0  0  0  0  0  0  0  0
  -34.7870   11.5550  -18.8310 H   0  0  0  0  0  0  0  0  0  0  0  0
  -33.8250   13.2210  -18.1250 C   0  0  0  0  0  0  0  0  0  0  0  0
  -34.5860   13.1670  -16.7970 C   0  0  0  0  0  0  0  0  0  0  0  0
  -33.8920   12.1780  -15.8570 C   0  0  0  0  0  0  0  0  0  0  0  0
  -33.8300   10.8030  -16.5300 C   0  0  0  0  0  0  0  0  0  0  0  0
  -33.0920   10.9260  -17.8640 C   0  0  0  0  0  0  0  0  0  0  0  0
  -34.6710   12.0750  -14.5710 C   0  0  0  0  0  0  0  0  0  0  0  0
  -34.6220   13.0790  -13.6720 N   0  0  0  0  0  0  0  0  0  0  0  0
  -35.1310   13.0110  -12.8320 H   0  0  0  0  0  0  0  0  0  0  0  0
  -34.0790   13.8790  -13.8570 H   0  0  0  0  0  0  0  0  0  0  0  0
  -35.3400   11.0900  -14.3440 O   0  0  0  0  0  0  0  0  0  0  0  0
  1 13  1  0  0  0  0
  1  3  1  0  0  0  0
  2  1  1  0  0  0  0
  3  4  2  0  0  0  0
  5 14  1  0  0  0  0
  6  5  2  0  0  0  0
  6  7  1  0  0  0  0
  7  8  2  0  0  0  0
  8  9  1  0  0  0  0
  9 10  1  0  0  0  0
 10 11  1  0  0  0  0
 12 10  1  0  0  0  0
 12 17  1  0  0  0  0
 13 12  2  0  0  0  0
 14 13  1  0  0  0  0
 14  9  2  0  0  0  0
 16 15  1  0  0  0  0
 16  5  1  0  0  0  0
 17 19  1  0  0  0  0
 18 17  2  0  0  0  0
 19 20  1  0  0  0  0
 21 22  1  0  0  0  0
 21  3  1  0  0  0  0
 22 23  1  0  0  0  0
 23 25  1  0  0  0  0
 23 29  1  0  0  0  0
 24 23  1  0  0  0  0
 25 26  1  0  0  0  0
 26 27  1  0  0  0  0
 27 30  1  0  0  0  0
 28 27  1  0  0  0  0
 29 28  1  0  0  0  0
 30 34  2  0  0  0  0
 30 31  1  0  0  0  0
 31 32  1  0  0  0  0
 33 31  1  0  0  0  0
M  END
>  <MODEL>
1

>  <REMARK>
 VINA RESULT:      -1.5      0.000      0.000
  Name = ZINC02428102
                            x       y       z     vdW  Elec       q    Type
                         _______ _______ _______ _____ _____    ______ ____

>  <TORSDO>
F 8

>  <vina_score>
-1.5

$$$$
ZINC12320688
 OpenBabel01081721533D

 39 42  0  0  1  0  0  0  0  0999 V2000
  -31.1000   14.5660  -18.7920 C   0  0  0  0  0  0  0  0  0  0  0  0
  -30.0910   15.1270  -19.4110 N   0  0  0  0  0  0  0  0  0  0  0  0
  -28.9460   14.8660  -18.7330 C   0  0  0  0  0  0  0  0  0  0  0  0
  -27.5930   15.1950  -18.9210 C   0  0  0  0  0  0  0  0  0  0  0  0
  -26.7060   14.7590  -18.0330 N   0  0  0  0  0  0  0  0  0  0  0  0
  -27.0780   14.0320  -16.9960 C   0  0  0  0  0  0  0  0  0  0  0  0
  -28.3330   13.7000  -16.7800 N   0  0  0  0  0  0  0  0  0  0  0  0
  -29.2900   14.0910  -17.6140 C   0  0  0  0  0  0  0  0  0  0  0  0
  -30.6530   13.9190  -17.6730 N   0  0  0  0  0  0  0  0  0  0  0  0
  -31.4760   13.1730  -16.7160 C   0  0  2  0  0  0  0  0  0  0  0  0
  -31.9630   11.8440  -17.3440 C   0  0  2  0  0  0  0  0  0  0  0  0
  -33.2430   11.5740  -16.5060 C   0  0  1  0  0  0  0  0  0  0  0  0
  -33.7710   13.0000  -16.2460 C   0  0  2  0  0  0  0  0  0  0  0  0
  -32.6740   13.9060  -16.4110 O   0  0  0  0  0  0  0  0  0  0  0  0
  -30.9990   10.8040  -17.1620 O   0  0  0  0  0  0  0  0  0  0  0  0
  -30.8890   10.3160  -17.9940 H   0  0  0  0  0  0  0  0  0  0  0  0
  -34.1900   10.8090  -17.2550 O   0  0  0  0  0  0  0  0  0  0  0  0
  -34.9520   10.5990  -16.6930 H   0  0  0  0  0  0  0  0  0  0  0  0
  -34.3170   13.1000  -14.8200 C   0  0  0  0  0  0  0  0  0  0  0  0
  -35.4630   12.2560  -14.6890 O   0  0  0  0  0  0  0  0  0  0  0  0
  -36.1410   12.5300  -15.3260 H   0  0  0  0  0  0  0  0  0  0  0  0
  -27.1930   15.9570  -20.0070 N   0  0  0  0  0  0  0  0  0  0  0  0
  -27.8670   16.3990  -20.5730 H   0  0  0  0  0  0  0  0  0  0  0  0
  -26.2350   16.0560  -20.2130 H   0  0  0  0  0  0  0  0  0  0  0  0
  -32.4160   14.6210  -19.2060 N   0  0  0  0  0  0  0  0  0  0  0  0
  -32.8670   15.4910  -19.2990 H   0  0  0  0  0  0  0  0  0  0  0  0
  -33.0960   14.1280  -21.8100 C   0  0  0  0  0  0  0  0  0  0  0  0
  -33.4480   13.1710  -20.7000 C   0  0  0  0  0  0  0  0  0  0  0  0
  -33.1110   13.4390  -19.4940 N   0  0  0  0  0  0  0  0  0  0  0  0
  -34.1950   11.9000  -21.0090 C   0  0  0  0  0  0  0  0  0  0  0  0
  -33.2750   10.8090  -21.0740 O   0  0  0  0  0  0  0  0  0  0  0  0
  -31.9610   11.1180  -21.2440 C   0  0  0  0  0  0  0  0  0  0  0  0
  -31.3240   10.8030  -22.4350 C   0  0  0  0  0  0  0  0  0  0  0  0
  -29.9910   11.1220  -22.6100 C   0  0  0  0  0  0  0  0  0  0  0  0
  -29.2880   11.7460  -21.5910 C   0  0  0  0  0  0  0  0  0  0  0  0
  -29.9240   12.0550  -20.3970 C   0  0  0  0  0  0  0  0  0  0  0  0
  -31.2580   11.7420  -20.2250 C   0  0  0  0  0  0  0  0  0  0  0  0
  -27.9750   12.0550  -21.7610 O   0  0  0  0  0  0  0  0  0  0  0  0
  -27.6770   13.3330  -22.3260 C   0  0  0  0  0  0  0  0  0  0  0  0
  1  9  1  0  0  0  0
  2  1  2  0  0  0  0
  2  3  1  0  0  0  0
  3  8  1  0  0  0  0
  4  3  2  0  0  0  0
  4  5  1  0  0  0  0
  5  6  2  0  0  0  0
  6  7  1  0  0  0  0
  8  7  2  0  0  0  0
  9  8  1  0  0  0  0
 10  9  1  6  0  0  0
 10 14  1  0  0  0  0
 11 15  1  1  0  0  0
 11 10  1  0  0  0  0
 11 12  1  0  0  0  0
 12 17  1  6  0  0  0
 12 13  1  0  0  0  0
 13 19  1  1  0  0  0
 14 13  1  0  0  0  0
 16 15  1  0  0  0  0
 17 18  1  0  0  0  0
 19 20  1  0  0  0  0
 21 20  1  0  0  0  0
 22  4  1  0  0  0  0
 23 22  1  0  0  0  0
 24 22  1  0  0  0  0
 25  1  1  0  0  0  0
 26 25  1  0  0  0  0
 27 28  1  0  0  0  0
 28 29  2  0  0  0  0
 29 25  1  0  0  0  0
 30 28  1  0  0  0  0
 31 30  1  0  0  0  0
 32 31  1  0  0  0  0
 32 37  2  0  0  0  0
 33 32  1  0  0  0  0
 34 33  2  0  0  0  0
 34 35  1  0  0  0  0
 35 36  2  0  0  0  0
 36 37  1  0  0  0  0
 38 35  1  0  0  0  0
 39 38  1  0  0  0  0
M  END
>  <MODEL>
1

>  <REMARK>
 VINA RESULT:      -1.4      0.000      0.000
  Name = ZINC12320688
                            x       y       z     vdW  Elec       q    Type
                         _______ _______ _______ _____ _____    ______ ____

>  <TORSDO>
F 12

>  <vina_score>
-1.4

$$$$
ZINC18517895
 OpenBabel01081721503D

 36 38  0  0  0  0  0  0  0  0999 V2000
  -30.5110   12.0900  -22.5860 C   0  0  0  0  0  0  0  0  0  0  0  0
  -29.8830   12.6460  -17.7540 N   0  0  0  0  0  0  0  0  0  0  0  0
  -29.5580   12.6190  -19.0760 C   0  0  0  0  0  0  0  0  0  0  0  0
  -28.1980   12.9540  -19.1600 C   0  0  0  0  0  0  0  0  0  0  0  0
  -27.5810   13.0000  -20.4860 C   0  0  0  0  0  0  0  0  0  0  0  0
  -28.3660   12.7150  -21.5510 N   0  0  0  0  0  0  0  0  0  0  0  0
  -27.9860   12.7350  -22.4600 H   0  0  0  0  0  0  0  0  0  0  0  0
  -29.6730   12.4000  -21.3730 C   0  0  0  0  0  0  0  0  0  0  0  0
  -26.4040   13.2850  -20.6270 O   0  0  0  0  0  0  0  0  0  0  0  0
  -27.7390   13.1770  -17.8480 C   0  0  0  0  0  0  0  0  0  0  0  0
  -30.2390   12.3550  -20.2020 N   0  0  0  0  0  0  0  0  0  0  0  0
  -28.7370   12.9940  -17.0270 N   0  0  0  0  0  0  0  0  0  0  0  0
  -33.6400   11.8340  -16.1460 C   0  0  0  0  0  0  0  0  0  0  0  0
  -33.2960   13.1340  -16.4730 C   0  0  0  0  0  0  0  0  0  0  0  0
  -32.0510   13.4060  -17.0060 C   0  0  0  0  0  0  0  0  0  0  0  0
  -31.1460   12.3730  -17.2130 C   0  0  0  0  0  0  0  0  0  0  0  0
  -31.4970   11.0690  -16.8880 C   0  0  0  0  0  0  0  0  0  0  0  0
  -32.7420   10.8040  -16.3510 C   0  0  0  0  0  0  0  0  0  0  0  0
  -31.3030   10.8030  -22.3440 C   0  0  0  0  0  0  0  0  0  0  0  0
  -32.3170   11.0350  -21.2540 C   0  0  0  0  0  0  0  0  0  0  0  0
  -31.9520   11.2000  -20.1140 O   0  0  0  0  0  0  0  0  0  0  0  0
  -33.6260   11.0580  -21.5490 O   0  0  0  0  0  0  0  0  0  0  0  0
  -34.4220   12.1060  -20.9340 C   0  0  0  0  0  0  0  0  0  0  0  0
  -33.7350   13.4340  -21.1230 C   0  0  0  0  0  0  0  0  0  0  0  0
  -32.8850   13.8920  -20.1820 N   0  0  0  0  0  0  0  0  0  0  0  0
  -32.7130   13.3590  -19.3730 H   0  0  0  0  0  0  0  0  0  0  0  0
  -32.2710   15.0800  -20.3510 C   0  0  0  0  0  0  0  0  0  0  0  0
  -31.4210   15.5380  -19.4100 N   0  0  0  0  0  0  0  0  0  0  0  0
  -31.2490   15.0050  -18.6000 H   0  0  0  0  0  0  0  0  0  0  0  0
  -32.4830   15.7380  -21.3500 O   0  0  0  0  0  0  0  0  0  0  0  0
  -33.9470   14.0910  -22.1200 O   0  0  0  0  0  0  0  0  0  0  0  0
  -30.7520   16.8300  -19.5930 C   0  0  0  0  0  0  0  0  0  0  0  0
  -29.2980   16.5970  -20.0040 C   0  0  0  0  0  0  0  0  0  0  0  0
  -29.0680   17.1780  -21.2570 F   0  0  0  0  0  0  0  0  0  0  0  0
  -29.0470   15.2230  -20.0760 F   0  0  0  0  0  0  0  0  0  0  0  0
  -28.4470   17.1770  -19.0570 F   0  0  0  0  0  0  0  0  0  0  0  0
  1 19  1  0  0  0  0
  1  8  1  0  0  0  0
  2 16  1  0  0  0  0
  2 12  1  0  0  0  0
  3  2  1  0  0  0  0
  4  3  2  0  0  0  0
  4 10  1  0  0  0  0
  5  4  1  0  0  0  0
  6  8  1  0  0  0  0
  6  5  1  0  0  0  0
  7  6  1  0  0  0  0
  8 11  2  0  0  0  0
  9  5  2  0  0  0  0
 10 12  2  0  0  0  0
 11  3  1  0  0  0  0
 14 13  2  0  0  0  0
 15 14  1  0  0  0  0
 16 15  2  0  0  0  0
 16 17  1  0  0  0  0
 17 18  2  0  0  0  0
 18 13  1  0  0  0  0
 19 20  1  0  0  0  0
 20 21  2  0  0  0  0
 22 20  1  0  0  0  0
 22 23  1  0  0  0  0
 24 23  1  0  0  0  0
 24 25  1  0  0  0  0
 25 26  1  0  0  0  0
 27 25  1  0  0  0  0
 27 28  1  0  0  0  0
 28 29  1  0  0  0  0
 30 27  2  0  0  0  0
 31 24  2  0  0  0  0
 32 28  1  0  0  0  0
 33 32  1  0  0  0  0
 33 36  1  0  0  0  0
 34 33  1  0  0  0  0
 35 33  1  0  0  0  0
M  END
>  <MODEL>
1

>  <REMARK>
 VINA RESULT:      -1.3      0.000      0.000
  Name = ZINC18517895
                            x       y       z     vdW  Elec       q    Type
                         _______ _______ _______ _____ _____    ______ ____

>  <TORSDO>
F 9

>  <vina_score>
-1.3

$$$$
ZINC15910386
 OpenBabel01081721573D

 31 32  0  0  0  0  0  0  0  0999 V2000
  -30.2480   17.1700  -20.3080 C   0  0  0  0  0  0  0  0  0  0  0  0
  -30.9550   15.8420  -20.3390 C   0  0  0  0  0  0  0  0  0  0  0  0
  -32.3320   15.7900  -20.2660 C   0  0  0  0  0  0  0  0  0  0  0  0
  -32.9850   14.5700  -20.2990 C   0  0  0  0  0  0  0  0  0  0  0  0
  -32.2620   13.3930  -20.3940 C   0  0  0  0  0  0  0  0  0  0  0  0
  -30.8850   13.4310  -20.4670 C   0  0  0  0  0  0  0  0  0  0  0  0
  -30.2210   14.6590  -20.4400 C   0  0  0  0  0  0  0  0  0  0  0  0
  -28.7450   14.7070  -20.5180 C   0  0  0  0  0  0  0  0  0  0  0  0
  -28.0820   13.8170  -21.2810 N   0  0  0  0  0  0  0  0  0  0  0  0
  -28.5800   13.1340  -21.7870 H   0  0  0  0  0  0  0  0  0  0  0  0
  -28.1300   15.5490  -19.8930 O   0  0  0  0  0  0  0  0  0  0  0  0
  -26.6830   13.8610  -21.3550 N   0  0  0  0  0  0  0  0  0  0  0  0
  -26.2430   14.4690  -21.9930 H   0  0  0  0  0  0  0  0  0  0  0  0
  -25.9400   13.0730  -20.5530 C   0  0  0  0  0  0  0  0  0  0  0  0
  -25.2180   11.6530  -21.1790 S   0  0  0  0  0  0  0  0  0  0  0  0
  -25.7640   13.4040  -19.2580 N   0  0  0  0  0  0  0  0  0  0  0  0
  -25.1560   14.1400  -19.0160 H   0  0  0  0  0  0  0  0  0  0  0  0
  -26.4790   12.6700  -18.2120 C   0  0  0  0  0  0  0  0  0  0  0  0
  -27.2040   13.6610  -17.2980 C   0  0  0  0  0  0  0  0  0  0  0  0
  -28.7080   13.3900  -17.3430 C   0  0  0  0  0  0  0  0  0  0  0  0
  -29.4170   14.6310  -17.3150 O   0  0  0  0  0  0  0  0  0  0  0  0
  -28.5920   15.7650  -17.0390 C   0  0  0  0  0  0  0  0  0  0  0  0
  -33.1020   11.8450  -20.4280 S   0  0  0  0  0  0  0  0  0  0  0  0
  -34.4880   12.1380  -20.5460 O   0  0  0  0  0  0  0  0  0  0  0  0
  -32.4130   11.0310  -21.3680 O   0  0  0  0  0  0  0  0  0  0  0  0
  -32.8910   11.1410  -18.9450 N   0  0  0  0  0  0  0  0  0  0  0  0
  -31.5450   10.8270  -18.4400 C   0  0  0  0  0  0  0  0  0  0  0  0
  -31.4190   11.4040  -17.0210 C   0  0  0  0  0  0  0  0  0  0  0  0
  -32.5180   10.9430  -16.2290 O   0  0  0  0  0  0  0  0  0  0  0  0
  -33.7980   11.3760  -16.6950 C   0  0  0  0  0  0  0  0  0  0  0  0
  -34.0450   10.8040  -18.0960 C   0  0  0  0  0  0  0  0  0  0  0  0
  2  1  1  0  0  0  0
  2  3  2  0  0  0  0
  4  3  1  0  0  0  0
  5  4  2  0  0  0  0
  6  7  2  0  0  0  0
  6  5  1  0  0  0  0
  7  2  1  0  0  0  0
  8  7  1  0  0  0  0
  8 11  2  0  0  0  0
  9  8  1  0  0  0  0
 10  9  1  0  0  0  0
 12  9  1  0  0  0  0
 12 14  1  0  0  0  0
 13 12  1  0  0  0  0
 14 16  1  0  0  0  0
 15 14  2  0  0  0  0
 16 17  1  0  0  0  0
 16 18  1  0  0  0  0
 18 19  1  0  0  0  0
 20 21  1  0  0  0  0
 20 19  1  0  0  0  0
 21 22  1  0  0  0  0
 23  5  1  0  0  0  0
 23 26  1  0  0  0  0
 24 23  2  0  0  0  0
 25 23  2  0  0  0  0
 26 27  1  0  0  0  0
 26 31  1  0  0  0  0
 27 28  1  0  0  0  0
 28 29  1  0  0  0  0
 30 29  1  0  0  0  0
 31 30  1  0  0  0  0
M  END
>  <MODEL>
1

>  <REMARK>
 VINA RESULT:      -1.3      0.000      0.000
  Name = ZINC15910386
                            x       y       z     vdW  Elec       q    Type
                         _______ _______ _______ _____ _____    ______ ____

>  <TORSDO>
F 10

>  <vina_score>
-1.3

$$$$
ZINC22754895
 OpenBabel01081721463D

 30 31  0  0  1  0  0  0  0  0999 V2000
  -31.0190   11.7100  -19.1430 C   0  0  0  0  0  0  0  0  0  0  0  0
  -31.1000   12.0210  -20.5010 C   0  0  0  0  0  0  0  0  0  0  0  0
  -29.9770   12.4570  -21.1730 C   0  0  0  0  0  0  0  0  0  0  0  0
  -28.7720   12.5860  -20.5040 C   0  0  0  0  0  0  0  0  0  0  0  0
  -28.6850   12.2740  -19.1580 C   0  0  0  0  0  0  0  0  0  0  0  0
  -29.8030   11.8420  -18.4740 C   0  0  0  0  0  0  0  0  0  0  0  0
  -32.2570   11.2980  -17.0710 N   0  0  0  0  0  0  0  0  0  0  0  0
  -31.4850   11.6510  -16.5710 H   0  0  0  0  0  0  0  0  0  0  0  0
  -32.2200   11.2420  -18.4170 C   0  0  0  0  0  0  0  0  0  0  0  0
  -33.1720   10.8070  -19.0340 O   0  0  0  0  0  0  0  0  0  0  0  0
  -33.4460   10.8350  -16.3510 C   0  0  0  0  0  0  0  0  0  0  0  0
  -34.3050   12.0370  -15.9580 C   0  0  1  0  0  0  0  0  0  0  0  0
  -34.4710   12.0640  -14.4980 N   0  0  0  0  0  0  0  0  0  0  0  0
  -33.6080   11.7220  -14.0780 H   0  0  0  0  0  0  0  0  0  0  0  0
  -35.5630   11.1740  -14.0760 C   0  0  0  0  0  0  0  0  0  0  0  0
  -34.6950   13.4340  -14.0190 C   0  0  0  0  0  0  0  0  0  0  0  0
  -32.1030   13.1640  -16.3070 C   0  0  0  0  0  0  0  0  0  0  0  0
  -33.6210   13.3260  -16.4170 C   0  0  0  0  0  0  0  0  0  0  0  0
  -33.9990   13.6150  -17.8700 C   0  0  0  0  0  0  0  0  0  0  0  0
  -27.3440   13.1450  -21.3690 S   0  0  0  0  0  0  0  0  0  0  0  0
  -26.3860   12.0970  -21.2890 O   0  0  0  0  0  0  0  0  0  0  0  0
  -27.7980   13.6670  -22.6100 O   0  0  0  0  0  0  0  0  0  0  0  0
  -26.7210   14.4210  -20.5180 N   0  0  0  0  0  0  0  0  0  0  0  0
  -27.3770   14.8830  -19.3720 C   0  0  0  0  0  0  0  0  0  0  0  0
  -26.8510   14.6180  -18.1150 C   0  0  0  0  0  0  0  0  0  0  0  0
  -27.5000   15.0760  -16.9840 C   0  0  0  0  0  0  0  0  0  0  0  0
  -28.6720   15.7990  -17.1040 C   0  0  0  0  0  0  0  0  0  0  0  0
  -29.2010   16.0660  -18.3520 C   0  0  0  0  0  0  0  0  0  0  0  0
  -28.5570   15.6100  -19.4890 C   0  0  0  0  0  0  0  0  0  0  0  0
  -29.0700   15.8760  -20.7100 F   0  0  0  0  0  0  0  0  0  0  0  0
  1  6  1  0  0  0  0
  1  9  1  0  0  0  0
  2  1  2  0  0  0  0
  3  4  2  0  0  0  0
  3  2  1  0  0  0  0
  4  5  1  0  0  0  0
  5  6  2  0  0  0  0
  7  8  1  0  0  0  0
  7 11  1  0  0  0  0
  9  7  1  0  0  0  0
 10  9  2  0  0  0  0
 11 12  1  0  0  0  0
 12 18  1  1  0  0  0
 12 13  1  0  0  0  0
 13 14  1  0  0  0  0
 13 15  1  0  0  0  0
 13 16  1  0  0  0  0
 18 17  1  0  0  0  0
 19 18  1  0  0  0  0
 20 21  2  0  0  0  0
 20 23  1  0  0  0  0
 20  4  1  0  0  0  0
 22 20  2  0  0  0  0
 23 24  1  0  0  0  0
 24 25  1  0  0  0  0
 25 26  2  0  0  0  0
 27 26  1  0  0  0  0
 28 27  2  0  0  0  0
 29 24  2  0  0  0  0
 29 28  1  0  0  0  0
 30 29  1  0  0  0  0
M  END
>  <MODEL>
1

>  <REMARK>
 VINA RESULT:      -1.3      0.000      0.000
  Name = ZINC22754895
                            x       y       z     vdW  Elec       q    Type
                         _______ _______ _______ _____ _____    ______ ____

>  <TORSDO>
F 8

>  <vina_score>
-1.3

$$$$
ZINC19848804
 OpenBabel01081721543D

 33 35  0  0  1  0  0  0  0  0999 V2000
  -30.6490   15.4230  -20.2570 N   0  0  0  0  0  0  0  0  0  0  0  0
  -31.7230   14.6510  -20.0530 C   0  0  0  0  0  0  0  0  0  0  0  0
  -31.6360   13.4280  -20.9380 C   0  0  2  0  0  0  0  0  0  0  0  0
  -31.4030   12.1810  -20.0590 C   0  0  1  0  0  0  0  0  0  0  0  0
  -29.9300   12.1140  -19.8840 N   0  0  0  0  0  0  0  0  0  0  0  0
  -29.5970   12.7270  -19.1400 H   0  0  0  0  0  0  0  0  0  0  0  0
  -29.6400   11.1710  -19.6260 H   0  0  0  0  0  0  0  0  0  0  0  0
  -29.3870   12.4890  -21.2140 C   0  0  2  0  0  0  0  0  0  0  0  0
  -30.3010   13.6320  -21.7030 C   0  0  2  0  0  0  0  0  0  0  0  0
  -32.6240   14.8950  -19.2790 O   0  0  0  0  0  0  0  0  0  0  0  0
  -29.7860   14.9470  -21.1620 C   0  0  0  0  0  0  0  0  0  0  0  0
  -28.7520   15.4850  -21.4960 O   0  0  0  0  0  0  0  0  0  0  0  0
  -32.0840   12.3450  -18.7240 C   0  0  0  0  0  0  0  0  0  0  0  0
  -31.3480   12.7170  -17.6150 C   0  0  0  0  0  0  0  0  0  0  0  0
  -31.9700   12.8670  -16.3900 C   0  0  0  0  0  0  0  0  0  0  0  0
  -33.3350   12.6470  -16.2710 C   0  0  0  0  0  0  0  0  0  0  0  0
  -34.0750   12.2750  -17.3830 C   0  0  0  0  0  0  0  0  0  0  0  0
  -33.4500   12.1290  -18.6120 C   0  0  0  0  0  0  0  0  0  0  0  0
  -33.9450   12.7960  -15.0670 O   0  0  0  0  0  0  0  0  0  0  0  0
  -34.8710   11.7790  -14.6790 C   0  0  0  0  0  0  0  0  0  0  0  0
  -34.1740   11.7700  -19.7050 O   0  0  0  0  0  0  0  0  0  0  0  0
  -34.0290   10.9370  -20.1100 H   0  0  0  0  0  0  0  0  0  0  0  0
  -29.4580   11.3170  -22.1590 C   0  0  0  0  0  0  0  0  0  0  0  0
  -30.6500   10.8050  -22.5040 O   0  0  0  0  0  0  0  0  0  0  0  0
  -28.4420   10.8380  -22.6050 O   0  0  0  0  0  0  0  0  0  0  0  0
  -30.4350   16.6860  -19.5460 C   0  0  0  0  0  0  0  0  0  0  0  0
  -29.0790   16.6500  -18.8390 C   0  0  0  0  0  0  0  0  0  0  0  0
  -27.5730   15.1180  -17.5620 C   0  0  0  0  0  0  0  0  0  0  0  0
  -29.0300   15.4500  -17.8900 C   0  0  0  0  0  0  0  0  0  0  0  0
  -27.9440   12.9800  -21.0820 C   0  0  0  0  0  0  0  0  0  0  0  0
  -27.2890   12.3180  -19.8680 C   0  0  0  0  0  0  0  0  0  0  0  0
  -28.0690   12.6870  -18.6040 C   0  0  0  0  0  0  0  0  0  0  0  0
  -25.8450   12.8060  -19.7370 C   0  0  0  0  0  0  0  0  0  0  0  0
  1  2  1  0  0  0  0
  1 26  1  0  0  0  0
  2 10  2  0  0  0  0
  3  4  1  0  0  0  0
  3  2  1  1  0  0  0
  4  5  1  0  0  0  0
  4 13  1  1  0  0  0
  5  7  1  0  0  0  0
  5  6  1  0  0  0  0
  8 23  1  6  0  0  0
  8 30  1  0  0  0  0
  8  5  1  0  0  0  0
  9  8  1  0  0  0  0
  9 11  1  1  0  0  0
  9  3  1  0  0  0  0
 11  1  1  0  0  0  0
 12 11  2  0  0  0  0
 13 18  2  0  0  0  0
 13 14  1  0  0  0  0
 14 15  2  0  0  0  0
 15 16  1  0  0  0  0
 16 19  1  0  0  0  0
 17 16  2  0  0  0  0
 18 17  1  0  0  0  0
 19 20  1  0  0  0  0
 21 18  1  0  0  0  0
 22 21  1  0  0  0  0
 24 23  1  0  0  0  0
 25 23  2  0  0  0  0
 26 27  1  0  0  0  0
 27 29  1  0  0  0  0
 29 28  1  0  0  0  0
 30 31  1  0  0  0  0
 31 33  1  0  0  0  0
 31 32  1  0  0  0  0
M  END
>  <MODEL>
1

>  <REMARK>
 VINA RESULT:      -0.9      0.000      0.000
  Name = ZINC19848804
                            x       y       z     vdW  Elec       q    Type
                         _______ _______ _______ _____ _____    ______ ____

>  <TORSDO>
F 9

>  <vina_score>
-0.9

$$$$
ZINC09915296
 OpenBabel01081721363D

 26 27  0  0  0  0  0  0  0  0999 V2000
  -30.4430   12.6260  -17.6570 C   0  0  0  0  0  0  0  0  0  0  0  0
  -30.3720   13.8590  -18.1990 N   0  0  0  0  0  0  0  0  0  0  0  0
  -31.1680   14.4370  -18.2120 H   0  0  0  0  0  0  0  0  0  0  0  0
  -29.4860   11.8810  -17.7150 O   0  0  0  0  0  0  0  0  0  0  0  0
  -29.1670   14.3150  -18.7410 C   0  0  0  0  0  0  0  0  0  0  0  0
  -28.2760   15.0310  -17.9510 C   0  0  0  0  0  0  0  0  0  0  0  0
  -27.0840   15.4770  -18.4870 C   0  0  0  0  0  0  0  0  0  0  0  0
  -26.7800   15.2190  -19.8140 C   0  0  0  0  0  0  0  0  0  0  0  0
  -25.6160   15.6590  -20.3370 F   0  0  0  0  0  0  0  0  0  0  0  0
  -27.6690   14.5100  -20.6040 C   0  0  0  0  0  0  0  0  0  0  0  0
  -28.8600   14.0570  -20.0700 C   0  0  0  0  0  0  0  0  0  0  0  0
  -27.3420   14.2350  -22.0210 N   0  0  0  0  0  0  0  0  0  0  0  0
  -26.5100   14.9140  -22.5960 O   0  0  0  0  0  0  0  0  0  0  0  0
  -27.9050   13.3320  -22.6120 O   0  0  0  0  0  0  0  0  0  0  0  0
  -32.5710   13.0910  -16.5110 N   0  0  0  0  0  0  0  0  0  0  0  0
  -32.3830   14.0510  -16.6140 H   0  0  0  0  0  0  0  0  0  0  0  0
  -31.6970   12.1790  -16.9810 C   0  0  0  0  0  0  0  0  0  0  0  0
  -31.9280   10.9930  -16.8530 O   0  0  0  0  0  0  0  0  0  0  0  0
  -36.4630   10.8730  -13.2380 C   0  0  0  0  0  0  0  0  0  0  0  0
  -35.2080   11.3020  -13.8900 N   0  0  0  0  0  0  0  0  0  0  0  0
  -34.4170   10.9160  -13.3760 H   0  0  0  0  0  0  0  0  0  0  0  0
  -35.1130   12.7780  -13.8820 C   0  0  0  0  0  0  0  0  0  0  0  0
  -33.7820   13.1910  -14.5140 C   0  0  0  0  0  0  0  0  0  0  0  0
  -33.7180   12.6810  -15.8910 N   0  0  0  0  0  0  0  0  0  0  0  0
  -33.8350   11.2160  -15.9130 C   0  0  0  0  0  0  0  0  0  0  0  0
  -35.1660   10.8030  -15.2810 C   0  0  0  0  0  0  0  0  0  0  0  0
  1 17  1  0  0  0  0
  2  1  1  0  0  0  0
  3  2  1  0  0  0  0
  4  1  2  0  0  0  0
  5  2  1  0  0  0  0
  5  6  2  0  0  0  0
  7  6  1  0  0  0  0
  8  7  2  0  0  0  0
  9  8  1  0  0  0  0
 10 11  2  0  0  0  0
 10  8  1  0  0  0  0
 11  5  1  0  0  0  0
 12 10  1  0  0  0  0
 13 12  2  0  0  0  0
 14 12  2  0  0  0  0
 15 24  1  0  0  0  0
 16 15  1  0  0  0  0
 17 18  2  0  0  0  0
 17 15  1  0  0  0  0
 20 22  1  0  0  0  0
 20 21  1  0  0  0  0
 20 19  1  0  0  0  0
 23 22  1  0  0  0  0
 24 23  1  0  0  0  0
 25 24  1  0  0  0  0
 25 26  1  0  0  0  0
 26 20  1  0  0  0  0
M  END
>  <MODEL>
1

>  <REMARK>
 VINA RESULT:      -0.6      0.000      0.000
  Name = ZINC09915296
                            x       y       z     vdW  Elec       q    Type
                         _______ _______ _______ _____ _____    ______ ____

>  <TORSDO>
F 4

>  <vina_score>
-0.6

$$$$
ZINC29839654
 OpenBabel01081721533D

 29 29  0  0  0  0  0  0  0  0999 V2000
  -26.9630   13.1110  -18.8990 C   0  0  0  0  0  0  0  0  0  0  0  0
  -27.9860   12.2590  -19.1120 N   0  0  0  0  0  0  0  0  0  0  0  0
  -27.9070   11.5570  -19.7970 H   0  0  0  0  0  0  0  0  0  0  0  0
  -29.1160   12.3690  -18.3870 C   0  0  0  0  0  0  0  0  0  0  0  0
  -30.1390   11.5160  -18.5990 N   0  0  0  0  0  0  0  0  0  0  0  0
  -30.0320   10.7670  -19.2280 H   0  0  0  0  0  0  0  0  0  0  0  0
  -29.2140   13.2360  -17.5410 O   0  0  0  0  0  0  0  0  0  0  0  0
  -27.0600   13.9750  -18.0550 O   0  0  0  0  0  0  0  0  0  0  0  0
  -31.3540   11.6980  -17.9250 C   0  0  0  0  0  0  0  0  0  0  0  0
  -31.4050   11.5770  -16.5430 C   0  0  0  0  0  0  0  0  0  0  0  0
  -32.6030   11.7560  -15.8770 C   0  0  0  0  0  0  0  0  0  0  0  0
  -33.7530   12.0630  -16.5850 C   0  0  0  0  0  0  0  0  0  0  0  0
  -33.7050   12.1790  -17.9720 C   0  0  0  0  0  0  0  0  0  0  0  0
  -32.5050   12.0000  -18.6390 C   0  0  0  0  0  0  0  0  0  0  0  0
  -34.9300   12.2450  -15.9280 O   0  0  0  0  0  0  0  0  0  0  0  0
  -34.8540   12.7400  -14.5890 C   0  0  0  0  0  0  0  0  0  0  0  0
  -35.5730   11.7720  -13.6470 C   0  0  0  0  0  0  0  0  0  0  0  0
  -34.8350   12.4740  -18.6690 O   0  0  0  0  0  0  0  0  0  0  0  0
  -34.7830   12.3110  -20.0880 C   0  0  0  0  0  0  0  0  0  0  0  0
  -34.5100   10.8440  -20.4230 C   0  0  0  0  0  0  0  0  0  0  0  0
  -25.6990   12.9870  -19.7100 C   0  0  0  0  0  0  0  0  0  0  0  0
  -26.0080   13.1990  -21.1320 N   0  0  0  0  0  0  0  0  0  0  0  0
  -25.1630   12.9960  -21.6680 H   0  0  0  0  0  0  0  0  0  0  0  0
  -25.2150   15.5120  -21.0020 C   0  0  0  0  0  0  0  0  0  0  0  0
  -26.3790   14.5980  -21.3860 C   0  0  0  0  0  0  0  0  0  0  0  0
  -27.0630   12.2830  -21.5840 C   0  0  0  0  0  0  0  0  0  0  0  0
  -28.1160   13.0670  -22.3700 C   0  0  0  0  0  0  0  0  0  0  0  0
  -29.4140   12.7780  -21.8460 O   0  0  0  0  0  0  0  0  0  0  0  0
  -29.7020   13.5080  -21.2760 H   0  0  0  0  0  0  0  0  0  0  0  0
  1  8  2  0  0  0  0
  2  1  1  0  0  0  0
  2  4  1  0  0  0  0
  3  2  1  0  0  0  0
  4  7  2  0  0  0  0
  5  4  1  0  0  0  0
  5  9  1  0  0  0  0
  6  5  1  0  0  0  0
  9 10  2  0  0  0  0
 10 11  1  0  0  0  0
 12 15  1  0  0  0  0
 12 11  2  0  0  0  0
 13 12  1  0  0  0  0
 14 13  2  0  0  0  0
 14  9  1  0  0  0  0
 15 16  1  0  0  0  0
 16 17  1  0  0  0  0
 18 13  1  0  0  0  0
 19 18  1  0  0  0  0
 20 19  1  0  0  0  0
 21  1  1  0  0  0  0
 22 21  1  0  0  0  0
 23 22  1  0  0  0  0
 25 22  1  0  0  0  0
 25 24  1  0  0  0  0
 26 22  1  0  0  0  0
 27 28  1  0  0  0  0
 27 26  1  0  0  0  0
 28 29  1  0  0  0  0
M  END
>  <MODEL>
1

>  <REMARK>
 VINA RESULT:      -0.6      0.000      0.000
  Name = ZINC29839654
                            x       y       z     vdW  Elec       q    Type
                         _______ _______ _______ _____ _____    ______ ____

>  <TORSDO>
F 11

>  <vina_score>
-0.6

$$$$
ZINC31217234
 OpenBabel01081721393D

 27 28  0  0  0  0  0  0  0  0999 V2000
  -30.1710   14.0070  -18.2400 C   0  0  0  0  0  0  0  0  0  0  0  0
  -31.2440   14.2630  -19.0950 C   0  0  0  0  0  0  0  0  0  0  0  0
  -32.4720   13.6880  -18.8470 C   0  0  0  0  0  0  0  0  0  0  0  0
  -32.6430   12.8590  -17.7530 C   0  0  0  0  0  0  0  0  0  0  0  0
  -31.5850   12.6060  -16.8980 C   0  0  0  0  0  0  0  0  0  0  0  0
  -30.3490   13.1700  -17.1380 C   0  0  0  0  0  0  0  0  0  0  0  0
  -27.8280   13.8600  -18.9380 N   0  0  0  0  0  0  0  0  0  0  0  0
  -27.9600   12.8950  -19.0830 H   0  0  0  0  0  0  0  0  0  0  0  0
  -28.8500   14.6200  -18.5000 C   0  0  0  0  0  0  0  0  0  0  0  0
  -28.6880   15.8120  -18.3200 O   0  0  0  0  0  0  0  0  0  0  0  0
  -26.5210   14.4670  -19.1960 C   0  0  0  0  0  0  0  0  0  0  0  0
  -26.1850   14.3440  -20.6830 C   0  0  0  0  0  0  0  0  0  0  0  0
  -26.8000   13.0600  -21.2410 C   0  0  0  0  0  0  0  0  0  0  0  0
  -28.1690   13.3280  -21.6890 N   0  0  0  0  0  0  0  0  0  0  0  0
  -28.5850   13.9590  -21.0040 H   0  0  0  0  0  0  0  0  0  0  0  0
  -29.6030   11.4970  -20.2190 C   0  0  0  0  0  0  0  0  0  0  0  0
  -29.2330   12.0760  -21.8980 S   0  0  0  0  0  0  0  0  0  0  0  0
  -28.4980   11.0890  -22.6060 O   0  0  0  0  0  0  0  0  0  0  0  0
  -30.3860   12.6730  -22.4740 O   0  0  0  0  0  0  0  0  0  0  0  0
  -34.2160   12.1280  -17.4420 S   0  0  0  0  0  0  0  0  0  0  0  0
  -35.1920   13.0670  -17.8700 O   0  0  0  0  0  0  0  0  0  0  0  0
  -34.1560   10.8040  -17.9530 O   0  0  0  0  0  0  0  0  0  0  0  0
  -34.3770   11.9940  -15.7990 N   0  0  0  0  0  0  0  0  0  0  0  0
  -34.8740   10.8130  -15.0800 C   0  0  0  0  0  0  0  0  0  0  0  0
  -34.8710   11.1550  -13.5750 C   0  0  0  0  0  0  0  0  0  0  0  0
  -34.9150   12.7070  -13.5750 C   0  0  0  0  0  0  0  0  0  0  0  0
  -34.0500   13.0420  -14.8150 C   0  0  0  0  0  0  0  0  0  0  0  0
  1  6  2  0  0  0  0
  2  3  2  0  0  0  0
  2  1  1  0  0  0  0
  3  4  1  0  0  0  0
  4 20  1  0  0  0  0
  4  5  2  0  0  0  0
  6  5  1  0  0  0  0
  7  9  1  0  0  0  0
  8  7  1  0  0  0  0
  9 10  2  0  0  0  0
  9  1  1  0  0  0  0
 11  7  1  0  0  0  0
 12 11  1  0  0  0  0
 13 12  1  0  0  0  0
 14 13  1  0  0  0  0
 14 15  1  0  0  0  0
 17 14  1  0  0  0  0
 17 16  1  0  0  0  0
 18 17  2  0  0  0  0
 19 17  2  0  0  0  0
 20 23  1  0  0  0  0
 21 20  2  0  0  0  0
 22 20  2  0  0  0  0
 23 24  1  0  0  0  0
 23 27  1  0  0  0  0
 24 25  1  0  0  0  0
 25 26  1  0  0  0  0
 27 26  1  0  0  0  0
M  END
>  <MODEL>
1

>  <REMARK>
 VINA RESULT:      -0.5      0.000      0.000
  Name = ZINC31217234
                            x       y       z     vdW  Elec       q    Type
                         _______ _______ _______ _____ _____    ______ ____

>  <TORSDO>
F 8

>  <vina_score>
-0.5

$$$$
ZINC02905111
 OpenBabel01081721483D

 28 29  0  0  0  0  0  0  0  0999 V2000
  -32.5570   13.1540  -18.8070 N   0  0  0  0  0  0  0  0  0  0  0  0
  -32.0410   13.9060  -18.4350 H   0  0  0  0  0  0  0  0  0  0  0  0
  -32.0170   12.3750  -19.7650 C   0  0  0  0  0  0  0  0  0  0  0  0
  -32.6540   11.4490  -20.2220 O   0  0  0  0  0  0  0  0  0  0  0  0
  -30.6370   12.6500  -20.2620 C   0  0  0  0  0  0  0  0  0  0  0  0
  -29.7330   13.2350  -19.4510 N   0  0  0  0  0  0  0  0  0  0  0  0
  -29.9630   13.4210  -18.5120 H   0  0  0  0  0  0  0  0  0  0  0  0
  -30.3280   12.3470  -21.3970 O   0  0  0  0  0  0  0  0  0  0  0  0
  -28.4690   13.5770  -19.9430 C   0  0  0  0  0  0  0  0  0  0  0  0
  -27.4560   12.6290  -19.9770 C   0  0  0  0  0  0  0  0  0  0  0  0
  -26.2070   12.9700  -20.4700 C   0  0  0  0  0  0  0  0  0  0  0  0
  -25.9660   14.2600  -20.9210 C   0  0  0  0  0  0  0  0  0  0  0  0
  -26.9720   15.2080  -20.8850 C   0  0  0  0  0  0  0  0  0  0  0  0
  -28.2240   14.8710  -20.3970 C   0  0  0  0  0  0  0  0  0  0  0  0
  -25.2140   12.0410  -20.5080 O   0  0  0  0  0  0  0  0  0  0  0  0
  -25.2130   11.1380  -21.6150 C   0  0  0  0  0  0  0  0  0  0  0  0
  -29.2140   15.8040  -20.3630 O   0  0  0  0  0  0  0  0  0  0  0  0
  -29.3090   16.6040  -19.1830 C   0  0  0  0  0  0  0  0  0  0  0  0
  -33.8520   12.8960  -18.3400 N   0  0  0  0  0  0  0  0  0  0  0  0
  -34.6280   13.0700  -18.9210 H   0  0  0  0  0  0  0  0  0  0  0  0
  -34.8700   10.8160  -13.2510 C   0  0  0  0  0  0  0  0  0  0  0  0
  -34.7760   11.2420  -14.6630 N   0  0  0  0  0  0  0  0  0  0  0  0
  -35.5400   10.8170  -15.1880 H   0  0  0  0  0  0  0  0  0  0  0  0
  -34.8850   12.7110  -14.7560 C   0  0  0  0  0  0  0  0  0  0  0  0
  -34.6340   13.1490  -16.1700 C   0  0  0  0  0  0  0  0  0  0  0  0
  -34.0420   12.3930  -17.0590 C   0  0  0  0  0  0  0  0  0  0  0  0
  -33.5600   11.0030  -16.7530 C   0  0  0  0  0  0  0  0  0  0  0  0
  -33.4900   10.8030  -15.2360 C   0  0  0  0  0  0  0  0  0  0  0  0
  1  2  1  0  0  0  0
  1 19  1  0  0  0  0
  3  1  1  0  0  0  0
  4  3  2  0  0  0  0
  5  3  1  0  0  0  0
  5  6  1  0  0  0  0
  6  7  1  0  0  0  0
  8  5  2  0  0  0  0
  9  6  1  0  0  0  0
 10  9  1  0  0  0  0
 11 10  2  0  0  0  0
 12 13  2  0  0  0  0
 12 11  1  0  0  0  0
 13 14  1  0  0  0  0
 14 17  1  0  0  0  0
 14  9  2  0  0  0  0
 15 11  1  0  0  0  0
 16 15  1  0  0  0  0
 17 18  1  0  0  0  0
 19 26  1  0  0  0  0
 20 19  1  0  0  0  0
 22 21  1  0  0  0  0
 23 22  1  0  0  0  0
 24 22  1  0  0  0  0
 25 24  1  0  0  0  0
 26 27  1  0  0  0  0
 26 25  2  0  0  0  0
 27 28  1  0  0  0  0
 28 22  1  0  0  0  0
M  END
>  <MODEL>
1

>  <REMARK>
 VINA RESULT:      -0.4      0.000      0.000
  Name = ZINC02905111
                            x       y       z     vdW  Elec       q    Type
                         _______ _______ _______ _____ _____    ______ ____

>  <TORSDO>
F 6

>  <vina_score>
-0.4

$$$$
ZINC16298324
 OpenBabel01081721523D

 34 36  0  0  0  0  0  0  0  0999 V2000
  -29.2230   14.9520  -18.0870 C   0  0  0  0  0  0  0  0  0  0  0  0
  -28.1480   14.2260  -17.7200 N   0  0  0  0  0  0  0  0  0  0  0  0
  -28.2090   13.6080  -16.9560 H   0  0  0  0  0  0  0  0  0  0  0  0
  -29.1480   15.7130  -19.0280 O   0  0  0  0  0  0  0  0  0  0  0  0
  -30.5180   14.8180  -17.3280 C   0  0  0  0  0  0  0  0  0  0  0  0
  -31.3500   13.7890  -17.9570 N   0  0  0  0  0  0  0  0  0  0  0  0
  -32.3120   14.1250  -17.9190 H   0  0  0  0  0  0  0  0  0  0  0  0
  -31.3570   12.2470  -17.3530 S   0  0  0  0  0  0  0  0  0  0  0  0
  -30.1760   12.1090  -16.5760 O   0  0  0  0  0  0  0  0  0  0  0  0
  -31.6570   11.3860  -18.4430 O   0  0  0  0  0  0  0  0  0  0  0  0
  -35.9990   11.8570  -13.5180 C   0  0  0  0  0  0  0  0  0  0  0  0
  -34.8400   11.9550  -14.4760 C   0  0  0  0  0  0  0  0  0  0  0  0
  -34.2260   10.8050  -14.9390 C   0  0  0  0  0  0  0  0  0  0  0  0
  -33.1630   10.8940  -15.8170 C   0  0  0  0  0  0  0  0  0  0  0  0
  -32.7130   12.1330  -16.2340 C   0  0  0  0  0  0  0  0  0  0  0  0
  -33.3230   13.2830  -15.7680 C   0  0  0  0  0  0  0  0  0  0  0  0
  -34.3900   13.1940  -14.8930 C   0  0  0  0  0  0  0  0  0  0  0  0
  -26.8890   14.3560  -18.4580 C   0  0  0  0  0  0  0  0  0  0  0  0
  -27.0360   13.7240  -19.8180 C   0  0  0  0  0  0  0  0  0  0  0  0
  -27.4400   14.4670  -20.8670 N   0  0  0  0  0  0  0  0  0  0  0  0
  -27.6370   15.4240  -20.7440 H   0  0  0  0  0  0  0  0  0  0  0  0
  -26.7920   12.5450  -19.9680 O   0  0  0  0  0  0  0  0  0  0  0  0
  -27.5820   13.8530  -22.1880 C   0  0  0  0  0  0  0  0  0  0  0  0
  -28.6700   12.8110  -22.1430 C   0  0  0  0  0  0  0  0  0  0  0  0
  -28.5290   11.5140  -22.4770 C   0  0  0  0  0  0  0  0  0  0  0  0
  -29.7840   10.9000  -22.2890 C   0  0  0  0  0  0  0  0  0  0  0  0
  -30.6310   11.8670  -21.8470 C   0  0  0  0  0  0  0  0  0  0  0  0
  -29.9400   13.0190  -21.7560 O   0  0  0  0  0  0  0  0  0  0  0  0
  -32.0600   11.6840  -21.5150 C   0  0  0  0  0  0  0  0  0  0  0  0
  -32.8430   10.8070  -22.2200 C   0  0  0  0  0  0  0  0  0  0  0  0
  -34.4070   11.0180  -21.3830 S   0  0  0  0  0  0  0  0  0  0  0  0
  -33.8940   12.2100  -20.2320 C   0  0  0  0  0  0  0  0  0  0  0  0
  -34.6990   12.8930  -19.1580 C   0  0  0  0  0  0  0  0  0  0  0  0
  -32.6270   12.3670  -20.5320 N   0  0  0  0  0  0  0  0  0  0  0  0
  1  2  1  0  0  0  0
  1  5  1  0  0  0  0
  2  3  1  0  0  0  0
  4  1  2  0  0  0  0
  6  7  1  0  0  0  0
  6  8  1  0  0  0  0
  6  5  1  0  0  0  0
  8  9  2  0  0  0  0
  8 15  1  0  0  0  0
 10  8  2  0  0  0  0
 12 11  1  0  0  0  0
 13 12  2  0  0  0  0
 14 13  1  0  0  0  0
 15 14  2  0  0  0  0
 15 16  1  0  0  0  0
 16 17  2  0  0  0  0
 17 12  1  0  0  0  0
 18  2  1  0  0  0  0
 19 18  1  0  0  0  0
 20 21  1  0  0  0  0
 20 19  1  0  0  0  0
 22 19  2  0  0  0  0
 23 24  1  0  0  0  0
 23 20  1  0  0  0  0
 24 28  1  0  0  0  0
 25 26  1  0  0  0  0
 25 24  2  0  0  0  0
 26 27  2  0  0  0  0
 27 28  1  0  0  0  0
 27 29  1  0  0  0  0
 29 34  1  0  0  0  0
 30 29  2  0  0  0  0
 30 31  1  0  0  0  0
 31 32  1  0  0  0  0
 32 33  1  0  0  0  0
 34 32  2  0  0  0  0
M  END
>  <MODEL>
1

>  <REMARK>
 VINA RESULT:      -0.2      0.000      0.000
  Name = ZINC16298324
                            x       y       z     vdW  Elec       q    Type
                         _______ _______ _______ _____ _____    ______ ____

>  <TORSDO>
F 9

>  <vina_score>
-0.2

$$$$
ZINC02441083
 OpenBabel01081721573D

 40 43  0  0  1  0  0  0  0  0999 V2000
  -30.1990   12.3340  -17.6890 C   0  0  0  0  0  0  0  0  0  0  0  0
  -30.1710   13.3130  -16.8190 N   0  0  0  0  0  0  0  0  0  0  0  0
  -29.2330   14.2190  -17.1920 C   0  0  0  0  0  0  0  0  0  0  0  0
  -28.7730   15.4360  -16.6610 C   0  0  0  0  0  0  0  0  0  0  0  0
  -27.8100   16.0850  -17.3070 N   0  0  0  0  0  0  0  0  0  0  0  0
  -27.2910   15.6050  -18.4220 C   0  0  0  0  0  0  0  0  0  0  0  0
  -27.6910   14.4700  -18.9550 N   0  0  0  0  0  0  0  0  0  0  0  0
  -28.6490   13.7520  -18.3810 C   0  0  0  0  0  0  0  0  0  0  0  0
  -29.2760   12.5620  -18.6720 N   0  0  0  0  0  0  0  0  0  0  0  0
  -29.0040   11.6990  -19.8240 C   0  0  2  0  0  0  0  0  0  0  0  0
  -28.3950   12.5190  -20.9900 C   0  0  2  0  0  0  0  0  0  0  0  0
  -28.7740   11.6620  -22.2220 C   0  0  2  0  0  0  0  0  0  0  0  0
  -29.9570   10.8030  -21.7350 C   0  0  1  0  0  0  0  0  0  0  0  0
  -30.2350   11.1880  -20.3800 O   0  0  0  0  0  0  0  0  0  0  0  0
  -26.9760   12.6190  -20.8550 O   0  0  0  0  0  0  0  0  0  0  0  0
  -26.6030   13.0230  -21.6530 H   0  0  0  0  0  0  0  0  0  0  0  0
  -27.6790   10.8320  -22.6130 O   0  0  0  0  0  0  0  0  0  0  0  0
  -26.8940   11.3810  -22.7630 H   0  0  0  0  0  0  0  0  0  0  0  0
  -31.1840   11.0620  -22.6130 C   0  0  0  0  0  0  0  0  0  0  0  0
  -32.3710   10.8070  -21.8590 O   0  0  0  0  0  0  0  0  0  0  0  0
  -32.7250    9.9360  -22.0980 H   0  0  0  0  0  0  0  0  0  0  0  0
  -29.3110   15.9460  -15.4910 N   0  0  0  0  0  0  0  0  0  0  0  0
  -28.8600   16.6860  -15.0230 H   0  0  0  0  0  0  0  0  0  0  0  0
  -30.1450   15.5710  -15.1270 H   0  0  0  0  0  0  0  0  0  0  0  0
  -31.0350   11.2380  -17.6240 N   0  0  0  0  0  0  0  0  0  0  0  0
  -30.9400   10.5060  -18.2770 H   0  0  0  0  0  0  0  0  0  0  0  0
  -32.0200   11.1660  -16.6300 N   0  0  0  0  0  0  0  0  0  0  0  0
  -31.8680   10.6190  -15.8260 H   0  0  0  0  0  0  0  0  0  0  0  0
  -33.2110   11.8650  -16.7810 C   0  0  0  0  0  0  0  0  0  0  0  0
  -33.4480   12.9330  -16.0420 C   0  0  0  0  0  0  0  0  0  0  0  0
  -34.2330   11.4050  -17.7890 C   0  0  0  0  0  0  0  0  0  0  0  0
  -33.7030   11.5530  -19.1070 O   0  0  0  0  0  0  0  0  0  0  0  0
  -32.5020   15.3370  -20.2280 C   0  0  0  0  0  0  0  0  0  0  0  0
  -32.8770   14.4190  -21.1910 C   0  0  0  0  0  0  0  0  0  0  0  0
  -33.2800   13.1510  -20.8180 C   0  0  0  0  0  0  0  0  0  0  0  0
  -33.3070   12.8000  -19.4760 C   0  0  0  0  0  0  0  0  0  0  0  0
  -32.9350   13.7250  -18.5110 C   0  0  0  0  0  0  0  0  0  0  0  0
  -32.5280   14.9890  -18.8900 C   0  0  0  0  0  0  0  0  0  0  0  0
  -30.5890   16.9150  -20.2740 C   0  0  0  0  0  0  0  0  0  0  0  0
  -32.0620   16.7200  -20.6380 C   0  0  0  0  0  0  0  0  0  0  0  0
  1 25  1  0  0  0  0
  1  2  2  0  0  0  0
  3  2  1  0  0  0  0
  3  4  1  0  0  0  0
  4 22  1  0  0  0  0
  5  4  2  0  0  0  0
  6  5  1  0  0  0  0
  7  6  2  0  0  0  0
  7  8  1  0  0  0  0
  8  3  2  0  0  0  0
  9  8  1  0  0  0  0
  9  1  1  0  0  0  0
 10  9  1  1  0  0  0
 11 15  1  1  0  0  0
 11 10  1  0  0  0  0
 12 17  1  1  0  0  0
 12 13  1  0  0  0  0
 12 11  1  0  0  0  0
 13 19  1  6  0  0  0
 13 14  1  0  0  0  0
 14 10  1  0  0  0  0
 16 15  1  0  0  0  0
 18 17  1  0  0  0  0
 19 20  1  0  0  0  0
 21 20  1  0  0  0  0
 22 24  1  0  0  0  0
 22 23  1  0  0  0  0
 25 27  1  0  0  0  0
 26 25  1  0  0  0  0
 27 28  1  0  0  0  0
 29 27  1  0  0  0  0
 29 30  2  0  0  0  0
 31 29  1  0  0  0  0
 32 31  1  0  0  0  0
 33 38  2  0  0  0  0
 34 35  2  0  0  0  0
 34 33  1  0  0  0  0
 35 36  1  0  0  0  0
 36 32  1  0  0  0  0
 36 37  2  0  0  0  0
 38 37  1  0  0  0  0
 40 39  1  0  0  0  0
 40 33  1  0  0  0  0
M  END
>  <MODEL>
1

>  <REMARK>
 VINA RESULT:      -0.1      0.000      0.000
  Name = ZINC02441083
                            x       y       z     vdW  Elec       q    Type
                         _______ _______ _______ _____ _____    ______ ____

>  <TORSDO>
F 13

>  <vina_score>
-0.1

$$$$
ZINC17255921
 OpenBabel01081721503D

 35 37  0  0  1  0  0  0  0  0999 V2000
  -29.4730   11.7330  -21.3910 C   0  0  0  0  0  0  0  0  0  0  0  0
  -30.0620   11.3480  -22.5890 C   0  0  0  0  0  0  0  0  0  0  0  0
  -31.3620   10.8800  -22.6070 C   0  0  0  0  0  0  0  0  0  0  0  0
  -32.0900   10.8030  -21.4360 C   0  0  0  0  0  0  0  0  0  0  0  0
  -31.5090   11.1930  -20.2280 C   0  0  0  0  0  0  0  0  0  0  0  0
  -30.1940   11.6600  -20.2100 C   0  0  0  0  0  0  0  0  0  0  0  0
  -27.8800   13.4510  -21.8020 C   0  0  0  0  0  0  0  0  0  0  0  0
  -28.1550   12.2010  -21.3780 N   0  0  0  0  0  0  0  0  0  0  0  0
  -27.4280   11.6180  -21.0610 H   0  0  0  0  0  0  0  0  0  0  0  0
  -28.7610   14.1400  -22.2710 O   0  0  0  0  0  0  0  0  0  0  0  0
  -26.4800   13.9950  -21.6860 C   0  0  0  0  0  0  0  0  0  0  0  0
  -28.0850   14.3700  -18.3040 C   0  0  0  0  0  0  0  0  0  0  0  0
  -27.2180   13.3730  -18.3790 N   0  0  0  0  0  0  0  0  0  0  0  0
  -26.2670   13.2910  -19.2720 C   0  0  0  0  0  0  0  0  0  0  0  0
  -26.2300   14.4590  -20.2490 C   0  0  2  0  0  0  0  0  0  0  0  0
  -25.4820   12.3640  -19.3190 O   0  0  0  0  0  0  0  0  0  0  0  0
  -27.6460   15.4340  -19.6040 S   0  0  0  0  0  0  0  0  0  0  0  0
  -29.1000   14.5260  -17.4060 N   0  0  0  0  0  0  0  0  0  0  0  0
  -28.5220   16.4340  -15.9910 C   0  0  0  0  0  0  0  0  0  0  0  0
  -28.8050   14.9310  -16.0300 C   0  0  0  0  0  0  0  0  0  0  0  0
  -30.4860   14.2880  -17.8180 C   0  0  0  0  0  0  0  0  0  0  0  0
  -30.7020   14.8500  -19.2250 C   0  0  0  0  0  0  0  0  0  0  0  0
  -32.2850   11.1120  -18.9720 C   0  0  0  0  0  0  0  0  0  0  0  0
  -31.6900   11.3790  -17.7930 N   0  0  0  0  0  0  0  0  0  0  0  0
  -30.7380   11.6270  -17.7680 H   0  0  0  0  0  0  0  0  0  0  0  0
  -33.4620   10.8040  -19.0030 O   0  0  0  0  0  0  0  0  0  0  0  0
  -32.4250   11.3010  -16.6030 N   0  0  0  0  0  0  0  0  0  0  0  0
  -32.1760   10.6440  -15.9130 H   0  0  0  0  0  0  0  0  0  0  0  0
  -33.4740   12.1230  -16.4040 C   0  0  0  0  0  0  0  0  0  0  0  0
  -33.7820   12.9340  -17.2580 O   0  0  0  0  0  0  0  0  0  0  0  0
  -34.2440   12.0420  -15.1590 C   0  0  0  0  0  0  0  0  0  0  0  0
  -34.7010   10.8970  -14.5710 C   0  0  0  0  0  0  0  0  0  0  0  0
  -35.3810   11.2860  -13.4060 C   0  0  0  0  0  0  0  0  0  0  0  0
  -35.3100   12.6330  -13.3340 C   0  0  0  0  0  0  0  0  0  0  0  0
  -34.6200   13.0850  -14.3900 O   0  0  0  0  0  0  0  0  0  0  0  0
  1  8  1  0  0  0  0
  1  6  2  0  0  0  0
  2  1  1  0  0  0  0
  3  2  2  0  0  0  0
  3  4  1  0  0  0  0
  4  5  2  0  0  0  0
  5  6  1  0  0  0  0
  5 23  1  0  0  0  0
  7 11  1  0  0  0  0
  7  8  1  0  0  0  0
  8  9  1  0  0  0  0
 10  7  2  0  0  0  0
 12 18  1  0  0  0  0
 13 12  2  0  0  0  0
 14 13  1  0  0  0  0
 15 11  1  6  0  0  0
 15 17  1  0  0  0  0
 15 14  1  0  0  0  0
 16 14  2  0  0  0  0
 17 12  1  0  0  0  0
 18 20  1  0  0  0  0
 20 19  1  0  0  0  0
 21 18  1  0  0  0  0
 22 21  1  0  0  0  0
 23 24  1  0  0  0  0
 24 25  1  0  0  0  0
 24 27  1  0  0  0  0
 26 23  2  0  0  0  0
 27 29  1  0  0  0  0
 27 28  1  0  0  0  0
 29 31  1  0  0  0  0
 30 29  2  0  0  0  0
 31 32  2  0  0  0  0
 31 35  1  0  0  0  0
 32 33  1  0  0  0  0
 33 34  2  0  0  0  0
 35 34  1  0  0  0  0
M  END
>  <MODEL>
1

>  <REMARK>
 VINA RESULT:       0.2      0.000      0.000
  Name = ZINC17255921
                            x       y       z     vdW  Elec       q    Type
                         _______ _______ _______ _____ _____    ______ ____

>  <TORSDO>
F 9

>  <vina_score>
0.2

$$$$
ZINC20920233
 OpenBabel01081721413D

 32 34  0  0  0  0  0  0  0  0999 V2000
  -34.1770   10.9030  -18.3220 C   0  0  0  0  0  0  0  0  0  0  0  0
  -34.8100   10.9860  -17.1760 N   0  0  0  0  0  0  0  0  0  0  0  0
  -33.8520   11.0440  -16.1560 N   0  0  0  0  0  0  0  0  0  0  0  0
  -32.6650   10.9950  -16.7120 C   0  0  0  0  0  0  0  0  0  0  0  0
  -32.8360   10.9000  -18.0650 N   0  0  0  0  0  0  0  0  0  0  0  0
  -31.8400   10.8200  -18.9960 N   0  0  0  0  0  0  0  0  0  0  0  0
  -31.9880   10.3260  -19.8350 H   0  0  0  0  0  0  0  0  0  0  0  0
  -30.9730   11.2550  -18.8290 H   0  0  0  0  0  0  0  0  0  0  0  0
  -31.4500   11.0280  -16.0430 N   0  0  0  0  0  0  0  0  0  0  0  0
  -31.3400   10.5380  -15.1960 H   0  0  0  0  0  0  0  0  0  0  0  0
  -30.3770   11.7590  -16.5720 N   0  0  0  0  0  0  0  0  0  0  0  0
  -30.5570   12.5160  -17.6120 C   0  0  0  0  0  0  0  0  0  0  0  0
  -29.4290   13.2840  -18.1680 C   0  0  0  0  0  0  0  0  0  0  0  0
  -28.1780   12.6800  -18.3210 C   0  0  0  0  0  0  0  0  0  0  0  0
  -27.1220   13.4020  -18.8470 C   0  0  0  0  0  0  0  0  0  0  0  0
  -27.3020   14.7320  -19.2150 C   0  0  0  0  0  0  0  0  0  0  0  0
  -28.5450   15.3380  -19.0590 C   0  0  0  0  0  0  0  0  0  0  0  0
  -29.6070   14.6190  -18.5390 C   0  0  0  0  0  0  0  0  0  0  0  0
  -25.9050   12.8140  -19.0000 O   0  0  0  0  0  0  0  0  0  0  0  0
  -25.4850   12.5320  -20.3370 C   0  0  0  0  0  0  0  0  0  0  0  0
  -26.2610   15.4410  -19.7280 O   0  0  0  0  0  0  0  0  0  0  0  0
  -25.9160   15.1900  -21.0930 C   0  0  0  0  0  0  0  0  0  0  0  0
  -28.7170   16.6380  -19.4210 O   0  0  0  0  0  0  0  0  0  0  0  0
  -29.9860   16.9960  -19.9720 C   0  0  0  0  0  0  0  0  0  0  0  0
  -34.9260   10.8030  -19.9140 S   0  0  0  0  0  0  0  0  0  0  0  0
  -34.2790   12.2510  -20.7940 C   0  0  0  0  0  0  0  0  0  0  0  0
  -29.3550   12.4580  -21.8250 C   0  0  0  0  0  0  0  0  0  0  0  0
  -30.7990   12.0310  -21.7680 C   0  0  0  0  0  0  0  0  0  0  0  0
  -31.3160   10.9800  -22.3360 N   0  0  0  0  0  0  0  0  0  0  0  0
  -32.5740   10.9270  -22.0710 N   0  0  0  0  0  0  0  0  0  0  0  0
  -32.9020   11.9420  -21.3260 C   0  0  0  0  0  0  0  0  0  0  0  0
  -31.7890   12.6640  -21.1160 O   0  0  0  0  0  0  0  0  0  0  0  0
  1  5  1  0  0  0  0
  1  2  2  0  0  0  0
  2  3  1  0  0  0  0
  4  3  2  0  0  0  0
  4  9  1  0  0  0  0
  5  4  1  0  0  0  0
  6  8  1  0  0  0  0
  6  5  1  0  0  0  0
  7  6  1  0  0  0  0
  9 10  1  0  0  0  0
 11  9  1  0  0  0  0
 12 11  2  0  0  0  0
 13 12  1  0  0  0  0
 14 13  1  0  0  0  0
 15 14  2  0  0  0  0
 16 17  2  0  0  0  0
 16 15  1  0  0  0  0
 17 18  1  0  0  0  0
 18 13  2  0  0  0  0
 19 15  1  0  0  0  0
 20 19  1  0  0  0  0
 21 16  1  0  0  0  0
 22 21  1  0  0  0  0
 23 17  1  0  0  0  0
 24 23  1  0  0  0  0
 25  1  1  0  0  0  0
 26 25  1  0  0  0  0
 27 28  1  0  0  0  0
 28 32  1  0  0  0  0
 29 30  1  0  0  0  0
 29 28  2  0  0  0  0
 30 31  2  0  0  0  0
 31 32  1  0  0  0  0
 31 26  1  0  0  0  0
M  END
>  <MODEL>
1

>  <REMARK>
 VINA RESULT:       0.3      0.000      0.000
  Name = ZINC20920233
                            x       y       z     vdW  Elec       q    Type
                         _______ _______ _______ _____ _____    ______ ____

>  <TORSDO>
F 10

>  <vina_score>
0.3

$$$$
ZINC00547494
 OpenBabel01081722023D

 27 28  0  0  0  0  0  0  0  0999 V2000
  -33.7510   11.0840  -18.0120 C   0  0  0  0  0  0  0  0  0  0  0  0
  -32.5940   11.3700  -18.7110 C   0  0  0  0  0  0  0  0  0  0  0  0
  -31.4150   11.6590  -18.0190 C   0  0  0  0  0  0  0  0  0  0  0  0
  -31.4130   11.6570  -16.6220 C   0  0  0  0  0  0  0  0  0  0  0  0
  -32.5720   11.3770  -15.9300 C   0  0  0  0  0  0  0  0  0  0  0  0
  -33.7410   11.0850  -16.6190 C   0  0  0  0  0  0  0  0  0  0  0  0
  -35.0340   11.3490  -19.9970 C   0  0  0  0  0  0  0  0  0  0  0  0
  -34.8990   10.8030  -18.6840 O   0  0  0  0  0  0  0  0  0  0  0  0
  -30.1780   11.9650  -18.7590 C   0  0  0  0  0  0  0  0  0  0  0  0
  -29.0450   12.0370  -18.1300 N   0  0  0  0  0  0  0  0  0  0  0  0
  -27.8690   12.3280  -18.8340 N   0  0  0  0  0  0  0  0  0  0  0  0
  -27.6410   11.8160  -19.6450 H   0  0  0  0  0  0  0  0  0  0  0  0
  -27.0500   13.3070  -18.4030 C   0  0  0  0  0  0  0  0  0  0  0  0
  -27.3300   13.9370  -17.4050 O   0  0  0  0  0  0  0  0  0  0  0  0
  -25.7850   13.6190  -19.1610 C   0  0  0  0  0  0  0  0  0  0  0  0
  -26.1270   14.2170  -20.4540 N   0  0  0  0  0  0  0  0  0  0  0  0
  -25.2950   14.8730  -21.2820 C   0  0  0  0  0  0  0  0  0  0  0  0
  -25.9820   15.2500  -22.3300 N   0  0  0  0  0  0  0  0  0  0  0  0
  -27.2480   14.8540  -22.2080 C   0  0  0  0  0  0  0  0  0  0  0  0
  -27.3840   14.2130  -21.0780 N   0  0  0  0  0  0  0  0  0  0  0  0
  -34.8800   10.8050  -15.9320 O   0  0  0  0  0  0  0  0  0  0  0  0
  -34.8080   10.8580  -14.5060 C   0  0  0  0  0  0  0  0  0  0  0  0
  -35.3380   12.1850  -14.0260 C   0  0  0  0  0  0  0  0  0  0  0  0
  -34.6860   13.3230  -14.3380 N   0  0  0  0  0  0  0  0  0  0  0  0
  -35.0310   14.1900  -14.0240 H   0  0  0  0  0  0  0  0  0  0  0  0
  -33.8630   13.2880  -14.8780 H   0  0  0  0  0  0  0  0  0  0  0  0
  -36.3510   12.2290  -13.3610 O   0  0  0  0  0  0  0  0  0  0  0  0
  1  6  2  0  0  0  0
  2  3  2  0  0  0  0
  2  1  1  0  0  0  0
  3  4  1  0  0  0  0
  4  5  2  0  0  0  0
  6 21  1  0  0  0  0
  6  5  1  0  0  0  0
  7  8  1  0  0  0  0
  8  1  1  0  0  0  0
  9 10  2  0  0  0  0
  9  3  1  0  0  0  0
 11 13  1  0  0  0  0
 11 10  1  0  0  0  0
 12 11  1  0  0  0  0
 13 14  2  0  0  0  0
 15 13  1  0  0  0  0
 16 15  1  0  0  0  0
 17 16  1  0  0  0  0
 18 19  1  0  0  0  0
 18 17  2  0  0  0  0
 19 20  2  0  0  0  0
 20 16  1  0  0  0  0
 21 22  1  0  0  0  0
 22 23  1  0  0  0  0
 23 27  2  0  0  0  0
 24 23  1  0  0  0  0
 24 25  1  0  0  0  0
 26 24  1  0  0  0  0
M  END
>  <MODEL>
1

>  <REMARK>
 VINA RESULT:       0.5      0.000      0.000
  Name = ZINC00547494
                            x       y       z     vdW  Elec       q    Type
                         _______ _______ _______ _____ _____    ______ ____

>  <TORSDO>
F 8

>  <vina_score>
0.5

$$$$
ZINC25049844
 OpenBabel01081721383D

 35 37  0  0  0  0  0  0  0  0999 V2000
  -28.1160   14.9390  -18.8620 N   0  0  0  0  0  0  0  0  0  0  0  0
  -28.1330   15.8290  -19.2820 H   0  0  0  0  0  0  0  0  0  0  0  0
  -27.0290   14.1530  -18.9900 C   0  0  0  0  0  0  0  0  0  0  0  0
  -27.0080   13.0570  -18.4720 O   0  0  0  0  0  0  0  0  0  0  0  0
  -29.6070   13.2000  -18.2120 C   0  0  0  0  0  0  0  0  0  0  0  0
  -29.2230   14.4890  -18.1290 N   0  0  0  0  0  0  0  0  0  0  0  0
  -29.7200   15.1150  -17.5540 H   0  0  0  0  0  0  0  0  0  0  0  0
  -28.9930   12.4260  -18.9230 O   0  0  0  0  0  0  0  0  0  0  0  0
  -31.4480   10.8030  -18.9200 C   0  0  0  0  0  0  0  0  0  0  0  0
  -31.6230   11.6730  -17.7020 C   0  0  0  0  0  0  0  0  0  0  0  0
  -30.7610   12.7310  -17.4470 C   0  0  0  0  0  0  0  0  0  0  0  0
  -31.4590   13.3630  -15.9270 S   0  0  0  0  0  0  0  0  0  0  0  0
  -32.7560   12.2200  -15.7790 C   0  0  0  0  0  0  0  0  0  0  0  0
  -32.5910   11.4560  -16.8490 N   0  0  0  0  0  0  0  0  0  0  0  0
  -33.7190   12.1300  -14.7960 N   0  0  0  0  0  0  0  0  0  0  0  0
  -34.5030   10.8950  -14.9390 C   0  0  0  0  0  0  0  0  0  0  0  0
  -35.5180   10.8080  -13.7950 C   0  0  0  0  0  0  0  0  0  0  0  0
  -36.3420   11.9760  -13.8050 O   0  0  0  0  0  0  0  0  0  0  0  0
  -35.6110   13.1970  -13.6680 C   0  0  0  0  0  0  0  0  0  0  0  0
  -34.5970   13.3090  -14.8100 C   0  0  0  0  0  0  0  0  0  0  0  0
  -25.8390   14.6370  -19.7780 C   0  0  0  0  0  0  0  0  0  0  0  0
  -26.3220   15.4390  -20.9890 C   0  0  0  0  0  0  0  0  0  0  0  0
  -26.7800   14.4760  -22.0870 C   0  0  0  0  0  0  0  0  0  0  0  0
  -28.2140   14.2110  -21.9380 N   0  0  0  0  0  0  0  0  0  0  0  0
  -28.8520   14.9600  -21.9060 H   0  0  0  0  0  0  0  0  0  0  0  0
  -28.6580   12.9420  -21.8450 C   0  0  0  0  0  0  0  0  0  0  0  0
  -27.8700   12.0170  -21.8860 O   0  0  0  0  0  0  0  0  0  0  0  0
  -30.1020   12.6750  -21.6940 C   0  0  0  0  0  0  0  0  0  0  0  0
  -30.9490   13.6700  -21.1970 C   0  0  0  0  0  0  0  0  0  0  0  0
  -32.2960   13.4180  -21.0580 C   0  0  0  0  0  0  0  0  0  0  0  0
  -32.8120   12.1760  -21.4110 C   0  0  0  0  0  0  0  0  0  0  0  0
  -31.9730   11.1850  -21.9060 C   0  0  0  0  0  0  0  0  0  0  0  0
  -30.6250   11.4290  -22.0480 C   0  0  0  0  0  0  0  0  0  0  0  0
  -34.1400   11.9320  -21.2720 O   0  0  0  0  0  0  0  0  0  0  0  0
  -34.6410   11.8070  -19.9400 C   0  0  0  0  0  0  0  0  0  0  0  0
  1  6  1  0  0  0  0
  2  1  1  0  0  0  0
  3  1  1  0  0  0  0
  3  4  2  0  0  0  0
  5  6  1  0  0  0  0
  5 11  1  0  0  0  0
  6  7  1  0  0  0  0
  8  5  2  0  0  0  0
  9 10  1  0  0  0  0
 10 11  2  0  0  0  0
 10 14  1  0  0  0  0
 11 12  1  0  0  0  0
 12 13  1  0  0  0  0
 13 15  1  0  0  0  0
 14 13  2  0  0  0  0
 16 15  1  0  0  0  0
 16 17  1  0  0  0  0
 18 17  1  0  0  0  0
 18 19  1  0  0  0  0
 20 15  1  0  0  0  0
 20 19  1  0  0  0  0
 21  3  1  0  0  0  0
 22 21  1  0  0  0  0
 23 24  1  0  0  0  0
 23 22  1  0  0  0  0
 24 25  1  0  0  0  0
 24 26  1  0  0  0  0
 26 28  1  0  0  0  0
 27 26  2  0  0  0  0
 28 29  2  0  0  0  0
 29 30  1  0  0  0  0
 31 34  1  0  0  0  0
 31 30  2  0  0  0  0
 32 31  1  0  0  0  0
 33 32  2  0  0  0  0
 33 28  1  0  0  0  0
 34 35  1  0  0  0  0
M  END
>  <MODEL>
1

>  <REMARK>
 VINA RESULT:       1.4      0.000      0.000
  Name = ZINC25049844
                            x       y       z     vdW  Elec       q    Type
                         _______ _______ _______ _____ _____    ______ ____

>  <TORSDO>
F 9

>  <vina_score>
1.4

$$$$
ZINC06414339
 OpenBabel01081721393D

 34 36  0  0  1  0  0  0  0  0999 V2000
  -25.5520   14.5060  -20.4500 C   0  0  1  0  0  0  0  0  0  0  0  0
  -25.4690   13.0800  -20.4270 O   0  0  0  0  0  0  0  0  0  0  0  0
  -25.6570   12.7580  -19.5320 H   0  0  0  0  0  0  0  0  0  0  0  0
  -26.1930   14.9580  -21.7630 C   0  0  0  0  0  0  0  0  0  0  0  0
  -29.8040   12.9900  -20.7970 N   0  0  0  0  0  0  0  0  0  0  0  0
  -29.8250   14.4560  -20.9030 C   0  0  0  0  0  0  0  0  0  0  0  0
  -28.4000   14.9950  -20.7660 C   0  0  0  0  0  0  0  0  0  0  0  0
  -27.5650   14.4130  -21.8390 N   0  0  0  0  0  0  0  0  0  0  0  0
  -27.9690   14.6560  -22.7430 H   0  0  0  0  0  0  0  0  0  0  0  0
  -27.5320   12.9400  -21.7070 C   0  0  0  0  0  0  0  0  0  0  0  0
  -28.9570   12.4020  -21.8430 C   0  0  0  0  0  0  0  0  0  0  0  0
  -33.6640   11.4260  -20.9400 C   0  0  0  0  0  0  0  0  0  0  0  0
  -33.4070   12.5670  -20.1960 C   0  0  0  0  0  0  0  0  0  0  0  0
  -32.1280   13.0860  -20.1480 C   0  0  0  0  0  0  0  0  0  0  0  0
  -31.0990   12.4640  -20.8440 C   0  0  0  0  0  0  0  0  0  0  0  0
  -31.3580   11.3200  -21.5870 C   0  0  0  0  0  0  0  0  0  0  0  0
  -32.6380   10.8030  -21.6360 C   0  0  0  0  0  0  0  0  0  0  0  0
  -35.6910   10.9640  -19.7840 C   0  0  0  0  0  0  0  0  0  0  0  0
  -34.9240   10.9150  -20.9880 O   0  0  0  0  0  0  0  0  0  0  0  0
  -26.4070   14.9850  -19.2740 C   0  0  0  0  0  0  0  0  0  0  0  0
  -26.5480   13.9250  -18.3250 O   0  0  0  0  0  0  0  0  0  0  0  0
  -27.8110   13.5880  -17.9630 C   0  0  0  0  0  0  0  0  0  0  0  0
  -28.6620   14.5520  -17.4340 C   0  0  0  0  0  0  0  0  0  0  0  0
  -29.9470   14.2140  -17.0690 C   0  0  0  0  0  0  0  0  0  0  0  0
  -30.3900   12.8970  -17.2230 C   0  0  0  0  0  0  0  0  0  0  0  0
  -29.5300   11.9310  -17.7510 C   0  0  0  0  0  0  0  0  0  0  0  0
  -28.2490   12.2780  -18.1180 C   0  0  0  0  0  0  0  0  0  0  0  0
  -31.7650   12.5300  -16.8290 C   0  0  0  0  0  0  0  0  0  0  0  0
  -32.1900   11.2590  -16.9720 N   0  0  0  0  0  0  0  0  0  0  0  0
  -31.5840   10.5750  -17.3400 H   0  0  0  0  0  0  0  0  0  0  0  0
  -32.5130   13.3740  -16.3750 O   0  0  0  0  0  0  0  0  0  0  0  0
  -33.4630   10.9190  -16.6080 N   0  0  0  0  0  0  0  0  0  0  0  0
  -33.8700   10.3150  -17.3220 H   0  0  0  0  0  0  0  0  0  0  0  0
  -33.4400   10.4250  -15.7170 H   0  0  0  0  0  0  0  0  0  0  0  0
  1  4  1  6  0  0  0
  1  2  1  0  0  0  0
  1 20  1  0  0  0  0
  2  3  1  0  0  0  0
  6  5  1  0  0  0  0
  6  7  1  0  0  0  0
  8  4  1  0  0  0  0
  8 10  1  0  0  0  0
  8  7  1  0  0  0  0
  9  8  1  0  0  0  0
 11 10  1  0  0  0  0
 11  5  1  0  0  0  0
 12 13  2  0  0  0  0
 13 14  1  0  0  0  0
 15  5  1  0  0  0  0
 15 14  2  0  0  0  0
 16 15  1  0  0  0  0
 17 16  2  0  0  0  0
 17 12  1  0  0  0  0
 19 12  1  0  0  0  0
 19 18  1  0  0  0  0
 20 21  1  0  0  0  0
 21 22  1  0  0  0  0
 22 23  1  0  0  0  0
 23 24  2  0  0  0  0
 25 24  1  0  0  0  0
 25 28  1  0  0  0  0
 26 25  2  0  0  0  0
 27 22  2  0  0  0  0
 27 26  1  0  0  0  0
 28 31  2  0  0  0  0
 29 28  1  0  0  0  0
 29 32  1  0  0  0  0
 30 29  1  0  0  0  0
 32 34  1  0  0  0  0
 33 32  1  0  0  0  0
M  END
>  <MODEL>
1

>  <REMARK>
 VINA RESULT:       1.4      0.000      0.000
  Name = ZINC06414339
                            x       y       z     vdW  Elec       q    Type
                         _______ _______ _______ _____ _____    ______ ____

>  <TORSDO>
F 10

>  <vina_score>
1.4

$$$$
ZINC15636405
 OpenBabel01081721443D

 36 39  0  0  1  0  0  0  0  0999 V2000
  -29.8570   12.2590  -21.1260 C   0  0  0  0  0  0  0  0  0  0  0  0
  -29.2640   11.8940  -20.0310 N   0  0  0  0  0  0  0  0  0  0  0  0
  -34.0880   12.0860  -21.4100 C   0  0  0  0  0  0  0  0  0  0  0  0
  -33.3630   10.9240  -21.2140 C   0  0  0  0  0  0  0  0  0  0  0  0
  -31.9870   10.9730  -21.1200 C   0  0  0  0  0  0  0  0  0  0  0  0
  -31.3270   12.1990  -21.2240 C   0  0  0  0  0  0  0  0  0  0  0  0
  -32.0660   13.3690  -21.4150 C   0  0  0  0  0  0  0  0  0  0  0  0
  -33.4400   13.3050  -21.5120 C   0  0  0  0  0  0  0  0  0  0  0  0
  -30.0210   11.5690  -18.8990 N   0  0  0  0  0  0  0  0  0  0  0  0
  -29.9100   10.6890  -18.4700 H   0  0  0  0  0  0  0  0  0  0  0  0
  -30.9010   12.4570  -18.3970 C   0  0  0  0  0  0  0  0  0  0  0  0
  -31.0380   13.5420  -18.9280 O   0  0  0  0  0  0  0  0  0  0  0  0
  -31.6990   12.1130  -17.2020 C   0  0  0  0  0  0  0  0  0  0  0  0
  -31.2590   11.1170  -16.3280 C   0  0  0  0  0  0  0  0  0  0  0  0
  -32.0060   10.8030  -15.2110 C   0  0  0  0  0  0  0  0  0  0  0  0
  -33.1960   11.4660  -14.9630 C   0  0  0  0  0  0  0  0  0  0  0  0
  -33.6380   12.4530  -15.8250 C   0  0  0  0  0  0  0  0  0  0  0  0
  -32.8970   12.7800  -16.9430 C   0  0  0  0  0  0  0  0  0  0  0  0
  -34.9080   13.1600  -15.5490 N   0  0  0  0  0  0  0  0  0  0  0  0
  -35.4460   13.8120  -16.4260 O   0  0  0  0  0  0  0  0  0  0  0  0
  -35.4160   13.0910  -14.4440 O   0  0  0  0  0  0  0  0  0  0  0  0
  -29.0420   12.7450  -22.2980 C   0  0  0  0  0  0  0  0  0  0  0  0
  -28.0110   13.7660  -21.8130 C   0  0  1  0  0  0  0  0  0  0  0  0
  -28.6110   14.6010  -20.7120 C   0  0  1  0  0  0  0  0  0  0  0  0
  -29.3230   15.7260  -20.8530 C   0  0  0  0  0  0  0  0  0  0  0  0
  -29.6790   16.2380  -19.6150 N   0  0  0  0  0  0  0  0  0  0  0  0
  -30.4670   16.7900  -19.4070 H   0  0  0  0  0  0  0  0  0  0  0  0
  -28.6650   15.8000  -18.6980 C   0  0  1  0  0  0  0  0  0  0  0  0
  -28.9530   15.6800  -17.2400 C   0  0  0  0  0  0  0  0  0  0  0  0
  -28.1980   14.7530  -16.5920 C   0  0  0  0  0  0  0  0  0  0  0  0
  -27.1450   14.0180  -17.3240 C   0  0  0  0  0  0  0  0  0  0  0  0
  -27.2890   13.7850  -18.6460 C   0  0  0  0  0  0  0  0  0  0  0  0
  -28.5360   14.3370  -19.2430 C   0  0  2  0  0  0  0  0  0  0  0  0
  -26.7960   13.0430  -21.2910 C   0  0  0  0  0  0  0  0  0  0  0  0
  -25.7790   13.7390  -20.7600 O   0  0  0  0  0  0  0  0  0  0  0  0
  -26.7380   11.8380  -21.3500 O   0  0  0  0  0  0  0  0  0  0  0  0
  1  2  2  0  0  0  0
  2  9  1  0  0  0  0
  3  4  2  0  0  0  0
  4  5  1  0  0  0  0
  6  1  1  0  0  0  0
  6  5  2  0  0  0  0
  7  6  1  0  0  0  0
  8  7  2  0  0  0  0
  8  3  1  0  0  0  0
  9 10  1  0  0  0  0
  9 11  1  0  0  0  0
 11 13  1  0  0  0  0
 12 11  2  0  0  0  0
 13 18  2  0  0  0  0
 13 14  1  0  0  0  0
 14 15  2  0  0  0  0
 15 16  1  0  0  0  0
 17 19  1  0  0  0  0
 17 16  2  0  0  0  0
 18 17  1  0  0  0  0
 19 21  2  0  0  0  0
 20 19  2  0  0  0  0
 22  1  1  0  0  0  0
 23 22  1  1  0  0  0
 23 34  1  0  0  0  0
 23 24  1  0  0  0  0
 24 25  1  6  0  0  0
 24 33  1  0  0  0  0
 25 26  1  0  0  0  0
 26 27  1  0  0  0  0
 28 26  1  6  0  0  0
 28 29  1  0  0  0  0
 29 30  1  0  0  0  0
 31 30  1  0  0  0  0
 32 31  1  0  0  0  0
 33 28  1  0  0  0  0
 33 32  1  6  0  0  0
 34 35  1  0  0  0  0
 36 34  2  0  0  0  0
M  END
>  <MODEL>
1

>  <REMARK>
 VINA RESULT:       1.4      0.000      0.000
  Name = ZINC15636405
                            x       y       z     vdW  Elec       q    Type
                         _______ _______ _______ _____ _____    ______ ____

>  <TORSDO>
F 8

>  <vina_score>
1.4

$$$$
ZINC27249941
 OpenBabel01081721563D

 35 37  0  0  0  0  0  0  0  0999 V2000
  -32.4890   15.3820  -21.4030 C   0  0  0  0  0  0  0  0  0  0  0  0
  -32.4950   13.0120  -20.4810 N   0  0  0  0  0  0  0  0  0  0  0  0
  -32.8500   12.4020  -19.2950 C   0  0  0  0  0  0  0  0  0  0  0  0
  -32.8300   11.0910  -18.8380 C   0  0  0  0  0  0  0  0  0  0  0  0
  -33.2710   10.8060  -17.5630 C   0  0  0  0  0  0  0  0  0  0  0  0
  -33.7350   11.8190  -16.7360 C   0  0  0  0  0  0  0  0  0  0  0  0
  -33.7620   13.1140  -17.1690 C   0  0  0  0  0  0  0  0  0  0  0  0
  -33.3190   13.4270  -18.4570 C   0  0  0  0  0  0  0  0  0  0  0  0
  -33.2240   14.5860  -19.1590 N   0  0  0  0  0  0  0  0  0  0  0  0
  -32.7390   14.3420  -20.3410 C   0  0  0  0  0  0  0  0  0  0  0  0
  -34.2960   11.4300  -15.1110 S   0  0  0  0  0  0  0  0  0  0  0  0
  -33.2090   10.8040  -14.4460 O   0  0  0  0  0  0  0  0  0  0  0  0
  -35.5620   10.8030  -15.2590 O   0  0  0  0  0  0  0  0  0  0  0  0
  -34.5650   12.8660  -14.3310 N   0  0  0  0  0  0  0  0  0  0  0  0
  -33.5610   13.9310  -14.3890 C   0  0  0  0  0  0  0  0  0  0  0  0
  -35.8090   13.0710  -13.5830 C   0  0  0  0  0  0  0  0  0  0  0  0
  -30.5700   11.7780  -21.3510 C   0  0  0  0  0  0  0  0  0  0  0  0
  -31.9530   12.3490  -21.6700 C   0  0  0  0  0  0  0  0  0  0  0  0
  -31.8370   16.6120  -20.7690 C   0  0  0  0  0  0  0  0  0  0  0  0
  -30.5030   16.2260  -20.1820 C   0  0  0  0  0  0  0  0  0  0  0  0
  -30.3870   15.0930  -19.4620 N   0  0  0  0  0  0  0  0  0  0  0  0
  -31.1850   14.5560  -19.2550 H   0  0  0  0  0  0  0  0  0  0  0  0
  -29.5350   16.9360  -20.3570 O   0  0  0  0  0  0  0  0  0  0  0  0
  -29.1290   14.6790  -19.0080 C   0  0  0  0  0  0  0  0  0  0  0  0
  -28.8750   14.5930  -17.6440 C   0  0  0  0  0  0  0  0  0  0  0  0
  -27.6350   14.1860  -17.1910 C   0  0  0  0  0  0  0  0  0  0  0  0
  -26.6390   13.8620  -18.0900 C   0  0  0  0  0  0  0  0  0  0  0  0
  -26.8830   13.9440  -19.4610 C   0  0  0  0  0  0  0  0  0  0  0  0
  -28.1370   14.3510  -19.9190 C   0  0  0  0  0  0  0  0  0  0  0  0
  -28.4110   14.4380  -21.3980 C   0  0  0  0  0  0  0  0  0  0  0  0
  -25.8190   13.5970  -20.4270 C   0  0  0  0  0  0  0  0  0  0  0  0
  -25.2150   14.5660  -21.1420 N   0  0  0  0  0  0  0  0  0  0  0  0
  -24.5050   14.3350  -21.7850 H   0  0  0  0  0  0  0  0  0  0  0  0
  -25.4820   15.5070  -21.0210 H   0  0  0  0  0  0  0  0  0  0  0  0
  -25.4890   12.4370  -20.5760 O   0  0  0  0  0  0  0  0  0  0  0  0
  1 19  1  0  0  0  0
  1 10  1  0  0  0  0
  2 10  1  0  0  0  0
  2  3  1  0  0  0  0
  3  4  2  0  0  0  0
  3  8  1  0  0  0  0
  4  5  1  0  0  0  0
  5  6  2  0  0  0  0
  6 11  1  0  0  0  0
  7  6  1  0  0  0  0
  8  7  2  0  0  0  0
  9  8  1  0  0  0  0
 10  9  2  0  0  0  0
 11 12  2  0  0  0  0
 11 14  1  0  0  0  0
 13 11  2  0  0  0  0
 14 16  1  0  0  0  0
 15 14  1  0  0  0  0
 18 17  1  0  0  0  0
 18  2  1  0  0  0  0
 19 20  1  0  0  0  0
 20 21  1  0  0  0  0
 21 22  1  0  0  0  0
 21 24  1  0  0  0  0
 23 20  2  0  0  0  0
 24 25  2  0  0  0  0
 25 26  1  0  0  0  0
 27 26  2  0  0  0  0
 28 27  1  0  0  0  0
 29 28  2  0  0  0  0
 29 24  1  0  0  0  0
 30 29  1  0  0  0  0
 31 28  1  0  0  0  0
 32 34  1  0  0  0  0
 32 31  1  0  0  0  0
 33 32  1  0  0  0  0
 35 31  2  0  0  0  0
M  END
>  <MODEL>
1

>  <REMARK>
 VINA RESULT:       1.5      0.000      0.000
  Name = ZINC27249941
                            x       y       z     vdW  Elec       q    Type
                         _______ _______ _______ _____ _____    ______ ____

>  <TORSDO>
F 8

>  <vina_score>
1.5

$$$$
ZINC15939612
 OpenBabel01081721403D

 35 37  0  0  1  0  0  0  0  0999 V2000
  -27.9810   12.7490  -18.1060 N   0  0  0  0  0  0  0  0  0  0  0  0
  -27.6740   11.8290  -18.2740 H   0  0  0  0  0  0  0  0  0  0  0  0
  -27.1030   13.7710  -18.1420 C   0  0  0  0  0  0  0  0  0  0  0  0
  -27.4810   14.9040  -17.9350 O   0  0  0  0  0  0  0  0  0  0  0  0
  -30.2520   12.0380  -18.0520 C   0  0  0  0  0  0  0  0  0  0  0  0
  -29.3320   12.9960  -17.8300 N   0  0  0  0  0  0  0  0  0  0  0  0
  -29.6100   13.8720  -17.4750 H   0  0  0  0  0  0  0  0  0  0  0  0
  -29.9100   10.9560  -18.4910 O   0  0  0  0  0  0  0  0  0  0  0  0
  -33.2650   12.8900  -16.2230 N   0  0  0  0  0  0  0  0  0  0  0  0
  -34.3030   12.8160  -17.0810 C   0  0  0  0  0  0  0  0  0  0  0  0
  -34.0330   12.4360  -18.4750 C   0  0  0  0  0  0  0  0  0  0  0  0
  -35.0330   12.3320  -19.4370 C   0  0  0  0  0  0  0  0  0  0  0  0
  -34.6960   11.9690  -20.7240 C   0  0  0  0  0  0  0  0  0  0  0  0
  -33.3750   11.7100  -21.0660 C   0  0  0  0  0  0  0  0  0  0  0  0
  -32.3700   11.8070  -20.1270 C   0  0  0  0  0  0  0  0  0  0  0  0
  -32.6870   12.1760  -18.8250 C   0  0  0  0  0  0  0  0  0  0  0  0
  -31.6760   12.2990  -17.7620 C   0  0  0  0  0  0  0  0  0  0  0  0
  -35.4370   13.0580  -16.7100 O   0  0  0  0  0  0  0  0  0  0  0  0
  -32.0550   12.6470  -16.5550 N   0  0  0  0  0  0  0  0  0  0  0  0
  -34.7100   12.4410  -14.3010 C   0  0  0  0  0  0  0  0  0  0  0  0
  -33.5400   13.2700  -14.8350 C   0  0  0  0  0  0  0  0  0  0  0  0
  -25.6500   13.5040  -18.4380 C   0  0  0  0  0  0  0  0  0  0  0  0
  -25.2140   14.2430  -20.0360 S   0  0  0  0  0  0  0  0  0  0  0  0
  -26.3300   13.4310  -21.2140 C   0  0  1  0  0  0  0  0  0  0  0  0
  -26.2660   11.9150  -21.0160 C   0  0  0  0  0  0  0  0  0  0  0  0
  -27.7390   13.9080  -20.9810 C   0  0  0  0  0  0  0  0  0  0  0  0
  -27.9720   15.2020  -20.6820 N   0  0  0  0  0  0  0  0  0  0  0  0
  -27.2210   15.8350  -20.6180 H   0  0  0  0  0  0  0  0  0  0  0  0
  -28.6650   13.1290  -21.0600 O   0  0  0  0  0  0  0  0  0  0  0  0
  -29.2780   15.6440  -20.4650 C   0  0  0  0  0  0  0  0  0  0  0  0
  -30.4570   14.8520  -20.4600 C   0  0  0  0  0  0  0  0  0  0  0  0
  -31.4450   15.7390  -20.2070 C   0  0  0  0  0  0  0  0  0  0  0  0
  -32.9170   15.4380  -20.0890 C   0  0  0  0  0  0  0  0  0  0  0  0
  -30.8600   16.9400  -20.0810 O   0  0  0  0  0  0  0  0  0  0  0  0
  -29.6610   16.8700  -20.2210 N   0  0  0  0  0  0  0  0  0  0  0  0
  1  6  1  0  0  0  0
  2  1  1  0  0  0  0
  3  1  1  0  0  0  0
  3  4  2  0  0  0  0
  5  6  1  0  0  0  0
  5 17  1  0  0  0  0
  6  7  1  0  0  0  0
  8  5  2  0  0  0  0
  9 21  1  0  0  0  0
 10 18  2  0  0  0  0
 10  9  1  0  0  0  0
 11 10  1  0  0  0  0
 12 11  2  0  0  0  0
 13 12  1  0  0  0  0
 14 13  2  0  0  0  0
 14 15  1  0  0  0  0
 15 16  2  0  0  0  0
 16 11  1  0  0  0  0
 16 17  1  0  0  0  0
 17 19  2  0  0  0  0
 19  9  1  0  0  0  0
 21 20  1  0  0  0  0
 22  3  1  0  0  0  0
 23 22  1  0  0  0  0
 24 25  1  1  0  0  0
 24 26  1  0  0  0  0
 24 23  1  0  0  0  0
 26 27  1  0  0  0  0
 27 28  1  0  0  0  0
 27 30  1  0  0  0  0
 29 26  2  0  0  0  0
 30 31  1  0  0  0  0
 30 35  2  0  0  0  0
 31 32  2  0  0  0  0
 32 33  1  0  0  0  0
 32 34  1  0  0  0  0
 35 34  1  0  0  0  0
M  END
>  <MODEL>
1

>  <REMARK>
 VINA RESULT:       1.5      0.000      0.000
  Name = ZINC15939612
                            x       y       z     vdW  Elec       q    Type
                         _______ _______ _______ _____ _____    ______ ____

>  <TORSDO>
F 8

>  <vina_score>
1.5

$$$$
ZINC28887676
 OpenBabel01081721503D

 34 37  0  0  1  0  0  0  0  0999 V2000
  -27.1220   14.3310  -19.3290 C   0  0  0  0  0  0  0  0  0  0  0  0
  -26.6000   15.3280  -18.5250 C   0  0  0  0  0  0  0  0  0  0  0  0
  -27.2560   15.7010  -17.3670 C   0  0  0  0  0  0  0  0  0  0  0  0
  -28.4390   15.0760  -17.0080 C   0  0  0  0  0  0  0  0  0  0  0  0
  -28.9630   14.0670  -17.8150 C   0  0  0  0  0  0  0  0  0  0  0  0
  -28.3010   13.7020  -18.9790 C   0  0  0  0  0  0  0  0  0  0  0  0
  -30.1550   13.4270  -17.4550 N   0  0  0  0  0  0  0  0  0  0  0  0
  -30.8450   13.9180  -16.9520 H   0  0  0  0  0  0  0  0  0  0  0  0
  -30.3580   12.1390  -17.7970 C   0  0  0  0  0  0  0  0  0  0  0  0
  -29.5550   11.5650  -18.5010 O   0  0  0  0  0  0  0  0  0  0  0  0
  -31.5830   11.4130  -17.3030 C   0  0  1  0  0  0  0  0  0  0  0  0
  -32.4260   12.3160  -16.3730 C   0  0  0  0  0  0  0  0  0  0  0  0
  -33.8570   11.9610  -16.7080 C   0  0  0  0  0  0  0  0  0  0  0  0
  -33.9080   11.3010  -17.8780 N   0  0  0  0  0  0  0  0  0  0  0  0
  -34.8190   12.2320  -16.0200 O   0  0  0  0  0  0  0  0  0  0  0  0
  -32.5710   11.1440  -18.4610 C   0  0  0  0  0  0  0  0  0  0  0  0
  -35.1410   10.8040  -18.4930 C   0  0  0  0  0  0  0  0  0  0  0  0
  -35.2320   11.3060  -19.9350 C   0  0  0  0  0  0  0  0  0  0  0  0
  -34.1800   10.8040  -20.9260 C   0  0  0  0  0  0  0  0  0  0  0  0
  -34.1320   12.2500  -20.4250 C   0  0  0  0  0  0  0  0  0  0  0  0
  -26.2790   13.8620  -20.8040 S   0  0  0  0  0  0  0  0  0  0  0  0
  -25.8930   12.5040  -20.6370 O   0  0  0  0  0  0  0  0  0  0  0  0
  -25.3410   14.8930  -21.0800 O   0  0  0  0  0  0  0  0  0  0  0  0
  -27.3890   13.8910  -22.0330 N   0  0  0  0  0  0  0  0  0  0  0  0
  -29.7060   13.3830  -21.5590 C   0  0  0  0  0  0  0  0  0  0  0  0
  -30.7600   12.4830  -21.5620 C   0  0  0  0  0  0  0  0  0  0  0  0
  -30.5720   11.1980  -22.0360 C   0  0  0  0  0  0  0  0  0  0  0  0
  -29.3330   10.8060  -22.5070 C   0  0  0  0  0  0  0  0  0  0  0  0
  -28.2780   11.6980  -22.5130 C   0  0  0  0  0  0  0  0  0  0  0  0
  -28.4570   12.9880  -22.0340 C   0  0  0  0  0  0  0  0  0  0  0  0
  -31.0840   14.8970  -20.3510 C   0  0  0  0  0  0  0  0  0  0  0  0
  -29.8900   14.6460  -21.0930 O   0  0  0  0  0  0  0  0  0  0  0  0
  -29.0850   15.4400  -15.8680 O   0  0  0  0  0  0  0  0  0  0  0  0
  -28.8290   15.0710  -15.0460 H   0  0  0  0  0  0  0  0  0  0  0  0
  1  6  2  0  0  0  0
  1  2  1  0  0  0  0
  2  3  2  0  0  0  0
  3  4  1  0  0  0  0
  4 33  1  0  0  0  0
  5  7  1  0  0  0  0
  5  4  2  0  0  0  0
  6  5  1  0  0  0  0
  7  8  1  0  0  0  0
  9  7  1  0  0  0  0
 10  9  2  0  0  0  0
 11  9  1  6  0  0  0
 11 12  1  0  0  0  0
 13 12  1  0  0  0  0
 13 15  2  0  0  0  0
 14 13  1  0  0  0  0
 16 14  1  0  0  0  0
 16 11  1  0  0  0  0
 17 14  1  0  0  0  0
 18 17  1  0  0  0  0
 19 20  1  0  0  0  0
 19 18  1  0  0  0  0
 20 18  1  0  0  0  0
 21 22  2  0  0  0  0
 21  1  1  0  0  0  0
 23 21  2  0  0  0  0
 24 21  1  0  0  0  0
 25 32  1  0  0  0  0
 26 25  1  0  0  0  0
 27 26  2  0  0  0  0
 28 27  1  0  0  0  0
 29 28  2  0  0  0  0
 29 30  1  0  0  0  0
 30 24  1  0  0  0  0
 30 25  2  0  0  0  0
 32 31  1  0  0  0  0
 33 34  1  0  0  0  0
M  END
>  <MODEL>
1

>  <REMARK>
 VINA RESULT:       1.7      0.000      0.000
  Name = ZINC28887676
                            x       y       z     vdW  Elec       q    Type
                         _______ _______ _______ _____ _____    ______ ____

>  <TORSDO>
F 9

>  <vina_score>
1.7

$$$$
ZINC31229550
 OpenBabel01081721483D

 37 40  0  0  1  0  0  0  0  0999 V2000
  -32.3390   11.9200  -20.0600 C   0  0  0  0  0  0  0  0  0  0  0  0
  -31.4380   10.8720  -20.2750 C   0  0  0  0  0  0  0  0  0  0  0  0
  -30.3630   11.0530  -21.1140 C   0  0  0  0  0  0  0  0  0  0  0  0
  -30.1690   12.2770  -21.7470 C   0  0  0  0  0  0  0  0  0  0  0  0
  -31.0610   13.3250  -21.5310 C   0  0  0  0  0  0  0  0  0  0  0  0
  -32.1420   13.1480  -20.6980 C   0  0  0  0  0  0  0  0  0  0  0  0
  -33.3600   10.9930  -18.0410 N   0  0  0  0  0  0  0  0  0  0  0  0
  -32.4920   10.5830  -17.8210 H   0  0  0  0  0  0  0  0  0  0  0  0
  -33.4940   11.7290  -19.1620 C   0  0  0  0  0  0  0  0  0  0  0  0
  -34.5650   12.2370  -19.4320 O   0  0  0  0  0  0  0  0  0  0  0  0
  -34.5060   10.8030  -17.1480 C   0  0  0  0  0  0  0  0  0  0  0  0
  -34.0470   10.9250  -15.6940 C   0  0  1  0  0  0  0  0  0  0  0  0
  -32.7530   11.6180  -15.6460 N   0  0  0  0  0  0  0  0  0  0  0  0
  -32.4660   11.6210  -14.6660 H   0  0  0  0  0  0  0  0  0  0  0  0
  -31.7500   10.9340  -16.5000 C   0  0  0  0  0  0  0  0  0  0  0  0
  -30.6860   12.0320  -16.7480 C   0  0  0  0  0  0  0  0  0  0  0  0
  -31.5380   13.3140  -16.8870 C   0  0  0  0  0  0  0  0  0  0  0  0
  -32.8670   12.9930  -16.1790 C   0  0  0  0  0  0  0  0  0  0  0  0
  -35.5690   10.8840  -13.7140 C   0  0  0  0  0  0  0  0  0  0  0  0
  -35.0820   11.7220  -14.8980 C   0  0  0  0  0  0  0  0  0  0  0  0
  -29.0820   12.4570  -22.5940 N   0  0  0  0  0  0  0  0  0  0  0  0
  -29.1450   12.1970  -23.5410 H   0  0  0  0  0  0  0  0  0  0  0  0
  -27.6770   13.1110  -22.0090 S   0  0  0  0  0  0  0  0  0  0  0  0
  -26.6800   12.1060  -22.1270 O   0  0  0  0  0  0  0  0  0  0  0  0
  -27.5430   14.3900  -22.6120 O   0  0  0  0  0  0  0  0  0  0  0  0
  -27.9100   13.3880  -20.2850 C   0  0  0  0  0  0  0  0  0  0  0  0
  -27.7600   12.3400  -19.3910 C   0  0  0  0  0  0  0  0  0  0  0  0
  -27.9400   12.5480  -18.0390 C   0  0  0  0  0  0  0  0  0  0  0  0
  -28.2740   13.8110  -17.5720 C   0  0  0  0  0  0  0  0  0  0  0  0
  -28.4250   14.8670  -18.4720 C   0  0  0  0  0  0  0  0  0  0  0  0
  -28.7560   15.9920  -17.7210 N   0  0  0  0  0  0  0  0  0  0  0  0
  -28.9250   16.8940  -18.0780 H   0  0  0  0  0  0  0  0  0  0  0  0
  -28.8030   15.6370  -16.4230 C   0  0  0  0  0  0  0  0  0  0  0  0
  -29.0650   16.3860  -15.5010 O   0  0  0  0  0  0  0  0  0  0  0  0
  -28.5170   14.3270  -16.3010 N   0  0  0  0  0  0  0  0  0  0  0  0
  -28.4850   13.8200  -15.4580 H   0  0  0  0  0  0  0  0  0  0  0  0
  -28.2420   14.6490  -19.8290 C   0  0  0  0  0  0  0  0  0  0  0  0
  1  9  1  0  0  0  0
  2  1  1  0  0  0  0
  3  2  2  0  0  0  0
  4  5  2  0  0  0  0
  4  3  1  0  0  0  0
  5  6  1  0  0  0  0
  6  1  2  0  0  0  0
  7  8  1  0  0  0  0
  7 11  1  0  0  0  0
  9  7  1  0  0  0  0
 10  9  2  0  0  0  0
 12 11  1  6  0  0  0
 12 13  1  0  0  0  0
 12 20  1  0  0  0  0
 13 14  1  0  0  0  0
 15 13  1  0  0  0  0
 16 15  1  0  0  0  0
 17 16  1  0  0  0  0
 17 18  1  0  0  0  0
 18 13  1  0  0  0  0
 20 19  1  0  0  0  0
 21 23  1  0  0  0  0
 21  4  1  0  0  0  0
 22 21  1  0  0  0  0
 23 26  1  0  0  0  0
 24 23  2  0  0  0  0
 25 23  2  0  0  0  0
 26 37  2  0  0  0  0
 26 27  1  0  0  0  0
 27 28  2  0  0  0  0
 28 29  1  0  0  0  0
 29 35  1  0  0  0  0
 30 31  1  0  0  0  0
 30 29  2  0  0  0  0
 31 33  1  0  0  0  0
 32 31  1  0  0  0  0
 33 35  1  0  0  0  0
 33 34  2  0  0  0  0
 35 36  1  0  0  0  0
 37 30  1  0  0  0  0
M  END
>  <MODEL>
1

>  <REMARK>
 VINA RESULT:       2.5      0.000      0.000
  Name = ZINC31229550
                            x       y       z     vdW  Elec       q    Type
                         _______ _______ _______ _____ _____    ______ ____

>  <TORSDO>
F 8

>  <vina_score>
2.5

$$$$
ZINC16769863
 OpenBabel01081721543D

 32 34  0  0  1  0  0  0  0  0999 V2000
  -34.3460   11.8520  -16.0870 C   0  0  0  0  0  0  0  0  0  0  0  0
  -34.0920   12.4400  -17.4510 C   0  0  0  0  0  0  0  0  0  0  0  0
  -33.8560   11.6300  -18.5010 N   0  0  0  0  0  0  0  0  0  0  0  0
  -33.8510   10.6520  -18.3780 H   0  0  0  0  0  0  0  0  0  0  0  0
  -34.0990   13.6430  -17.6030 O   0  0  0  0  0  0  0  0  0  0  0  0
  -33.6200   12.1770  -19.7700 N   0  0  0  0  0  0  0  0  0  0  0  0
  -34.1890   12.9060  -20.1040 H   0  0  0  0  0  0  0  0  0  0  0  0
  -32.6140   11.7040  -20.5310 C   0  0  0  0  0  0  0  0  0  0  0  0
  -31.9130   10.8040  -20.1190 O   0  0  0  0  0  0  0  0  0  0  0  0
  -32.3600   12.2920  -21.8950 C   0  0  0  0  0  0  0  0  0  0  0  0
  -31.9290   13.7530  -21.7490 C   0  0  1  0  0  0  0  0  0  0  0  0
  -33.0990   14.5770  -21.1860 C   0  0  0  0  0  0  0  0  0  0  0  0
  -32.5490   15.9660  -20.7550 C   0  0  0  0  0  0  0  0  0  0  0  0
  -30.9500   15.4730  -19.9850 S   0  0  0  0  0  0  0  0  0  0  0  0
  -29.9300   16.3580  -20.4290 O   0  0  0  0  0  0  0  0  0  0  0  0
  -31.1490   15.2780  -18.5920 O   0  0  0  0  0  0  0  0  0  0  0  0
  -30.7150   13.8370  -20.7920 C   0  0  0  0  0  0  0  0  0  0  0  0
  -32.9460   10.8030  -15.6100 S   0  0  0  0  0  0  0  0  0  0  0  0
  -29.5100   13.0360  -17.3110 C   0  0  0  0  0  0  0  0  0  0  0  0
  -29.7840   11.8750  -17.8750 N   0  0  0  0  0  0  0  0  0  0  0  0
  -30.8300   11.1160  -17.4050 N   0  0  0  0  0  0  0  0  0  0  0  0
  -31.5610   11.5560  -16.3990 C   0  0  0  0  0  0  0  0  0  0  0  0
  -30.7720   13.1200  -16.0500 S   0  0  0  0  0  0  0  0  0  0  0  0
  -28.5110   13.9520  -17.6200 N   0  0  0  0  0  0  0  0  0  0  0  0
  -28.4000   14.7630  -17.0740 H   0  0  0  0  0  0  0  0  0  0  0  0
  -27.4910   14.5290  -22.3950 C   0  0  0  0  0  0  0  0  0  0  0  0
  -27.1430   13.9880  -21.0320 C   0  0  0  0  0  0  0  0  0  0  0  0
  -25.9810   13.2590  -20.8550 C   0  0  0  0  0  0  0  0  0  0  0  0
  -25.6570   12.7590  -19.6070 C   0  0  0  0  0  0  0  0  0  0  0  0
  -26.4940   12.9880  -18.5310 C   0  0  0  0  0  0  0  0  0  0  0  0
  -27.6620   13.7200  -18.7060 C   0  0  0  0  0  0  0  0  0  0  0  0
  -27.9840   14.2190  -19.9610 C   0  0  0  0  0  0  0  0  0  0  0  0
  1 18  1  0  0  0  0
  2  1  1  0  0  0  0
  3  4  1  0  0  0  0
  3  2  1  0  0  0  0
  5  2  2  0  0  0  0
  6  3  1  0  0  0  0
  7  6  1  0  0  0  0
  8  9  2  0  0  0  0
  8  6  1  0  0  0  0
 10  8  1  0  0  0  0
 11 10  1  1  0  0  0
 11 12  1  0  0  0  0
 11 17  1  0  0  0  0
 12 13  1  0  0  0  0
 13 14  1  0  0  0  0
 14 16  2  0  0  0  0
 15 14  2  0  0  0  0
 17 14  1  0  0  0  0
 19 23  1  0  0  0  0
 20 21  1  0  0  0  0
 20 19  2  0  0  0  0
 21 22  2  0  0  0  0
 22 23  1  0  0  0  0
 22 18  1  0  0  0  0
 24 19  1  0  0  0  0
 24 25  1  0  0  0  0
 26 27  1  0  0  0  0
 27 28  2  0  0  0  0
 27 32  1  0  0  0  0
 28 29  1  0  0  0  0
 29 30  2  0  0  0  0
 31 30  1  0  0  0  0
 31 24  1  0  0  0  0
 32 31  2  0  0  0  0
M  END
>  <MODEL>
1

>  <REMARK>
 VINA RESULT:       2.7      0.000      0.000
  Name = ZINC16769863
                            x       y       z     vdW  Elec       q    Type
                         _______ _______ _______ _____ _____    ______ ____

>  <TORSDO>
F 8

>  <vina_score>
2.7

$$$$
ZINC30521525
 OpenBabel01081721383D

 29 30  0  0  1  0  0  0  0  0999 V2000
  -33.2820   12.0600  -17.2530 C   0  0  0  0  0  0  0  0  0  0  0  0
  -32.0750   11.5940  -16.7270 C   0  0  0  0  0  0  0  0  0  0  0  0
  -30.9260   11.6530  -17.4840 C   0  0  0  0  0  0  0  0  0  0  0  0
  -30.9660   12.1860  -18.7690 C   0  0  0  0  0  0  0  0  0  0  0  0
  -32.1660   12.6560  -19.2930 C   0  0  0  0  0  0  0  0  0  0  0  0
  -33.3180   12.5950  -18.5430 C   0  0  0  0  0  0  0  0  0  0  0  0
  -34.7250   10.9480  -15.6190 N   0  0  0  0  0  0  0  0  0  0  0  0
  -34.0540   10.2300  -15.5550 H   0  0  0  0  0  0  0  0  0  0  0  0
  -34.5160   11.9920  -16.4450 C   0  0  0  0  0  0  0  0  0  0  0  0
  -35.3440   12.8800  -16.5260 O   0  0  0  0  0  0  0  0  0  0  0  0
  -35.9490   10.8820  -14.8180 C   0  0  0  0  0  0  0  0  0  0  0  0
  -35.6070   11.1130  -13.3450 C   0  0  0  0  0  0  0  0  0  0  0  0
  -33.2650   10.8110  -13.8790 C   0  0  0  0  0  0  0  0  0  0  0  0
  -34.2580   11.6840  -13.2380 N   0  0  0  0  0  0  0  0  0  0  0  0
  -34.0230   11.7500  -12.2470 H   0  0  0  0  0  0  0  0  0  0  0  0
  -34.2130   13.0380  -13.8050 C   0  0  0  0  0  0  0  0  0  0  0  0
  -29.8000   12.2490  -19.5320 N   0  0  0  0  0  0  0  0  0  0  0  0
  -29.8390   12.1000  -20.5040 H   0  0  0  0  0  0  0  0  0  0  0  0
  -28.6200   12.5150  -18.9370 C   0  0  0  0  0  0  0  0  0  0  0  0
  -28.5560   12.6070  -17.7300 O   0  0  0  0  0  0  0  0  0  0  0  0
  -27.3800   12.6990  -19.7730 C   0  0  2  0  0  0  0  0  0  0  0  0
  -26.3340   13.4820  -18.9760 C   0  0  0  0  0  0  0  0  0  0  0  0
  -26.7700   14.9100  -18.8140 C   0  0  0  0  0  0  0  0  0  0  0  0
  -27.6890   15.4730  -19.5320 C   0  0  0  0  0  0  0  0  0  0  0  0
  -28.4510   14.7760  -20.6190 C   0  0  0  0  0  0  0  0  0  0  0  0
  -27.7240   13.4970  -21.0370 C   0  0  2  0  0  0  0  0  0  0  0  0
  -28.6170   12.6730  -21.9280 C   0  0  0  0  0  0  0  0  0  0  0  0
  -29.8960   13.0350  -22.1160 O   0  0  0  0  0  0  0  0  0  0  0  0
  -28.1830   11.6860  -22.4730 O   0  0  0  0  0  0  0  0  0  0  0  0
  1  2  1  0  0  0  0
  1  9  1  0  0  0  0
  3  2  2  0  0  0  0
  4  3  1  0  0  0  0
  5  4  2  0  0  0  0
  5  6  1  0  0  0  0
  6  1  2  0  0  0  0
  7  8  1  0  0  0  0
  7 11  1  0  0  0  0
  9  7  1  0  0  0  0
 10  9  2  0  0  0  0
 11 12  1  0  0  0  0
 12 14  1  0  0  0  0
 13 14  1  0  0  0  0
 14 15  1  0  0  0  0
 16 14  1  0  0  0  0
 17 19  1  0  0  0  0
 17  4  1  0  0  0  0
 18 17  1  0  0  0  0
 19 20  2  0  0  0  0
 21 22  1  0  0  0  0
 21 19  1  1  0  0  0
 22 23  1  0  0  0  0
 24 23  2  0  0  0  0
 25 24  1  0  0  0  0
 26 27  1  6  0  0  0
 26 25  1  0  0  0  0
 26 21  1  0  0  0  0
 28 27  1  0  0  0  0
 29 27  2  0  0  0  0
M  END
>  <MODEL>
1

>  <REMARK>
 VINA RESULT:       2.7      0.000      0.000
  Name = ZINC30521525
                            x       y       z     vdW  Elec       q    Type
                         _______ _______ _______ _____ _____    ______ ____

>  <TORSDO>
F 7

>  <vina_score>
2.7

$$$$
ZINC30969187
 OpenBabel01081721593D

 32 33  0  0  1  0  0  0  0  0999 V2000
  -32.4800   13.4170  -21.6440 C   0  0  0  0  0  0  0  0  0  0  0  0
  -33.9910   12.4640  -17.7590 C   0  0  2  0  0  0  0  0  0  0  0  0
  -34.8780   12.2450  -18.9880 C   0  0  0  0  0  0  0  0  0  0  0  0
  -34.3560   13.0970  -20.1470 C   0  0  0  0  0  0  0  0  0  0  0  0
  -32.9690   12.7170  -20.4480 N   0  0  0  0  0  0  0  0  0  0  0  0
  -32.9550   11.7160  -20.6410 H   0  0  0  0  0  0  0  0  0  0  0  0
  -32.0900   12.9640  -19.2980 C   0  0  0  0  0  0  0  0  0  0  0  0
  -32.5450   12.1070  -18.1140 C   0  0  0  0  0  0  0  0  0  0  0  0
  -33.8760   11.6600  -15.4230 N   0  0  0  0  0  0  0  0  0  0  0  0
  -33.1370   12.2930  -15.2750 H   0  0  0  0  0  0  0  0  0  0  0  0
  -34.4650   11.5830  -16.6320 C   0  0  0  0  0  0  0  0  0  0  0  0
  -35.3760   10.8040  -16.8140 O   0  0  0  0  0  0  0  0  0  0  0  0
  -34.3360   10.8040  -14.3270 C   0  0  0  0  0  0  0  0  0  0  0  0
  -35.4990   11.4840  -13.6010 C   0  0  0  0  0  0  0  0  0  0  0  0
  -33.9480   13.3280  -14.2630 C   0  0  0  0  0  0  0  0  0  0  0  0
  -35.3120   13.0020  -13.6500 C   0  0  0  0  0  0  0  0  0  0  0  0
  -31.1200   14.0010  -21.3620 C   0  0  0  0  0  0  0  0  0  0  0  0
  -31.0140   15.1840  -20.7240 N   0  0  0  0  0  0  0  0  0  0  0  0
  -31.8240   15.6650  -20.4420 H   0  0  0  0  0  0  0  0  0  0  0  0
  -30.1210   13.4080  -21.7110 O   0  0  0  0  0  0  0  0  0  0  0  0
  -29.7490   15.7280  -20.4630 N   0  0  0  0  0  0  0  0  0  0  0  0
  -29.1820   16.0350  -21.2070 H   0  0  0  0  0  0  0  0  0  0  0  0
  -29.3090   15.8300  -19.1940 C   0  0  0  0  0  0  0  0  0  0  0  0
  -30.0070   15.4510  -18.2770 O   0  0  0  0  0  0  0  0  0  0  0  0
  -27.9490   16.4150  -18.9120 C   0  0  0  0  0  0  0  0  0  0  0  0
  -26.8870   15.3190  -19.0290 C   0  0  1  0  0  0  0  0  0  0  0  0
  -27.1130   14.2720  -17.9260 C   0  0  0  0  0  0  0  0  0  0  0  0
  -26.2360   13.0290  -18.2520 C   0  0  0  0  0  0  0  0  0  0  0  0
  -26.4720   12.9210  -20.0770 S   0  0  0  0  0  0  0  0  0  0  0  0
  -25.2130   12.6830  -20.6930 O   0  0  0  0  0  0  0  0  0  0  0  0
  -27.5610   12.0490  -20.3510 O   0  0  0  0  0  0  0  0  0  0  0  0
  -26.9910   14.6510  -20.4210 C   0  0  0  0  0  0  0  0  0  0  0  0
  1 17  1  0  0  0  0
  1  5  1  0  0  0  0
  2 11  1  1  0  0  0
  3  2  1  0  0  0  0
  4  3  1  0  0  0  0
  5  4  1  0  0  0  0
  5  7  1  0  0  0  0
  6  5  1  0  0  0  0
  7  8  1  0  0  0  0
  8  2  1  0  0  0  0
  9 10  1  0  0  0  0
  9 13  1  0  0  0  0
 11  9  1  0  0  0  0
 12 11  2  0  0  0  0
 13 14  1  0  0  0  0
 15 16  1  0  0  0  0
 16 14  1  0  0  0  0
 17 18  1  0  0  0  0
 18 21  1  0  0  0  0
 18 19  1  0  0  0  0
 20 17  2  0  0  0  0
 21 23  1  0  0  0  0
 22 21  1  0  0  0  0
 23 25  1  0  0  0  0
 23 24  2  0  0  0  0
 26 25  1  6  0  0  0
 26 27  1  0  0  0  0
 28 27  1  0  0  0  0
 29 28  1  0  0  0  0
 30 29  2  0  0  0  0
 31 29  2  0  0  0  0
 32 29  1  0  0  0  0
 32 26  1  0  0  0  0
M  END
>  <MODEL>
1

>  <REMARK>
 VINA RESULT:       5.4      0.000      0.000
  Name = ZINC30969187
                            x       y       z     vdW  Elec       q    Type
                         _______ _______ _______ _____ _____    ______ ____

>  <TORSDO>
F 9

>  <vina_score>
5.4

$$$$
ZINC25187303
 OpenBabel01081721443D

 33 34  0  0  1  0  0  0  0  0999 V2000
  -33.2990   12.1990  -16.5470 C   0  0  0  0  0  0  0  0  0  0  0  0
  -32.2320   12.9010  -16.9740 N   0  0  0  0  0  0  0  0  0  0  0  0
  -31.2510   13.4310  -16.0180 C   0  0  0  0  0  0  0  0  0  0  0  0
  -31.0850   14.9340  -16.2620 C   0  0  0  0  0  0  0  0  0  0  0  0
  -30.7220   15.1720  -17.7290 C   0  0  2  0  0  0  0  0  0  0  0  0
  -31.8520   14.6580  -18.6260 C   0  0  0  0  0  0  0  0  0  0  0  0
  -32.0260   13.1510  -18.4080 C   0  0  2  0  0  0  0  0  0  0  0  0
  -34.1590   11.8620  -17.3320 O   0  0  0  0  0  0  0  0  0  0  0  0
  -29.4840   14.4570  -18.0490 N   0  0  0  0  0  0  0  0  0  0  0  0
  -29.1530   13.7530  -17.4450 H   0  0  0  0  0  0  0  0  0  0  0  0
  -28.7980   14.7640  -19.1670 C   0  0  0  0  0  0  0  0  0  0  0  0
  -29.2070   15.6330  -19.9120 O   0  0  0  0  0  0  0  0  0  0  0  0
  -27.5450   14.0420  -19.4910 C   0  0  0  0  0  0  0  0  0  0  0  0
  -27.0310   14.0440  -20.7910 C   0  0  0  0  0  0  0  0  0  0  0  0
  -25.8570   13.3620  -21.0480 C   0  0  0  0  0  0  0  0  0  0  0  0
  -25.2310   12.7080  -20.0900 N   0  0  0  0  0  0  0  0  0  0  0  0
  -25.6860   12.6760  -18.8520 C   0  0  0  0  0  0  0  0  0  0  0  0
  -26.8480   13.3350  -18.5060 C   0  0  0  0  0  0  0  0  0  0  0  0
  -33.2240   12.6640  -19.1830 C   0  0  0  0  0  0  0  0  0  0  0  0
  -33.2330   11.4180  -19.6960 N   0  0  0  0  0  0  0  0  0  0  0  0
  -32.4580   10.8260  -19.5650 H   0  0  0  0  0  0  0  0  0  0  0  0
  -34.1800   13.3930  -19.3430 O   0  0  0  0  0  0  0  0  0  0  0  0
  -34.3980   10.9440  -20.4480 C   0  0  0  0  0  0  0  0  0  0  0  0
  -34.0600   10.9020  -21.9390 C   0  0  0  0  0  0  0  0  0  0  0  0
  -32.5430   10.8040  -22.1160 C   0  0  0  0  0  0  0  0  0  0  0  0
  -31.9280   12.1690  -21.9420 C   0  0  0  0  0  0  0  0  0  0  0  0
  -32.5930   13.1600  -22.1320 O   0  0  0  0  0  0  0  0  0  0  0  0
  -30.6410   12.2840  -21.5770 O   0  0  0  0  0  0  0  0  0  0  0  0
  -29.7530   11.1960  -21.9450 C   0  0  0  0  0  0  0  0  0  0  0  0
  -33.7850   13.0780  -14.2790 C   0  0  0  0  0  0  0  0  0  0  0  0
  -33.4240   11.8320  -15.0900 C   0  0  1  0  0  0  0  0  0  0  0  0
  -34.4490   10.8480  -14.9330 O   0  0  0  0  0  0  0  0  0  0  0  0
  -35.2740   11.2810  -14.6620 H   0  0  0  0  0  0  0  0  0  0  0  0
  2  1  1  0  0  0  0
  2  3  1  0  0  0  0
  4  3  1  0  0  0  0
  5  9  1  6  0  0  0
  5  4  1  0  0  0  0
  6  7  1  0  0  0  0
  6  5  1  0  0  0  0
  7 19  1  6  0  0  0
  7  2  1  0  0  0  0
  8  1  2  0  0  0  0
  9 10  1  0  0  0  0
 11  9  1  0  0  0  0
 12 11  2  0  0  0  0
 13 11  1  0  0  0  0
 13 18  2  0  0  0  0
 14 13  1  0  0  0  0
 15 14  2  0  0  0  0
 15 16  1  0  0  0  0
 16 17  2  0  0  0  0
 17 18  1  0  0  0  0
 20 21  1  0  0  0  0
 20 19  1  0  0  0  0
 22 19  2  0  0  0  0
 23 20  1  0  0  0  0
 24 23  1  0  0  0  0
 25 26  1  0  0  0  0
 25 24  1  0  0  0  0
 26 28  1  0  0  0  0
 27 26  2  0  0  0  0
 29 28  1  0  0  0  0
 31  1  1  6  0  0  0
 31 32  1  0  0  0  0
 31 30  1  0  0  0  0
 32 33  1  0  0  0  0
M  END
>  <MODEL>
1

>  <REMARK>
 VINA RESULT:       6.2      0.000      0.000
  Name = ZINC25187303
                            x       y       z     vdW  Elec       q    Type
                         _______ _______ _______ _____ _____    ______ ____

>  <TORSDO>
F 10

>  <vina_score>
6.2

$$$$
ZINC27856025
 OpenBabel01081721433D

 36 39  0  0  1  0  0  0  0  0999 V2000
  -31.2250   10.8600  -22.2050 C   0  0  0  0  0  0  0  0  0  0  0  0
  -29.9120   11.1700  -22.4980 C   0  0  0  0  0  0  0  0  0  0  0  0
  -29.4490   12.4660  -22.3220 C   0  0  0  0  0  0  0  0  0  0  0  0
  -30.3070   13.4530  -21.8560 C   0  0  0  0  0  0  0  0  0  0  0  0
  -31.6220   13.1460  -21.5690 C   0  0  0  0  0  0  0  0  0  0  0  0
  -32.0850   11.8480  -21.7450 C   0  0  0  0  0  0  0  0  0  0  0  0
  -28.1150   12.7780  -22.6130 N   0  0  0  0  0  0  0  0  0  0  0  0
  -27.6420   12.3000  -23.3330 H   0  0  0  0  0  0  0  0  0  0  0  0
  -27.4760   13.7310  -21.9050 C   0  0  0  0  0  0  0  0  0  0  0  0
  -26.1670   13.9680  -22.1210 N   0  0  0  0  0  0  0  0  0  0  0  0
  -25.6760   13.4430  -22.7940 H   0  0  0  0  0  0  0  0  0  0  0  0
  -28.0820   14.3790  -21.0730 O   0  0  0  0  0  0  0  0  0  0  0  0
  -25.4730   15.0040  -21.3520 C   0  0  0  0  0  0  0  0  0  0  0  0
  -25.3230   14.5470  -19.9000 C   0  0  2  0  0  0  0  0  0  0  0  0
  -25.4910   13.0150  -19.7970 C   0  0  0  0  0  0  0  0  0  0  0  0
  -26.2490   12.8080  -18.4670 C   0  0  0  0  0  0  0  0  0  0  0  0
  -26.4500   14.2410  -17.9230 C   0  0  0  0  0  0  0  0  0  0  0  0
  -26.3880   15.0910  -19.0890 O   0  0  0  0  0  0  0  0  0  0  0  0
  -33.4200   11.5350  -21.4530 N   0  0  0  0  0  0  0  0  0  0  0  0
  -34.1170   11.6690  -22.1350 H   0  0  0  0  0  0  0  0  0  0  0  0
  -33.7480   11.0510  -20.2400 C   0  0  0  0  0  0  0  0  0  0  0  0
  -32.8800   10.8070  -19.4280 O   0  0  0  0  0  0  0  0  0  0  0  0
  -35.1940   10.8130  -19.8890 C   0  0  0  0  0  0  0  0  0  0  0  0
  -35.4020   11.0450  -18.3910 C   0  0  0  0  0  0  0  0  0  0  0  0
  -35.0280   12.4860  -18.0410 C   0  0  0  0  0  0  0  0  0  0  0  0
  -33.6360   12.5330  -17.5880 N   0  0  0  0  0  0  0  0  0  0  0  0
  -32.6840   13.3190  -18.1370 C   0  0  0  0  0  0  0  0  0  0  0  0
  -31.4310   13.0360  -17.3480 C   0  0  0  0  0  0  0  0  0  0  0  0
  -31.8400   12.0400  -16.3550 N   0  0  0  0  0  0  0  0  0  0  0  0
  -30.9070   14.3090  -16.6710 C   0  0  0  0  0  0  0  0  0  0  0  0
  -29.3650   14.1520  -16.7190 C   0  0  0  0  0  0  0  0  0  0  0  0
  -29.1300   13.4810  -18.0960 C   0  0  0  0  0  0  0  0  0  0  0  0
  -30.3150   12.5020  -18.2480 C   0  0  0  0  0  0  0  0  0  0  0  0
  -32.8100   14.0870  -19.0660 O   0  0  0  0  0  0  0  0  0  0  0  0
  -33.1500   11.8070  -16.5730 C   0  0  0  0  0  0  0  0  0  0  0  0
  -33.8140   11.0250  -15.9220 O   0  0  0  0  0  0  0  0  0  0  0  0
  1  6  2  0  0  0  0
  2  3  2  0  0  0  0
  2  1  1  0  0  0  0
  3  4  1  0  0  0  0
  4  5  2  0  0  0  0
  6  5  1  0  0  0  0
  6 19  1  0  0  0  0
  7  3  1  0  0  0  0
  7  9  1  0  0  0  0
  8  7  1  0  0  0  0
  9 12  2  0  0  0  0
 10  9  1  0  0  0  0
 10 13  1  0  0  0  0
 11 10  1  0  0  0  0
 14 13  1  6  0  0  0
 14 15  1  0  0  0  0
 14 18  1  0  0  0  0
 15 16  1  0  0  0  0
 16 17  1  0  0  0  0
 18 17  1  0  0  0  0
 19 21  1  0  0  0  0
 20 19  1  0  0  0  0
 21 23  1  0  0  0  0
 21 22  2  0  0  0  0
 23 24  1  0  0  0  0
 24 25  1  0  0  0  0
 25 26  1  0  0  0  0
 26 35  1  0  0  0  0
 27 26  1  0  0  0  0
 27 28  1  0  0  0  0
 28 30  1  0  0  0  0
 28 29  1  0  0  0  0
 31 30  1  0  0  0  0
 32 31  1  0  0  0  0
 33 32  1  0  0  0  0
 33 28  1  0  0  0  0
 34 27  2  0  0  0  0
 35 29  1  0  0  0  0
 35 36  2  0  0  0  0
M  END
>  <MODEL>
1

>  <REMARK>
 VINA RESULT:       7.8      0.000      0.000
  Name = ZINC27856025
                            x       y       z     vdW  Elec       q    Type
                         _______ _______ _______ _____ _____    ______ ____

>  <TORSDO>
F 8

>  <vina_score>
7.8

$$$$
ZINC13216929
 OpenBabel01081721383D

 29 30  0  0  0  0  0  0  0  0999 V2000
  -31.3850   12.1540  -18.3330 C   0  0  0  0  0  0  0  0  0  0  0  0
  -32.7120   12.4140  -18.6630 C   0  0  0  0  0  0  0  0  0  0  0  0
  -33.7070   12.2010  -17.7360 C   0  0  0  0  0  0  0  0  0  0  0  0
  -33.3840   11.7230  -16.4630 C   0  0  0  0  0  0  0  0  0  0  0  0
  -32.0500   11.4680  -16.1340 C   0  0  0  0  0  0  0  0  0  0  0  0
  -31.0600   11.6770  -17.0670 C   0  0  0  0  0  0  0  0  0  0  0  0
  -29.3740   13.2230  -19.0010 C   0  0  0  0  0  0  0  0  0  0  0  0
  -30.3800   12.3700  -19.2740 N   0  0  0  0  0  0  0  0  0  0  0  0
  -30.4050   11.8980  -20.1380 H   0  0  0  0  0  0  0  0  0  0  0  0
  -29.2890   13.7320  -17.9000 O   0  0  0  0  0  0  0  0  0  0  0  0
  -28.9710   11.7100  -21.6760 C   0  0  0  0  0  0  0  0  0  0  0  0
  -28.2030   12.8690  -21.2160 N   0  0  0  0  0  0  0  0  0  0  0  0
  -27.1890   13.4770  -21.8750 C   0  0  0  0  0  0  0  0  0  0  0  0
  -26.7630   14.5010  -21.0980 C   0  0  0  0  0  0  0  0  0  0  0  0
  -27.5000   14.5220  -19.9910 N   0  0  0  0  0  0  0  0  0  0  0  0
  -28.3750   13.5400  -20.0380 C   0  0  0  0  0  0  0  0  0  0  0  0
  -25.6650   15.4400  -21.4260 N   0  0  0  0  0  0  0  0  0  0  0  0
  -25.2150   15.4800  -22.5570 O   0  0  0  0  0  0  0  0  0  0  0  0
  -25.2130   16.1740  -20.5640 O   0  0  0  0  0  0  0  0  0  0  0  0
  -34.4490   11.4940  -15.4670 C   0  0  0  0  0  0  0  0  0  0  0  0
  -34.1360   11.0360  -14.2390 N   0  0  0  0  0  0  0  0  0  0  0  0
  -33.1960   10.8590  -14.0050 H   0  0  0  0  0  0  0  0  0  0  0  0
  -35.6090   11.7130  -15.7570 O   0  0  0  0  0  0  0  0  0  0  0  0
  -35.1920   10.8030  -13.2520 C   0  0  0  0  0  0  0  0  0  0  0  0
  -36.1880   11.9650  -13.2860 C   0  0  0  0  0  0  0  0  0  0  0  0
  -35.4440   13.2260  -13.4860 N   0  0  0  0  0  0  0  0  0  0  0  0
  -35.7330   13.8980  -12.7760 H   0  0  0  0  0  0  0  0  0  0  0  0
  -35.7430   13.7810  -14.8230 C   0  0  0  0  0  0  0  0  0  0  0  0
  -33.9920   12.9820  -13.3530 C   0  0  0  0  0  0  0  0  0  0  0  0
  1  6  1  0  0  0  0
  2  1  2  0  0  0  0
  2  3  1  0  0  0  0
  3  4  2  0  0  0  0
  4  5  1  0  0  0  0
  4 20  1  0  0  0  0
  6  5  2  0  0  0  0
  7 10  2  0  0  0  0
  8  7  1  0  0  0  0
  8  1  1  0  0  0  0
  9  8  1  0  0  0  0
 11 12  1  0  0  0  0
 12 16  1  0  0  0  0
 13 12  1  0  0  0  0
 13 14  2  0  0  0  0
 14 15  1  0  0  0  0
 16 15  2  0  0  0  0
 16  7  1  0  0  0  0
 17 14  1  0  0  0  0
 17 19  2  0  0  0  0
 18 17  2  0  0  0  0
 20 21  1  0  0  0  0
 21 22  1  0  0  0  0
 21 24  1  0  0  0  0
 23 20  2  0  0  0  0
 25 24  1  0  0  0  0
 26 29  1  0  0  0  0
 26 25  1  0  0  0  0
 26 27  1  0  0  0  0
 28 26  1  0  0  0  0
M  END
>  <MODEL>
1

>  <REMARK>
 VINA RESULT:      11.0      0.000      0.000
  Name = ZINC13216929
                            x       y       z     vdW  Elec       q    Type
                         _______ _______ _______ _____ _____    ______ ____

>  <TORSDO>
F 7

>  <vina_score>
11.0

$$$$
ZINC30516950
 OpenBabel01081721373D

 28 30  0  0  0  0  0  0  0  0999 V2000
  -31.2420   15.0020  -18.8540 C   0  0  0  0  0  0  0  0  0  0  0  0
  -30.9610   13.9000  -18.1300 N   0  0  0  0  0  0  0  0  0  0  0  0
  -30.1580   13.3680  -18.3340 H   0  0  0  0  0  0  0  0  0  0  0  0
  -32.2350   15.6560  -18.6060 O   0  0  0  0  0  0  0  0  0  0  0  0
  -28.5530   15.7130  -21.2200 C   0  0  0  0  0  0  0  0  0  0  0  0
  -28.9620   15.1310  -20.0490 C   0  0  0  0  0  0  0  0  0  0  0  0
  -30.3390   15.4160  -19.9490 C   0  0  0  0  0  0  0  0  0  0  0  0
  -30.6750   16.1190  -21.0140 N   0  0  0  0  0  0  0  0  0  0  0  0
  -29.6540   16.3100  -21.7670 N   0  0  0  0  0  0  0  0  0  0  0  0
  -29.6610   16.8120  -22.6140 H   0  0  0  0  0  0  0  0  0  0  0  0
  -25.2370   15.0430  -22.6120 C   0  0  0  0  0  0  0  0  0  0  0  0
  -26.4770   14.5910  -22.1220 C   0  0  0  0  0  0  0  0  0  0  0  0
  -27.1900   15.7000  -21.7800 C   0  0  0  0  0  0  0  0  0  0  0  0
  -26.4340   16.7820  -22.0460 O   0  0  0  0  0  0  0  0  0  0  0  0
  -25.2500   16.3880  -22.5450 C   0  0  0  0  0  0  0  0  0  0  0  0
  -31.8130   13.5110  -17.0880 N   0  0  0  0  0  0  0  0  0  0  0  0
  -32.3890   14.1780  -16.6480 H   0  0  0  0  0  0  0  0  0  0  0  0
  -31.8440   12.2250  -16.6870 C   0  0  0  0  0  0  0  0  0  0  0  0
  -31.1310   11.4010  -17.2310 O   0  0  0  0  0  0  0  0  0  0  0  0
  -32.7360   11.8180  -15.5960 C   0  0  0  0  0  0  0  0  0  0  0  0
  -34.0240   12.2630  -15.3880 C   0  0  0  0  0  0  0  0  0  0  0  0
  -34.5020   11.6180  -14.2440 C   0  0  0  0  0  0  0  0  0  0  0  0
  -33.5160   10.8140  -13.7780 C   0  0  0  0  0  0  0  0  0  0  0  0
  -32.4380   10.9260  -14.5910 N   0  0  0  0  0  0  0  0  0  0  0  0
  -31.5830   10.4500  -14.4820 H   0  0  0  0  0  0  0  0  0  0  0  0
  -35.8440   11.7870  -13.6430 N   0  0  0  0  0  0  0  0  0  0  0  0
  -36.4580   10.8150  -13.2410 O   0  0  0  0  0  0  0  0  0  0  0  0
  -36.3360   12.8970  -13.5530 O   0  0  0  0  0  0  0  0  0  0  0  0
  1  4  2  0  0  0  0
  1  2  1  0  0  0  0
  2 16  1  0  0  0  0
  3  2  1  0  0  0  0
  5  6  2  0  0  0  0
  6  7  1  0  0  0  0
  7  1  1  0  0  0  0
  8  7  2  0  0  0  0
  9  5  1  0  0  0  0
  9  8  1  0  0  0  0
 10  9  1  0  0  0  0
 11 15  2  0  0  0  0
 11 12  1  0  0  0  0
 12 13  2  0  0  0  0
 13  5  1  0  0  0  0
 14 13  1  0  0  0  0
 15 14  1  0  0  0  0
 16 18  1  0  0  0  0
 16 17  1  0  0  0  0
 18 20  1  0  0  0  0
 19 18  2  0  0  0  0
 20 21  2  0  0  0  0
 20 24  1  0  0  0  0
 21 22  1  0  0  0  0
 22 23  2  0  0  0  0
 22 26  1  0  0  0  0
 24 25  1  0  0  0  0
 24 23  1  0  0  0  0
 26 28  2  0  0  0  0
 26 27  2  0  0  0  0
M  END
>  <MODEL>
1

>  <REMARK>
 VINA RESULT:      33.9      0.000      0.000
  Name = ZINC30516950
                            x       y       z     vdW  Elec       q    Type
                         _______ _______ _______ _____ _____    ______ ____

>  <TORSDO>
F 5

>  <vina_score>
33.9

$$$$
ZINC04661650
 OpenBabel01081721423D

 30 32  0  0  1  0  0  0  0  0999 V2000
  -28.9970   14.7120  -19.6390 C   0  0  0  0  0  0  0  0  0  0  0  0
  -29.9940   14.2710  -20.4870 C   0  0  0  0  0  0  0  0  0  0  0  0
  -31.2970   14.1480  -20.0210 C   0  0  0  0  0  0  0  0  0  0  0  0
  -31.5960   14.4690  -18.7030 C   0  0  0  0  0  0  0  0  0  0  0  0
  -30.5980   14.9090  -17.8560 C   0  0  0  0  0  0  0  0  0  0  0  0
  -29.2970   15.0320  -18.3220 C   0  0  0  0  0  0  0  0  0  0  0  0
  -32.3070   13.7020  -20.8790 N   0  0  0  0  0  0  0  0  0  0  0  0
  -33.1150   14.8260  -21.3710 C   0  0  0  0  0  0  0  0  0  0  0  0
  -34.1560   14.3060  -22.3660 C   0  0  0  0  0  0  0  0  0  0  0  0
  -35.0130   13.3130  -21.6850 N   0  0  0  0  0  0  0  0  0  0  0  0
  -35.4580   13.7560  -20.8800 H   0  0  0  0  0  0  0  0  0  0  0  0
  -34.1920   12.1770  -21.2150 C   0  0  0  0  0  0  0  0  0  0  0  0
  -33.1520   12.6970  -20.2210 C   0  0  0  0  0  0  0  0  0  0  0  0
  -36.0620   12.8320  -22.6090 C   0  0  0  0  0  0  0  0  0  0  0  0
  -36.1670   11.3110  -22.4820 C   0  0  0  0  0  0  0  0  0  0  0  0
  -35.1270   10.8310  -21.6270 O   0  0  0  0  0  0  0  0  0  0  0  0
  -34.9640    9.8920  -21.8130 H   0  0  0  0  0  0  0  0  0  0  0  0
  -28.2850   15.4810  -17.4620 N   0  0  0  0  0  0  0  0  0  0  0  0
  -27.7410   16.2630  -17.7080 H   0  0  0  0  0  0  0  0  0  0  0  0
  -28.0580   14.8410  -16.2970 C   0  0  0  0  0  0  0  0  0  0  0  0
  -28.7810   13.9310  -15.9540 O   0  0  0  0  0  0  0  0  0  0  0  0
  -26.9040   15.2580  -15.4210 C   0  0  1  0  0  0  0  0  0  0  0  0
  -26.9240   16.7770  -15.2330 C   0  0  0  0  0  0  0  0  0  0  0  0
  -25.9530   17.1780  -14.1610 C   0  0  0  0  0  0  0  0  0  0  0  0
  -25.4550   16.3590  -13.2920 C   0  0  0  0  0  0  0  0  0  0  0  0
  -25.7690   14.8930  -13.2400 C   0  0  0  0  0  0  0  0  0  0  0  0
  -27.0380   14.5980  -14.0430 C   0  0  2  0  0  0  0  0  0  0  0  0
  -27.1970   13.1080  -14.2090 C   0  0  0  0  0  0  0  0  0  0  0  0
  -27.3440   12.5810  -15.4340 O   0  0  0  0  0  0  0  0  0  0  0  0
  -27.1910   12.3890  -13.2390 O   0  0  0  0  0  0  0  0  0  0  0  0
  1  6  2  0  0  0  0
  2  3  2  0  0  0  0
  2  1  1  0  0  0  0
  3  4  1  0  0  0  0
  4  5  2  0  0  0  0
  6  5  1  0  0  0  0
  6 18  1  0  0  0  0
  7 13  1  0  0  0  0
  7  3  1  0  0  0  0
  8  7  1  0  0  0  0
  9 10  1  0  0  0  0
  9  8  1  0  0  0  0
 10 12  1  0  0  0  0
 10 11  1  0  0  0  0
 12 13  1  0  0  0  0
 14 15  1  0  0  0  0
 14 10  1  0  0  0  0
 15 16  1  0  0  0  0
 17 16  1  0  0  0  0
 18 20  1  0  0  0  0
 19 18  1  0  0  0  0
 20 21  2  0  0  0  0
 22 20  1  6  0  0  0
 22 23  1  0  0  0  0
 22 27  1  0  0  0  0
 23 24  1  0  0  0  0
 24 25  2  0  0  0  0
 25 26  1  0  0  0  0
 27 28  1  6  0  0  0
 27 26  1  0  0  0  0
 28 30  1  0  0  0  0
 29 28  2  0  0  0  0
M  END
>  <MODEL>
1

>  <REMARK>
 VINA RESULT:     123.3      0.000      0.000
  Name = ZINC04661650
                            x       y       z     vdW  Elec       q    Type
                         _______ _______ _______ _____ _____    ______ ____

>  <TORSDO>
F 7

>  <vina_score>
123.3

$$$$
