ZINC24869044
      BALL 1.4.0 (Jan  4 2012, 23:22:29)

 49 50  0999  0  0  0  0  0  0999 V2000
    4.4926    5.9996   -3.0823 C   0  0  0  0  0  0  0  0  0  0  0  0
    3.3911    6.6280   -2.5316 C   0  0  0  0  0  0  0  0  0  0  0  0
    3.5588    7.6038   -1.5669 C   0  0  0  0  0  0  0  0  0  0  0  0
    4.8333    7.9616   -1.1574 C   0  0  0  0  0  0  0  0  0  0  0  0
    5.9419    7.3287   -1.7113 C   0  0  0  0  0  0  0  0  0  0  0  0
    5.7667    6.3477   -2.6741 C   0  0  0  0  0  0  0  0  0  0  0  0
    7.1946    7.6721   -1.3084 O   0  0  0  0  0  0  0  0  0  0  0  0
    5.0002    8.9250   -0.2123 O   0  0  0  0  0  0  0  0  0  0  0  0
    5.3483   10.2323   -0.6729 C   0  0  0  0  0  0  0  0  0  0  0  0
    6.6937   10.6434   -0.0717 C   0  0  0  0  0  0  0  0  0  0  0  0
    6.4865   11.1252    1.3411 C   0  0  0  0  0  0  0  0  0  0  0  0
    5.4124   10.9713    1.8828 O   0  0  0  0  0  0  0  0  0  0  0  0
    7.4947   11.7271    2.0026 N   0  0  0  0  0  0  0  0  0  0  0  0
    7.8685   11.3002    3.3596 C   0  0  0  0  0  0  0  0  0  0  0  0
    9.3838   11.0444    3.3842 C   0  0  0  0  0  0  0  0  0  0  0  0
   10.0847   12.2388    2.8943 N   0  0  0  0  0  0  0  0  0  0  0  0
    9.7431   12.5202    1.4937 C   0  0  0  0  0  0  0  0  0  0  0  0
    8.2465   12.8325    1.3892 C   0  0  0  0  0  0  0  0  0  0  0  0
   11.5375   12.1037    3.0650 C   0  0  0  0  0  0  0  0  0  0  0  0
   11.9901   10.7452    2.5259 C   0  0  0  0  0  0  0  0  0  0  0  0
   13.5142   10.6439    2.6138 C   0  0  0  0  0  0  0  0  0  0  0  0
   14.0285    8.9412    2.2574 S   0  0  0  0  0  0  0  0  0  0  0  0
   13.4613    8.5055    1.0295 O   0  0  0  0  0  0  0  0  0  0  0  0
   15.4187    8.7872    2.5080 O   0  0  0  0  0  0  0  0  0  0  0  0
   13.3457    8.0952    3.3225 O   0  5  0  0  0  0  0  0  0  0  0  0
   11.5818   10.6136    1.1629 O   0  0  0  0  0  0  0  0  0  0  0  0
    4.3549    5.2208   -3.8469 H   0  0  0  0  0  0  0  0  0  0  0  0
    2.3791    6.3509   -2.8619 H   0  0  0  0  0  0  0  0  0  0  0  0
    2.6804    8.0963   -1.1243 H   0  0  0  0  0  0  0  0  0  0  0  0
    6.6414    5.8460   -3.1136 H   0  0  0  0  0  0  0  0  0  0  0  0
    7.4906    8.3598   -1.9561 H   0  0  0  0  0  0  0  0  0  0  0  0
    5.4241   10.2264   -1.7703 H   0  0  0  0  0  0  0  0  0  0  0  0
    4.5743   10.9498   -0.3626 H   0  0  0  0  0  0  0  0  0  0  0  0
    7.1336   11.4523   -0.6734 H   0  0  0  0  0  0  0  0  0  0  0  0
    7.3733    9.7784   -0.0675 H   0  0  0  0  0  0  0  0  0  0  0  0
    7.3341   10.3739    3.6175 H   0  0  0  0  0  0  0  0  0  0  0  0
    7.6165   12.0928    4.0795 H   0  0  0  0  0  0  0  0  0  0  0  0
    9.7032   10.8284    4.4144 H   0  0  0  0  0  0  0  0  0  0  0  0
    9.6232   10.1877    2.7370 H   0  0  0  0  0  0  0  0  0  0  0  0
   10.3234   13.3855    1.1409 H   0  0  0  0  0  0  0  0  0  0  0  0
    9.9781   11.6423    0.8739 H   0  0  0  0  0  0  0  0  0  0  0  0
    7.9635   12.9290    0.3306 H   0  0  0  0  0  0  0  0  0  0  0  0
    8.0279   13.7696    1.9221 H   0  0  0  0  0  0  0  0  0  0  0  0
   12.0480   12.9058    2.5117 H   0  0  0  0  0  0  0  0  0  0  0  0
   11.7907   12.1764    4.1330 H   0  0  0  0  0  0  0  0  0  0  0  0
   11.5341    9.9428    3.1244 H   0  0  0  0  0  0  0  0  0  0  0  0
   13.9701   11.3251    1.8803 H   0  0  0  0  0  0  0  0  0  0  0  0
   13.8435   10.9212    3.6261 H   0  0  0  0  0  0  0  0  0  0  0  0
   12.3770   10.6487    0.5743 H   0  0  0  0  0  0  0  0  0  0  0  0
  1  6  2  0  0  0  0
  1  2  1  0  0  0  0
  1 27  1  0  0  0  0
  2  3  2  0  0  0  0
  2 28  1  0  0  0  0
  3  4  1  0  0  0  0
  3 29  1  0  0  0  0
  4  5  2  0  0  0  0
  4  8  1  0  0  0  0
  5  6  1  0  0  0  0
  5  7  1  0  0  0  0
  6 30  1  0  0  0  0
  7 31  1  0  0  0  0
  8  9  1  0  0  0  0
  9 10  1  0  0  0  0
  9 32  1  0  0  0  0
  9 33  1  0  0  0  0
 10 11  1  0  0  0  0
 10 34  1  0  0  0  0
 10 35  1  0  0  0  0
 11 12  2  0  0  0  0
 11 13  1  0  0  0  0
 13 18  1  0  0  0  0
 13 14  1  0  0  0  0
 14 15  1  0  0  0  0
 14 36  1  0  0  0  0
 14 37  1  0  0  0  0
 15 16  1  0  0  0  0
 15 38  1  0  0  0  0
 15 39  1  0  0  0  0
 16 17  1  0  0  0  0
 16 19  1  0  0  0  0
 17 18  1  0  0  0  0
 17 40  1  0  0  0  0
 17 41  1  0  0  0  0
 18 42  1  0  0  0  0
 18 43  1  0  0  0  0
 19 20  1  0  0  0  0
 19 44  1  0  0  0  0
 19 45  1  0  0  0  0
 20 21  1  0  0  0  0
 20 26  1  0  0  0  0
 20 46  1  0  0  0  0
 21 22  1  0  0  0  0
 21 47  1  0  0  0  0
 21 48  1  0  0  0  0
 22 23  2  0  0  0  0
 22 24  2  0  0  0  0
 22 25  1  0  0  0  0
 26 49  1  0  0  0  0
M  END
> <Name>
ZINC24869044

> <reference>
BDB4945

> <quality>
0.764

> <status>
decoy

> <atoms in reference ligand area>
22

> <score>
-42.4318

$$$$
ZINC01187537
      BALL 1.4.0 (Jan  4 2012, 23:22:29)

 18 18  0999  0  0  0  0  0  0999 V2000
    9.8270   10.5899    1.2639 C   0  0  0  0  0  0  0  0  0  0  0  0
    8.5341   10.3434    1.5475 N   0  5  0  0  0  0  0  0  0  0  0  0
    7.7743   11.0167    0.6250 C   0  0  0  0  0  0  0  0  0  0  0  0
    8.6704   11.6751   -0.2064 C   0  0  0  0  0  0  0  0  0  0  0  0
    9.9068   11.3800    0.2284 N   0  0  0  0  0  0  0  0  0  0  0  0
    8.3279   12.5403   -1.3554 C   0  0  0  0  0  0  0  0  0  0  0  0
    9.1572   12.7655   -2.2151 O   0  0  0  0  0  0  0  0  0  0  0  0
    7.0961   13.0791   -1.4496 N   0  0  0  0  0  0  0  0  0  0  0  0
    6.8295   14.0700   -2.4253 O   0  0  0  0  0  0  0  0  0  0  0  0
    6.3042   11.0416    0.5379 C   0  0  0  0  0  0  0  0  0  0  0  0
    5.7586   11.0022   -0.5483 O   0  0  0  0  0  0  0  0  0  0  0  0
    5.5636   11.1081    1.6619 N   0  0  0  0  0  0  0  0  0  0  0  0
    5.5022    9.9958    2.5362 O   0  0  0  0  0  0  0  0  0  0  0  0
   10.6858   10.1864    1.8206 H   0  0  0  0  0  0  0  0  0  0  0  0
    6.3486   12.7700   -0.8118 H   0  0  0  0  0  0  0  0  0  0  0  0
    6.5873   13.5673   -3.2430 H   0  0  0  0  0  0  0  0  0  0  0  0
    5.0422   11.9679    1.8851 H   0  0  0  0  0  0  0  0  0  0  0  0
    4.5384    9.7844    2.6163 H   0  0  0  0  0  0  0  0  0  0  0  0
  1  5  2  0  0  0  0
  1  2  1  0  0  0  0
  1 14  1  0  0  0  0
  2  3  1  0  0  0  0
  3  4  2  0  0  0  0
  3 10  1  0  0  0  0
  4  5  1  0  0  0  0
  4  6  1  0  0  0  0
  6  7  2  0  0  0  0
  6  8  1  0  0  0  0
  8  9  1  0  0  0  0
  8 15  1  0  0  0  0
  9 16  1  0  0  0  0
 10 11  2  0  0  0  0
 10 12  1  0  0  0  0
 12 13  1  0  0  0  0
 12 17  1  0  0  0  0
 13 18  1  0  0  0  0
M  END
> <Name>
ZINC01187537

> <reference>
BDB5257

> <quality>
0.783

> <status>
decoy

> <atoms in reference ligand area>
15

> <score>
-39.7088

$$$$
ZINC22047827
      BALL 1.4.0 (Jan  4 2012, 23:22:29)

 41 42  0999  0  0  0  0  0  0999 V2000
    9.4659   13.7053    3.2574 C   0  0  0  0  0  0  0  0  0  0  0  0
   10.8391   13.5037    3.1401 C   0  0  0  0  0  0  0  0  0  0  0  0
   11.3818   12.2598    3.2755 C   0  0  0  0  0  0  0  0  0  0  0  0
   10.5437   11.1685    3.5258 C   0  0  0  0  0  0  0  0  0  0  0  0
    9.1443   11.3727    3.6455 C   0  0  0  0  0  0  0  0  0  0  0  0
    8.6210   12.6646    3.5061 C   0  0  0  0  0  0  0  0  0  0  0  0
    8.3377   10.2488    3.9030 C   0  0  0  0  0  0  0  0  0  0  0  0
    8.9040    9.0697    4.0213 N   0  0  0  0  0  0  0  0  0  0  0  0
   10.1658    8.8772    3.9148 N   0  0  0  0  0  0  0  0  0  0  0  0
   11.0293    9.8491    3.6741 C   0  0  0  0  0  0  0  0  0  0  0  0
   12.3837    9.5797    3.5697 N   0  0  0  0  0  0  0  0  0  0  0  0
   13.2888   10.1884    4.4490 N   0  0  0  0  0  0  0  0  0  0  0  0
   14.5418   10.1774    4.1868 C   0  0  0  0  0  0  0  0  0  0  0  0
   15.0325    9.6171    2.8767 C   0  0  0  0  0  0  0  0  0  0  0  0
   14.1051    9.9464    1.8405 O   0  0  0  0  0  0  0  0  0  0  0  0
   15.5260   10.7246    5.1883 C   0  0  0  0  0  0  0  0  0  0  0  0
   16.7081    9.7621    5.3200 C   0  0  0  0  0  0  0  0  0  0  0  0
   17.2035    9.7580    6.7675 C   0  0  0  0  0  0  0  0  0  0  0  0
   16.0719    9.3055    7.6925 C   0  0  0  0  0  0  0  0  0  0  0  0
   15.5465   10.4361    8.3908 O   0  0  0  0  0  0  0  0  0  0  0  0
   17.6189   11.0756    7.1325 O   0  0  0  0  0  0  0  0  0  0  0  0
   17.7649   10.1848    4.4560 O   0  0  0  0  0  0  0  0  0  0  0  0
   15.9965   11.9994    4.7461 O   0  0  0  0  0  0  0  0  0  0  0  0
    9.0566   14.7204    3.1476 H   0  0  0  0  0  0  0  0  0  0  0  0
   11.4964   14.3615    2.9349 H   0  0  0  0  0  0  0  0  0  0  0  0
   12.4689   12.1161    3.1885 H   0  0  0  0  0  0  0  0  0  0  0  0
    7.5385   12.8378    3.5965 H   0  0  0  0  0  0  0  0  0  0  0  0
    7.2477   10.3564    4.0039 H   0  0  0  0  0  0  0  0  0  0  0  0
   12.7256    8.9319    2.8456 H   0  0  0  0  0  0  0  0  0  0  0  0
   15.1211    8.5235    2.9545 H   0  0  0  0  0  0  0  0  0  0  0  0
   16.0160   10.0487    2.6386 H   0  0  0  0  0  0  0  0  0  0  0  0
   14.5874   10.0339    0.9804 H   0  0  0  0  0  0  0  0  0  0  0  0
   15.0323   10.8346    6.1652 H   0  0  0  0  0  0  0  0  0  0  0  0
   16.3881    8.7478    5.0389 H   0  0  0  0  0  0  0  0  0  0  0  0
   18.0534    9.0662    6.8623 H   0  0  0  0  0  0  0  0  0  0  0  0
   16.4597    8.5752    8.4180 H   0  0  0  0  0  0  0  0  0  0  0  0
   15.2736    8.8406    7.0953 H   0  0  0  0  0  0  0  0  0  0  0  0
   14.5855   10.5401    8.1765 H   0  0  0  0  0  0  0  0  0  0  0  0
   18.0983   11.4935    6.3739 H   0  0  0  0  0  0  0  0  0  0  0  0
   18.0538   11.0975    4.7083 H   0  0  0  0  0  0  0  0  0  0  0  0
   16.9660   12.0766    4.9309 H   0  0  0  0  0  0  0  0  0  0  0  0
  1  6  1  0  0  0  0
  1  2  2  0  0  0  0
  1 24  1  0  0  0  0
  2  3  1  0  0  0  0
  2 25  1  0  0  0  0
  3  4  2  0  0  0  0
  3 26  1  0  0  0  0
  4 10  1  0  0  0  0
  4  5  1  0  0  0  0
  5  6  2  0  0  0  0
  5  7  1  0  0  0  0
  6 27  1  0  0  0  0
  7  8  2  0  0  0  0
  7 28  1  0  0  0  0
  8  9  1  0  0  0  0
  9 10  2  0  0  0  0
 10 11  1  0  0  0  0
 11 12  1  0  0  0  0
 11 29  1  0  0  0  0
 12 13  2  0  0  0  0
 13 14  1  0  0  0  0
 13 16  1  0  0  0  0
 14 15  1  0  0  0  0
 14 30  1  0  0  0  0
 14 31  1  0  0  0  0
 15 32  1  0  0  0  0
 16 17  1  0  0  0  0
 16 23  1  0  0  0  0
 16 33  1  0  0  0  0
 17 18  1  0  0  0  0
 17 22  1  0  0  0  0
 17 34  1  0  0  0  0
 18 19  1  0  0  0  0
 18 21  1  0  0  0  0
 18 35  1  0  0  0  0
 19 20  1  0  0  0  0
 19 36  1  0  0  0  0
 19 37  1  0  0  0  0
 20 38  1  0  0  0  0
 21 39  1  0  0  0  0
 22 40  1  0  0  0  0
 23 41  1  0  0  0  0
M  END
> <Name>
ZINC22047827

> <reference>
BDB5013

> <quality>
0.688

> <status>
decoy

> <atoms in reference ligand area>
10

> <score>
-39.5806

$$$$
ZINC20188385
      BALL 1.4.0 (Jan  4 2012, 23:22:29)

 39 40  0999  0  0  0  0  0  0999 V2000
   13.1802   13.6919   -1.3512 C   0  0  0  0  0  0  0  0  0  0  0  0
   12.1378   12.9684   -2.0913 N   0  3  0  0  0  0  0  0  0  0  0  0
   10.8019   13.4754   -1.7502 C   0  0  0  0  0  0  0  0  0  0  0  0
   10.3572   12.8780   -0.4401 C   0  0  0  0  0  0  0  0  0  0  0  0
   10.9468   11.7178    0.0260 C   0  0  0  0  0  0  0  0  0  0  0  0
   10.5419   11.1722    1.2298 C   0  0  0  0  0  0  0  0  0  0  0  0
    9.5412   11.7818    1.9633 C   0  0  0  0  0  0  0  0  0  0  0  0
    8.9480   12.9391    1.4945 C   0  0  0  0  0  0  0  0  0  0  0  0
    9.3558   13.4870    0.2928 C   0  0  0  0  0  0  0  0  0  0  0  0
    9.0221   11.0840    3.4956 S   0  0  0  0  0  0  0  0  0  0  0  0
   10.1090   10.3049    3.9760 O   0  0  0  0  0  0  0  0  0  0  0  0
    8.4513   12.1432    4.2516 O   0  0  0  0  0  0  0  0  0  0  0  0
    7.7931   10.0259    3.1605 N   0  5  0  0  0  0  0  0  0  0  0  0
    7.9554    9.0636    2.1723 C   0  0  0  0  0  0  0  0  0  0  0  0
    9.0229    8.1760    2.2304 C   0  0  0  0  0  0  0  0  0  0  0  0
    9.1788    7.2175    1.2505 C   0  0  0  0  0  0  0  0  0  0  0  0
    8.2814    7.1383    0.1970 C   0  0  0  0  0  0  0  0  0  0  0  0
    7.2204    8.0132    0.1192 C   0  0  0  0  0  0  0  0  0  0  0  0
    7.0454    8.9863    1.1067 C   0  0  0  0  0  0  0  0  0  0  0  0
    5.9121    9.9262    1.0294 C   0  0  0  0  0  0  0  0  0  0  0  0
    5.7636   10.7718    1.8906 O   0  0  0  0  0  0  0  0  0  0  0  0
    5.0407    9.8482    0.0041 N   0  0  0  0  0  0  0  0  0  0  0  0
   13.7515   14.3126   -2.0571 H   0  0  0  0  0  0  0  0  0  0  0  0
   13.8572   12.9610   -0.8849 H   0  0  0  0  0  0  0  0  0  0  0  0
   12.7248   14.3273   -0.5773 H   0  0  0  0  0  0  0  0  0  0  0  0
   12.2965   13.0842   -3.1024 H   0  0  0  0  0  0  0  0  0  0  0  0
   12.1891   11.9660   -1.8599 H   0  0  0  0  0  0  0  0  0  0  0  0
   10.0896   13.1958   -2.5405 H   0  0  0  0  0  0  0  0  0  0  0  0
   10.8375   14.5711   -1.6596 H   0  0  0  0  0  0  0  0  0  0  0  0
   11.7381   11.2287   -0.5610 H   0  0  0  0  0  0  0  0  0  0  0  0
   11.0160   10.2529    1.6042 H   0  0  0  0  0  0  0  0  0  0  0  0
    8.1514   13.4241    2.0779 H   0  0  0  0  0  0  0  0  0  0  0  0
    8.8834   14.4077   -0.0804 H   0  0  0  0  0  0  0  0  0  0  0  0
    9.7442    8.2375    3.0586 H   0  0  0  0  0  0  0  0  0  0  0  0
   10.0207    6.5117    1.3056 H   0  0  0  0  0  0  0  0  0  0  0  0
    8.4174    6.3727   -0.5811 H   0  0  0  0  0  0  0  0  0  0  0  0
    6.5116    7.9459   -0.7192 H   0  0  0  0  0  0  0  0  0  0  0  0
    4.0430    9.6702    0.1885 H   0  0  0  0  0  0  0  0  0  0  0  0
    5.3725    9.9665   -0.9638 H   0  0  0  0  0  0  0  0  0  0  0  0
  1  2  1  0  0  0  0
  1 23  1  0  0  0  0
  1 24  1  0  0  0  0
  1 25  1  0  0  0  0
  2  3  1  0  0  0  0
  2 26  1  0  0  0  0
  2 27  1  0  0  0  0
  3  4  1  0  0  0  0
  3 28  1  0  0  0  0
  3 29  1  0  0  0  0
  4  9  2  0  0  0  0
  4  5  1  0  0  0  0
  5  6  2  0  0  0  0
  5 30  1  0  0  0  0
  6  7  1  0  0  0  0
  6 31  1  0  0  0  0
  7  8  2  0  0  0  0
  7 10  1  0  0  0  0
  8  9  1  0  0  0  0
  8 32  1  0  0  0  0
  9 33  1  0  0  0  0
 10 11  2  0  0  0  0
 10 12  2  0  0  0  0
 10 13  1  0  0  0  0
 13 14  1  0  0  0  0
 14 19  2  0  0  0  0
 14 15  1  0  0  0  0
 15 16  2  0  0  0  0
 15 34  1  0  0  0  0
 16 17  1  0  0  0  0
 16 35  1  0  0  0  0
 17 18  2  0  0  0  0
 17 36  1  0  0  0  0
 18 19  1  0  0  0  0
 18 37  1  0  0  0  0
 19 20  1  0  0  0  0
 20 21  2  0  0  0  0
 20 22  1  0  0  0  0
 22 38  1  0  0  0  0
 22 39  1  0  0  0  0
M  END
> <Name>
ZINC20188385

> <reference>
BDB5199

> <quality>
0.798

> <status>
decoy

> <atoms in reference ligand area>
18

> <score>
-38.5434

$$$$
ZINC28996368
      BALL 1.4.0 (Jan  4 2012, 23:22:29)

 37 38  0999  0  0  0  0  0  0999 V2000
    8.4770   13.7067   -1.3927 C   0  0  0  0  0  0  0  0  0  0  0  0
    8.3790   13.6866   -2.7706 C   0  0  0  0  0  0  0  0  0  0  0  0
    9.5236   13.6105   -3.5457 C   0  0  0  0  0  0  0  0  0  0  0  0
   10.7680   13.5546   -2.9413 C   0  0  0  0  0  0  0  0  0  0  0  0
   10.8690   13.5740   -1.5637 C   0  0  0  0  0  0  0  0  0  0  0  0
    9.7231   13.6507   -0.7859 C   0  0  0  0  0  0  0  0  0  0  0  0
    9.8211   13.6707    0.5699 O   0  0  0  0  0  0  0  0  0  0  0  0
    8.6071   13.5287    1.3103 C   0  0  0  0  0  0  0  0  0  0  0  0
    7.9530   12.1894    0.9650 C   0  0  0  0  0  0  0  0  0  0  0  0
    7.7212   11.4276    2.1948 N   0  0  0  0  0  0  0  0  0  0  0  0
    6.6853   10.5689    2.2703 C   0  0  0  0  0  0  0  0  0  0  0  0
    5.6725   10.7804    1.6319 O   0  0  0  0  0  0  0  0  0  0  0  0
    6.7721    9.4756    3.0537 N   0  0  0  0  0  0  0  0  0  0  0  0
    5.6181    8.9418    3.6419 N   0  0  0  0  0  0  0  0  0  0  0  0
    5.7231    7.9796    4.5799 C   0  0  0  0  0  0  0  0  0  0  0  0
    6.7955    7.4469    4.7863 O   0  0  0  0  0  0  0  0  0  0  0  0
    4.5310    7.5715    5.3591 C   0  0  0  0  0  0  0  0  0  0  0  0
    4.3163    6.2259    5.6554 C   0  0  0  0  0  0  0  0  0  0  0  0
    3.2523    5.8671    6.3508 N   0  0  0  0  0  0  0  0  0  0  0  0
    2.3929    6.7812    6.7652 C   0  0  0  0  0  0  0  0  0  0  0  0
    2.6036    8.1208    6.4721 C   0  0  0  0  0  0  0  0  0  0  0  0
    3.6654    8.4880    5.7830 N   0  0  0  0  0  0  0  0  0  0  0  0
    9.4262   13.5906   -4.8931 F   0  0  0  0  0  0  0  0  0  0  0  0
    7.5674   13.7670   -0.7771 H   0  0  0  0  0  0  0  0  0  0  0  0
    7.3909   13.7311   -3.2521 H   0  0  0  0  0  0  0  0  0  0  0  0
   11.6767   13.4945   -3.5583 H   0  0  0  0  0  0  0  0  0  0  0  0
   11.8578   13.5288   -1.0838 H   0  0  0  0  0  0  0  0  0  0  0  0
    7.9208   14.3485    1.0519 H   0  0  0  0  0  0  0  0  0  0  0  0
    8.8283   13.5612    2.3873 H   0  0  0  0  0  0  0  0  0  0  0  0
    6.9928   12.3697    0.4595 H   0  0  0  0  0  0  0  0  0  0  0  0
    8.6159   11.6171    0.2995 H   0  0  0  0  0  0  0  0  0  0  0  0
    8.3500   11.5484    3.0016 H   0  0  0  0  0  0  0  0  0  0  0  0
    7.6870    9.0326    3.2200 H   0  0  0  0  0  0  0  0  0  0  0  0
    4.6894    9.2847    3.3576 H   0  0  0  0  0  0  0  0  0  0  0  0
    5.0317    5.4649    5.3106 H   0  0  0  0  0  0  0  0  0  0  0  0
    1.5077    6.4792    7.3442 H   0  0  0  0  0  0  0  0  0  0  0  0
    1.8832    8.8778    6.8155 H   0  0  0  0  0  0  0  0  0  0  0  0
  1  6  2  0  0  0  0
  1  2  1  0  0  0  0
  1 24  1  0  0  0  0
  2  3  2  0  0  0  0
  2 25  1  0  0  0  0
  3  4  1  0  0  0  0
  3 23  1  0  0  0  0
  4  5  2  0  0  0  0
  4 26  1  0  0  0  0
  5  6  1  0  0  0  0
  5 27  1  0  0  0  0
  6  7  1  0  0  0  0
  7  8  1  0  0  0  0
  8  9  1  0  0  0  0
  8 28  1  0  0  0  0
  8 29  1  0  0  0  0
  9 10  1  0  0  0  0
  9 30  1  0  0  0  0
  9 31  1  0  0  0  0
 10 11  1  0  0  0  0
 10 32  1  0  0  0  0
 11 12  2  0  0  0  0
 11 13  1  0  0  0  0
 13 14  1  0  0  0  0
 13 33  1  0  0  0  0
 14 15  1  0  0  0  0
 14 34  1  0  0  0  0
 15 16  2  0  0  0  0
 15 17  1  0  0  0  0
 17 22  2  0  0  0  0
 17 18  1  0  0  0  0
 18 19  2  0  0  0  0
 18 35  1  0  0  0  0
 19 20  1  0  0  0  0
 20 21  2  0  0  0  0
 20 36  1  0  0  0  0
 21 22  1  0  0  0  0
 21 37  1  0  0  0  0
M  END
> <Name>
ZINC28996368

> <reference>
BDB5219

> <quality>
0.680

> <status>
decoy

> <atoms in reference ligand area>
21

> <score>
-38.1866

$$$$
ZINC09305196
      BALL 1.4.0 (Jan  4 2012, 23:22:29)

 43 44  0999  0  0  0  0  0  0999 V2000
    8.9170   15.0375   -3.1664 C   0  0  0  0  0  0  0  0  0  0  0  0
    9.8981   15.0441   -2.1918 C   0  0  0  0  0  0  0  0  0  0  0  0
    9.8580   14.1252   -1.1582 C   0  0  0  0  0  0  0  0  0  0  0  0
    8.8379   13.1925   -1.1087 C   0  0  0  0  0  0  0  0  0  0  0  0
    7.8507   13.1784   -2.0955 C   0  0  0  0  0  0  0  0  0  0  0  0
    7.8958   14.1062   -3.1238 C   0  0  0  0  0  0  0  0  0  0  0  0
    6.8293   12.2238   -2.0367 N   0  0  0  0  0  0  0  0  0  0  0  0
    6.6179   11.5104   -0.9146 C   0  0  0  0  0  0  0  0  0  0  0  0
    5.7555   10.6575   -0.9007 O   0  0  0  0  0  0  0  0  0  0  0  0
    7.4400   11.7581    0.3242 C   0  0  0  0  0  0  0  0  0  0  0  0
    8.7688   12.2476   -0.0722 N   0  0  0  0  0  0  0  0  0  0  0  0
    9.8845   11.8040    0.5402 C   0  0  0  0  0  0  0  0  0  0  0  0
   10.7054   12.5980    0.9576 O   0  0  0  0  0  0  0  0  0  0  0  0
   10.0903   10.4805    0.6897 N   0  0  0  0  0  0  0  0  0  0  0  0
   10.4500    9.9389    2.0026 C   0  0  0  0  0  0  0  0  0  0  0  0
   11.9727    9.9327    2.1520 C   0  0  0  0  0  0  0  0  0  0  0  0
   12.3573   10.5855    3.4811 C   0  0  0  0  0  0  0  0  0  0  0  0
   13.8244   10.3630    3.7441 C   0  0  0  0  0  0  0  0  0  0  0  0
   14.5342    9.9064    2.8730 O   0  0  0  0  0  0  0  0  0  0  0  0
   14.3479   10.6712    4.9472 N   0  0  0  0  0  0  0  0  0  0  0  0
   15.7741   10.4549    5.2027 C   0  0  0  0  0  0  0  0  0  0  0  0
   16.1588   11.1078    6.5319 C   0  0  0  0  0  0  0  0  0  0  0  0
   15.4787   10.4475    7.6013 O   0  0  0  0  0  0  0  0  0  0  0  0
    8.9494   15.7770   -3.9801 H   0  0  0  0  0  0  0  0  0  0  0  0
   10.7125   15.7820   -2.2383 H   0  0  0  0  0  0  0  0  0  0  0  0
   10.6344   14.1363   -0.3790 H   0  0  0  0  0  0  0  0  0  0  0  0
    7.1209   14.1019   -3.9045 H   0  0  0  0  0  0  0  0  0  0  0  0
    6.2325   12.0652   -2.8610 H   0  0  0  0  0  0  0  0  0  0  0  0
    7.5477   10.8202    0.8890 H   0  0  0  0  0  0  0  0  0  0  0  0
    6.9424   12.5128    0.9510 H   0  0  0  0  0  0  0  0  0  0  0  0
    9.9945    9.8498   -0.1189 H   0  0  0  0  0  0  0  0  0  0  0  0
   10.0072   10.5647    2.7914 H   0  0  0  0  0  0  0  0  0  0  0  0
   10.0693    8.9109    2.0933 H   0  0  0  0  0  0  0  0  0  0  0  0
   12.3388    8.8956    2.1340 H   0  0  0  0  0  0  0  0  0  0  0  0
   12.4259   10.4960    1.3230 H   0  0  0  0  0  0  0  0  0  0  0  0
   11.7678   10.1381    4.2949 H   0  0  0  0  0  0  0  0  0  0  0  0
   12.1539   11.6654    3.4318 H   0  0  0  0  0  0  0  0  0  0  0  0
   13.7452   11.0589    5.6870 H   0  0  0  0  0  0  0  0  0  0  0  0
   16.3653   10.9026    4.3904 H   0  0  0  0  0  0  0  0  0  0  0  0
   15.9781    9.3751    5.2527 H   0  0  0  0  0  0  0  0  0  0  0  0
   17.2453   11.0230    6.6812 H   0  0  0  0  0  0  0  0  0  0  0  0
   15.8725   12.1698    6.5164 H   0  0  0  0  0  0  0  0  0  0  0  0
   14.6079   10.8898    7.7628 H   0  0  0  0  0  0  0  0  0  0  0  0
  1  6  2  0  0  0  0
  1  2  1  0  0  0  0
  1 24  1  0  0  0  0
  2  3  2  0  0  0  0
  2 25  1  0  0  0  0
  3  4  1  0  0  0  0
  3 26  1  0  0  0  0
  4 11  1  0  0  0  0
  4  5  2  0  0  0  0
  5  6  1  0  0  0  0
  5  7  1  0  0  0  0
  6 27  1  0  0  0  0
  7  8  1  0  0  0  0
  7 28  1  0  0  0  0
  8  9  2  0  0  0  0
  8 10  1  0  0  0  0
 10 11  1  0  0  0  0
 10 29  1  0  0  0  0
 10 30  1  0  0  0  0
 11 12  1  0  0  0  0
 12 13  2  0  0  0  0
 12 14  1  0  0  0  0
 14 15  1  0  0  0  0
 14 31  1  0  0  0  0
 15 16  1  0  0  0  0
 15 32  1  0  0  0  0
 15 33  1  0  0  0  0
 16 17  1  0  0  0  0
 16 34  1  0  0  0  0
 16 35  1  0  0  0  0
 17 18  1  0  0  0  0
 17 36  1  0  0  0  0
 17 37  1  0  0  0  0
 18 19  2  0  0  0  0
 18 20  1  0  0  0  0
 20 21  1  0  0  0  0
 20 38  1  0  0  0  0
 21 22  1  0  0  0  0
 21 39  1  0  0  0  0
 21 40  1  0  0  0  0
 22 23  1  0  0  0  0
 22 41  1  0  0  0  0
 22 42  1  0  0  0  0
 23 43  1  0  0  0  0
M  END
> <Name>
ZINC09305196

> <reference>
BDB5199

> <quality>
0.746

> <status>
decoy

> <atoms in reference ligand area>
19

> <score>
-38.0234

$$$$
ZINC03978077
      BALL 1.4.0 (Jan  4 2012, 23:22:29)

 32 33  0999  0  0  0  0  0  0999 V2000
   11.3168   12.5473   -0.5141 C   0  0  0  0  0  0  0  0  0  0  0  0
   11.9614   12.7505   -1.6358 N   0  0  0  0  0  0  0  0  0  0  0  0
   11.2908   13.0140   -2.7664 C   0  0  0  0  0  0  0  0  0  0  0  0
    9.9662   13.0682   -2.7640 N   0  0  0  0  0  0  0  0  0  0  0  0
    9.2914   12.8589   -1.6301 C   0  0  0  0  0  0  0  0  0  0  0  0
    8.0731   12.9082   -1.6232 O   0  0  0  0  0  0  0  0  0  0  0  0
    9.9666   12.5933   -0.4929 N   0  0  0  0  0  0  0  0  0  0  0  0
    9.2408   12.3621    0.7584 C   0  0  0  0  0  0  0  0  0  0  0  0
    8.3114   11.1579    0.5939 C   0  0  0  0  0  0  0  0  0  0  0  0
    6.8388   11.6202    0.4525 C   0  0  0  0  0  0  0  0  0  0  0  0
    6.0594   10.3725    0.9344 C   0  0  0  0  0  0  0  0  0  0  0  0
    7.0855    9.5872    1.7741 C   0  0  0  0  0  0  0  0  0  0  0  0
    8.3000   10.3558    1.7986 O   0  0  0  0  0  0  0  0  0  0  0  0
    7.3464    8.2224    1.1338 C   0  0  0  0  0  0  0  0  0  0  0  0
    7.2820    8.3434   -0.2886 O   0  0  0  0  0  0  0  0  0  0  0  0
    4.9447   10.7595    1.7406 O   0  0  0  0  0  0  0  0  0  0  0  0
    6.5274   11.9215   -0.9093 O   0  0  0  0  0  0  0  0  0  0  0  0
   11.9801   13.2296   -3.9335 N   0  0  0  0  0  0  0  0  0  0  0  0
   11.8745   12.3392    0.4109 H   0  0  0  0  0  0  0  0  0  0  0  0
    8.6452   13.2526    1.0080 H   0  0  0  0  0  0  0  0  0  0  0  0
    9.9588   12.1626    1.5675 H   0  0  0  0  0  0  0  0  0  0  0  0
    8.6749   10.6070   -0.2861 H   0  0  0  0  0  0  0  0  0  0  0  0
    6.6045   12.5353    1.0161 H   0  0  0  0  0  0  0  0  0  0  0  0
    5.6528    9.7803    0.1014 H   0  0  0  0  0  0  0  0  0  0  0  0
    6.7087    9.4231    2.7945 H   0  0  0  0  0  0  0  0  0  0  0  0
    8.3448    7.8651    1.4259 H   0  0  0  0  0  0  0  0  0  0  0  0
    6.5858    7.5047    1.4748 H   0  0  0  0  0  0  0  0  0  0  0  0
    8.1989    8.3969   -0.6581 H   0  0  0  0  0  0  0  0  0  0  0  0
    5.2541   11.3888    2.4395 H   0  0  0  0  0  0  0  0  0  0  0  0
    6.0903   12.8089   -0.9490 H   0  0  0  0  0  0  0  0  0  0  0  0
   12.1413   14.1899   -4.2692 H   0  0  0  0  0  0  0  0  0  0  0  0
   12.3367   12.4291   -4.4746 H   0  0  0  0  0  0  0  0  0  0  0  0
  1  7  1  0  0  0  0
  1  2  2  0  0  0  0
  1 19  1  0  0  0  0
  2  3  1  0  0  0  0
  3  4  2  0  0  0  0
  3 18  1  0  0  0  0
  4  5  1  0  0  0  0
  5  6  2  0  0  0  0
  5  7  1  0  0  0  0
  7  8  1  0  0  0  0
  8  9  1  0  0  0  0
  8 20  1  0  0  0  0
  8 21  1  0  0  0  0
  9 13  1  0  0  0  0
  9 10  1  0  0  0  0
  9 22  1  0  0  0  0
 10 11  1  0  0  0  0
 10 17  1  0  0  0  0
 10 23  1  0  0  0  0
 11 12  1  0  0  0  0
 11 16  1  0  0  0  0
 11 24  1  0  0  0  0
 12 13  1  0  0  0  0
 12 14  1  0  0  0  0
 12 25  1  0  0  0  0
 14 15  1  0  0  0  0
 14 26  1  0  0  0  0
 14 27  1  0  0  0  0
 15 28  1  0  0  0  0
 16 29  1  0  0  0  0
 17 30  1  0  0  0  0
 18 31  1  0  0  0  0
 18 32  1  0  0  0  0
M  END
> <Name>
ZINC03978077

> <reference>
BDB5257

> <quality>
0.782

> <status>
decoy

> <atoms in reference ligand area>
23

> <score>
-37.95

$$$$
ZINC04372269
      BALL 1.4.0 (Jan  4 2012, 23:22:29)

 36 37  0999  0  0  0  0  0  0999 V2000
   11.8138   14.2957   -2.4101 C   0  0  0  0  0  0  0  0  0  0  0  0
   10.8889   13.2704   -2.2978 C   0  0  0  0  0  0  0  0  0  0  0  0
   10.6544   12.7262   -1.0377 C   0  0  0  0  0  0  0  0  0  0  0  0
   11.3595   13.2209    0.0517 C   0  0  0  0  0  0  0  0  0  0  0  0
   12.2348   14.1945   -0.1001 N   0  0  0  0  0  0  0  0  0  0  0  0
   12.4760   14.7344   -1.2789 C   0  0  0  0  0  0  0  0  0  0  0  0
    9.7260   11.6920   -0.8725 N   0  0  0  0  0  0  0  0  0  0  0  0
    8.7214   11.8238    0.0162 C   0  0  0  0  0  0  0  0  0  0  0  0
    8.5713   12.8700    0.6111 O   0  0  0  0  0  0  0  0  0  0  0  0
    7.7845   10.6712    0.2708 C   0  0  0  0  0  0  0  0  0  0  0  0
    7.4707   10.5897    1.7660 C   0  0  0  0  0  0  0  0  0  0  0  0
    6.0463   10.1359    1.9564 C   0  0  0  0  0  0  0  0  0  0  0  0
    5.7983    9.2242    2.7096 O   0  0  0  0  0  0  0  0  0  0  0  0
    8.5419    9.9293    3.8346 C   0  0  0  0  0  0  0  0  0  0  0  0
    9.1090   11.3176    3.9825 C   0  0  0  0  0  0  0  0  0  0  0  0
    8.5396   12.4517    3.5364 C   0  0  0  0  0  0  0  0  0  0  0  0
    9.4071   13.5114    3.8878 C   0  0  0  0  0  0  0  0  0  0  0  0
   10.4547   12.9616    4.5277 C   0  0  0  0  0  0  0  0  0  0  0  0
   10.2660   11.6332    4.5872 O   0  0  0  0  0  0  0  0  0  0  0  0
    5.0532   10.7443    1.2891 O   0  5  0  0  0  0  0  0  0  0  0  0
    8.3849    9.6215    2.4005 N   0  3  0  0  0  0  0  0  0  0  0  0
   12.0189   14.7553   -3.3883 H   0  0  0  0  0  0  0  0  0  0  0  0
   10.3529   12.8955   -3.1822 H   0  0  0  0  0  0  0  0  0  0  0  0
   11.1857   12.7960    1.0513 H   0  0  0  0  0  0  0  0  0  0  0  0
   13.2146   15.5453   -1.3630 H   0  0  0  0  0  0  0  0  0  0  0  0
    9.8105   10.8302   -1.4301 H   0  0  0  0  0  0  0  0  0  0  0  0
    8.2580    9.7333   -0.0554 H   0  0  0  0  0  0  0  0  0  0  0  0
    6.8517   10.8257   -0.2913 H   0  0  0  0  0  0  0  0  0  0  0  0
    7.6023   11.5797    2.2269 H   0  0  0  0  0  0  0  0  0  0  0  0
    9.2273    9.2015    4.2932 H   0  0  0  0  0  0  0  0  0  0  0  0
    7.5614    9.8769    4.3305 H   0  0  0  0  0  0  0  0  0  0  0  0
    7.5827   12.5380    3.0008 H   0  0  0  0  0  0  0  0  0  0  0  0
    9.2545   14.5804    3.6782 H   0  0  0  0  0  0  0  0  0  0  0  0
   11.3193   13.5073    4.9335 H   0  0  0  0  0  0  0  0  0  0  0  0
    8.0019    8.6711    2.2959 H   0  0  0  0  0  0  0  0  0  0  0  0
    9.3050    9.6669    1.9397 H   0  0  0  0  0  0  0  0  0  0  0  0
  1  6  2  0  0  0  0
  1  2  1  0  0  0  0
  1 22  1  0  0  0  0
  2  3  2  0  0  0  0
  2 23  1  0  0  0  0
  3  4  1  0  0  0  0
  3  7  1  0  0  0  0
  4  5  2  0  0  0  0
  4 24  1  0  0  0  0
  5  6  1  0  0  0  0
  6 25  1  0  0  0  0
  7  8  1  0  0  0  0
  7 26  1  0  0  0  0
  8  9  2  0  0  0  0
  8 10  1  0  0  0  0
 10 11  1  0  0  0  0
 10 27  1  0  0  0  0
 10 28  1  0  0  0  0
 11 12  1  0  0  0  0
 11 21  1  0  0  0  0
 11 29  1  0  0  0  0
 12 13  2  0  0  0  0
 12 20  1  0  0  0  0
 14 15  1  0  0  0  0
 14 21  1  0  0  0  0
 14 30  1  0  0  0  0
 14 31  1  0  0  0  0
 15 19  1  0  0  0  0
 15 16  2  0  0  0  0
 16 17  1  0  0  0  0
 16 32  1  0  0  0  0
 17 18  2  0  0  0  0
 17 33  1  0  0  0  0
 18 19  1  0  0  0  0
 18 34  1  0  0  0  0
 21 35  1  0  0  0  0
 21 36  1  0  0  0  0
M  END
> <Name>
ZINC04372269

> <reference>
BDB4995

> <quality>
0.784

> <status>
decoy

> <atoms in reference ligand area>
23

> <score>
-37.2541

$$$$
ZINC19483528
      BALL 1.4.0 (Jan  4 2012, 23:22:29)

 35 35  0999  0  0  0  0  0  0999 V2000
    9.8409   14.5278    3.5186 C   0  0  0  0  0  0  0  0  0  0  0  0
   10.4387   13.4754    4.2783 O   0  0  0  0  0  0  0  0  0  0  0  0
    9.9712   12.2165    4.0636 C   0  0  0  0  0  0  0  0  0  0  0  0
   10.7392   11.1202    4.4218 C   0  0  0  0  0  0  0  0  0  0  0  0
   10.2602    9.8412    4.2076 C   0  0  0  0  0  0  0  0  0  0  0  0
    9.0203    9.6525    3.6259 C   0  0  0  0  0  0  0  0  0  0  0  0
    8.2491   10.7420    3.2662 C   0  0  0  0  0  0  0  0  0  0  0  0
    8.7208   12.0266    3.4833 C   0  0  0  0  0  0  0  0  0  0  0  0
    7.9635   13.0995    3.1298 O   0  0  0  0  0  0  0  0  0  0  0  0
    7.9724   13.4736    1.7507 C   0  0  0  0  0  0  0  0  0  0  0  0
    8.5057    8.2560    3.3890 C   0  0  0  0  0  0  0  0  0  0  0  0
    6.7024    8.3006    3.1967 S   0  0  0  0  0  0  0  0  0  0  0  0
    6.4568    8.5356    1.4148 C   0  0  0  0  0  0  0  0  0  0  0  0
    6.4032   10.0319    1.1003 C   0  0  0  0  0  0  0  0  0  0  0  0
    5.9576   10.2298   -0.3256 C   0  0  0  0  0  0  0  0  0  0  0  0
    6.6918    9.9257   -1.2358 O   0  0  0  0  0  0  0  0  0  0  0  0
    4.7450   10.7440   -0.5847 O   0  5  0  0  0  0  0  0  0  0  0  0
    5.4519   10.6890    2.0064 N   0  3  0  0  0  0  0  0  0  0  0  0
   10.3102   15.4618    3.8614 H   0  0  0  0  0  0  0  0  0  0  0  0
    8.7806   14.5561    3.8104 H   0  0  0  0  0  0  0  0  0  0  0  0
    9.9589   14.3895    2.4337 H   0  0  0  0  0  0  0  0  0  0  0  0
   11.7298   11.2676    4.8766 H   0  0  0  0  0  0  0  0  0  0  0  0
   10.8669    8.9717    4.5005 H   0  0  0  0  0  0  0  0  0  0  0  0
    7.2610   10.5891    2.8076 H   0  0  0  0  0  0  0  0  0  0  0  0
    8.8008   12.9194    1.2853 H   0  0  0  0  0  0  0  0  0  0  0  0
    8.2244   14.5439    1.7222 H   0  0  0  0  0  0  0  0  0  0  0  0
    7.0155   13.2692    1.2481 H   0  0  0  0  0  0  0  0  0  0  0  0
    8.9613    7.8473    2.4750 H   0  0  0  0  0  0  0  0  0  0  0  0
    8.7665    7.6175    4.2459 H   0  0  0  0  0  0  0  0  0  0  0  0
    7.2916    8.0757    0.8656 H   0  0  0  0  0  0  0  0  0  0  0  0
    5.5118    8.0632    1.1084 H   0  0  0  0  0  0  0  0  0  0  0  0
    7.4025   10.4712    1.2366 H   0  0  0  0  0  0  0  0  0  0  0  0
    4.5609   10.1722    2.0038 H   0  0  0  0  0  0  0  0  0  0  0  0
    5.2882   11.6559    1.6915 H   0  0  0  0  0  0  0  0  0  0  0  0
    5.8381   10.7006    2.9611 H   0  0  0  0  0  0  0  0  0  0  0  0
  1  2  1  0  0  0  0
  1 19  1  0  0  0  0
  1 20  1  0  0  0  0
  1 21  1  0  0  0  0
  2  3  1  0  0  0  0
  3  8  2  0  0  0  0
  3  4  1  0  0  0  0
  4  5  2  0  0  0  0
  4 22  1  0  0  0  0
  5  6  1  0  0  0  0
  5 23  1  0  0  0  0
  6  7  2  0  0  0  0
  6 11  1  0  0  0  0
  7  8  1  0  0  0  0
  7 24  1  0  0  0  0
  8  9  1  0  0  0  0
  9 10  1  0  0  0  0
 10 25  1  0  0  0  0
 10 26  1  0  0  0  0
 10 27  1  0  0  0  0
 11 12  1  0  0  0  0
 11 28  1  0  0  0  0
 11 29  1  0  0  0  0
 12 13  1  0  0  0  0
 13 14  1  0  0  0  0
 13 30  1  0  0  0  0
 13 31  1  0  0  0  0
 14 15  1  0  0  0  0
 14 18  1  0  0  0  0
 14 32  1  0  0  0  0
 15 16  2  0  0  0  0
 15 17  1  0  0  0  0
 18 33  1  0  0  0  0
 18 34  1  0  0  0  0
 18 35  1  0  0  0  0
M  END
> <Name>
ZINC19483528

> <reference>
BDB5195

> <quality>
0.758

> <status>
decoy

> <atoms in reference ligand area>
18

> <score>
-37.224

$$$$
ZINC15771728
      BALL 1.4.0 (Jan  4 2012, 23:22:29)

 52 52  0999  0  0  0  0  0  0999 V2000
   12.2074   15.9842   -1.7416 C   0  0  0  0  0  0  0  0  0  0  0  0
   11.0683   15.1952   -2.0908 O   0  0  0  0  0  0  0  0  0  0  0  0
   10.5078   14.4486   -1.1019 C   0  0  0  0  0  0  0  0  0  0  0  0
   10.4349   13.0707   -1.2285 C   0  0  0  0  0  0  0  0  0  0  0  0
    9.8695   12.3129   -0.2201 C   0  0  0  0  0  0  0  0  0  0  0  0
    9.3655   12.9277    0.9111 C   0  0  0  0  0  0  0  0  0  0  0  0
    9.4350   14.3019    1.0438 C   0  0  0  0  0  0  0  0  0  0  0  0
   10.0056   15.0669    0.0392 C   0  0  0  0  0  0  0  0  0  0  0  0
   10.0744   16.4190    0.1679 O   0  0  0  0  0  0  0  0  0  0  0  0
    9.3498   17.0052    1.2512 C   0  0  0  0  0  0  0  0  0  0  0  0
    8.7445   12.0972    2.0047 C   0  0  0  0  0  0  0  0  0  0  0  0
    7.9041   10.9805    1.3821 C   0  0  0  0  0  0  0  0  0  0  0  0
    6.2997    9.2430    1.9014 C   0  0  0  0  0  0  0  0  0  0  0  0
    5.8742    8.2541    2.9886 C   0  0  0  0  0  0  0  0  0  0  0  0
    7.1179    7.6487    3.6425 C   0  0  0  0  0  0  0  0  0  0  0  0
    7.6132    8.5771    4.7532 C   0  0  0  0  0  0  0  0  0  0  0  0
    8.6953    7.8656    5.5679 C   0  0  0  0  0  0  0  0  0  0  0  0
    8.3032    6.4001    5.7666 C   0  0  0  0  0  0  0  0  0  0  0  0
    8.5277    6.0274    7.1278 O   0  0  0  0  0  0  0  0  0  0  0  0
    8.8273    8.5003    6.8414 O   0  0  0  0  0  0  0  0  0  0  0  0
    6.5215    8.9207    5.6089 O   0  0  0  0  0  0  0  0  0  0  0  0
    8.1439    7.4916    2.6603 O   0  0  0  0  0  0  0  0  0  0  0  0
    5.1006    8.9368    3.9773 O   0  0  0  0  0  0  0  0  0  0  0  0
    7.3001   10.1727    2.4587 N   0  3  0  0  0  0  0  0  0  0  0  0
   11.8169   16.9089   -1.2918 H   0  0  0  0  0  0  0  0  0  0  0  0
   12.7003   16.2515   -2.6880 H   0  0  0  0  0  0  0  0  0  0  0  0
   12.8947   15.4611   -1.0605 H   0  0  0  0  0  0  0  0  0  0  0  0
   10.8270   12.5799   -2.1314 H   0  0  0  0  0  0  0  0  0  0  0  0
    9.8205   11.2183   -0.3178 H   0  0  0  0  0  0  0  0  0  0  0  0
    9.0373   14.7881    1.9468 H   0  0  0  0  0  0  0  0  0  0  0  0
    8.6590   17.7343    0.8025 H   0  0  0  0  0  0  0  0  0  0  0  0
   10.0856   17.5620    1.8500 H   0  0  0  0  0  0  0  0  0  0  0  0
    8.8144   16.2599    1.8577 H   0  0  0  0  0  0  0  0  0  0  0  0
    9.5381   11.6555    2.6254 H   0  0  0  0  0  0  0  0  0  0  0  0
    8.1014   12.7340    2.6300 H   0  0  0  0  0  0  0  0  0  0  0  0
    7.1084   11.4208    0.7632 H   0  0  0  0  0  0  0  0  0  0  0  0
    8.5455   10.3402    0.7588 H   0  0  0  0  0  0  0  0  0  0  0  0
    6.7400    8.6933    1.0565 H   0  0  0  0  0  0  0  0  0  0  0  0
    5.4232    9.8110    1.5563 H   0  0  0  0  0  0  0  0  0  0  0  0
    5.2695    7.4528    2.5389 H   0  0  0  0  0  0  0  0  0  0  0  0
    6.8663    6.6670    4.0701 H   0  0  0  0  0  0  0  0  0  0  0  0
    8.0316    9.4915    4.3073 H   0  0  0  0  0  0  0  0  0  0  0  0
    9.6536    7.9191    5.0304 H   0  0  0  0  0  0  0  0  0  0  0  0
    8.9123    5.7639    5.1077 H   0  0  0  0  0  0  0  0  0  0  0  0
    7.2389    6.2687    5.5218 H   0  0  0  0  0  0  0  0  0  0  0  0
    7.8671    6.4816    7.7085 H   0  0  0  0  0  0  0  0  0  0  0  0
    8.1074    8.1861    7.4439 H   0  0  0  0  0  0  0  0  0  0  0  0
    6.1840    9.8201    5.3697 H   0  0  0  0  0  0  0  0  0  0  0  0
    8.9952    7.2539    3.1061 H   0  0  0  0  0  0  0  0  0  0  0  0
    4.2229    9.1887    3.5949 H   0  0  0  0  0  0  0  0  0  0  0  0
    8.0371    9.6343    2.9360 H   0  0  0  0  0  0  0  0  0  0  0  0
    6.8436   10.7963    3.1396 H   0  0  0  0  0  0  0  0  0  0  0  0
  1  2  1  0  0  0  0
  1 25  1  0  0  0  0
  1 26  1  0  0  0  0
  1 27  1  0  0  0  0
  2  3  1  0  0  0  0
  3  8  2  0  0  0  0
  3  4  1  0  0  0  0
  4  5  2  0  0  0  0
  4 28  1  0  0  0  0
  5  6  1  0  0  0  0
  5 29  1  0  0  0  0
  6  7  2  0  0  0  0
  6 11  1  0  0  0  0
  7  8  1  0  0  0  0
  7 30  1  0  0  0  0
  8  9  1  0  0  0  0
  9 10  1  0  0  0  0
 10 31  1  0  0  0  0
 10 32  1  0  0  0  0
 10 33  1  0  0  0  0
 11 12  1  0  0  0  0
 11 34  1  0  0  0  0
 11 35  1  0  0  0  0
 12 24  1  0  0  0  0
 12 36  1  0  0  0  0
 12 37  1  0  0  0  0
 13 14  1  0  0  0  0
 13 24  1  0  0  0  0
 13 38  1  0  0  0  0
 13 39  1  0  0  0  0
 14 15  1  0  0  0  0
 14 23  1  0  0  0  0
 14 40  1  0  0  0  0
 15 16  1  0  0  0  0
 15 22  1  0  0  0  0
 15 41  1  0  0  0  0
 16 17  1  0  0  0  0
 16 21  1  0  0  0  0
 16 42  1  0  0  0  0
 17 18  1  0  0  0  0
 17 20  1  0  0  0  0
 17 43  1  0  0  0  0
 18 19  1  0  0  0  0
 18 44  1  0  0  0  0
 18 45  1  0  0  0  0
 19 46  1  0  0  0  0
 20 47  1  0  0  0  0
 21 48  1  0  0  0  0
 22 49  1  0  0  0  0
 23 50  1  0  0  0  0
 24 51  1  0  0  0  0
 24 52  1  0  0  0  0
M  END
> <Name>
ZINC15771728

> <reference>
BDB4997

> <quality>
0.657

> <status>
decoy

> <atoms in reference ligand area>
15

> <score>
-36.8821

$$$$
ZINC13354670
      BALL 1.4.0 (Jan  4 2012, 23:22:29)

 43 44  0999  0  0  0  0  0  0999 V2000
    9.9762   15.8149    0.6252 C   0  0  0  0  0  0  0  0  0  0  0  0
    9.4848   16.4648    1.7494 C   0  0  0  0  0  0  0  0  0  0  0  0
    9.4105   15.8137    2.9610 C   0  0  0  0  0  0  0  0  0  0  0  0
    9.8316   14.4915    3.0620 C   0  0  0  0  0  0  0  0  0  0  0  0
   10.3287   13.8377    1.9200 C   0  0  0  0  0  0  0  0  0  0  0  0
   10.3954   14.5168    0.7019 C   0  0  0  0  0  0  0  0  0  0  0  0
   10.6809   12.4825    2.3508 C   0  0  0  0  0  0  0  0  0  0  0  0
   10.3870   12.3974    3.6577 C   0  0  0  0  0  0  0  0  0  0  0  0
    9.8834   13.5899    4.1013 N   0  0  0  0  0  0  0  0  0  0  0  0
   11.2577   11.3893    1.4886 C   0  0  0  0  0  0  0  0  0  0  0  0
   12.0251   10.4212    2.3516 C   0  0  0  0  0  0  0  0  0  0  0  0
   11.5131    9.9620    3.3507 O   0  0  0  0  0  0  0  0  0  0  0  0
   13.2802   10.0655    2.0132 N   0  0  0  0  0  0  0  0  0  0  0  0
   14.0262    9.1242    2.8521 C   0  0  0  0  0  0  0  0  0  0  0  0
   14.1730    9.7024    4.2611 C   0  0  0  0  0  0  0  0  0  0  0  0
   15.4724    9.1935    4.8884 C   0  0  0  0  0  0  0  0  0  0  0  0
   16.3735   10.3819    5.2299 C   0  0  0  0  0  0  0  0  0  0  0  0
   17.2387   10.0339    6.4429 C   0  0  0  0  0  0  0  0  0  0  0  0
   16.7086   10.7481    7.6594 C   0  0  0  0  0  0  0  0  0  0  0  0
   15.5796   10.5415    8.0371 O   0  0  0  0  0  0  0  0  0  0  0  0
   17.4925   11.6095    8.3267 O   0  5  0  0  0  0  0  0  0  0  0  0
   18.6344   10.4476    6.2152 N   0  3  0  0  0  0  0  0  0  0  0  0
   10.0285   16.3494   -0.3347 H   0  0  0  0  0  0  0  0  0  0  0  0
    9.1514   17.5102    1.6716 H   0  0  0  0  0  0  0  0  0  0  0  0
    9.0194   16.3374    3.8458 H   0  0  0  0  0  0  0  0  0  0  0  0
   10.7842   14.0086   -0.1928 H   0  0  0  0  0  0  0  0  0  0  0  0
   10.5298   11.5016    4.2800 H   0  0  0  0  0  0  0  0  0  0  0  0
    9.5874   13.7841    5.0685 H   0  0  0  0  0  0  0  0  0  0  0  0
   11.9344   11.8289    0.7410 H   0  0  0  0  0  0  0  0  0  0  0  0
   10.4423   10.8570    0.9770 H   0  0  0  0  0  0  0  0  0  0  0  0
   13.7151   10.4556    1.1649 H   0  0  0  0  0  0  0  0  0  0  0  0
   13.4836    8.1688    2.9032 H   0  0  0  0  0  0  0  0  0  0  0  0
   15.0237    8.9568    2.4196 H   0  0  0  0  0  0  0  0  0  0  0  0
   14.1986   10.8008    4.2061 H   0  0  0  0  0  0  0  0  0  0  0  0
   13.3199    9.3861    4.8792 H   0  0  0  0  0  0  0  0  0  0  0  0
   15.2417    8.6333    5.8065 H   0  0  0  0  0  0  0  0  0  0  0  0
   15.9907    8.5339    4.1768 H   0  0  0  0  0  0  0  0  0  0  0  0
   17.0219   10.6094    4.3708 H   0  0  0  0  0  0  0  0  0  0  0  0
   15.7525   11.2594    5.4630 H   0  0  0  0  0  0  0  0  0  0  0  0
   17.2053    8.9454    6.5981 H   0  0  0  0  0  0  0  0  0  0  0  0
   18.9481   10.0868    5.3029 H   0  0  0  0  0  0  0  0  0  0  0  0
   19.2283   10.0526    6.9583 H   0  0  0  0  0  0  0  0  0  0  0  0
   18.7027   11.4752    6.2248 H   0  0  0  0  0  0  0  0  0  0  0  0
  1  6  1  0  0  0  0
  1  2  2  0  0  0  0
  1 23  1  0  0  0  0
  2  3  1  0  0  0  0
  2 24  1  0  0  0  0
  3  4  2  0  0  0  0
  3 25  1  0  0  0  0
  4  9  1  0  0  0  0
  4  5  1  0  0  0  0
  5  6  2  0  0  0  0
  5  7  1  0  0  0  0
  6 26  1  0  0  0  0
  7  8  2  0  0  0  0
  7 10  1  0  0  0  0
  8  9  1  0  0  0  0
  8 27  1  0  0  0  0
  9 28  1  0  0  0  0
 10 11  1  0  0  0  0
 10 29  1  0  0  0  0
 10 30  1  0  0  0  0
 11 12  2  0  0  0  0
 11 13  1  0  0  0  0
 13 14  1  0  0  0  0
 13 31  1  0  0  0  0
 14 15  1  0  0  0  0
 14 32  1  0  0  0  0
 14 33  1  0  0  0  0
 15 16  1  0  0  0  0
 15 34  1  0  0  0  0
 15 35  1  0  0  0  0
 16 17  1  0  0  0  0
 16 36  1  0  0  0  0
 16 37  1  0  0  0  0
 17 18  1  0  0  0  0
 17 38  1  0  0  0  0
 17 39  1  0  0  0  0
 18 19  1  0  0  0  0
 18 22  1  0  0  0  0
 18 40  1  0  0  0  0
 19 20  2  0  0  0  0
 19 21  1  0  0  0  0
 22 41  1  0  0  0  0
 22 42  1  0  0  0  0
 22 43  1  0  0  0  0
M  END
> <Name>
ZINC13354670

> <reference>
BDB5021

> <quality>
0.671

> <status>
decoy

> <atoms in reference ligand area>
12

> <score>
-36.8562

$$$$
ZINC06315906
      BALL 1.4.0 (Jan  4 2012, 23:22:29)

 33 35  0999  0  0  0  0  0  0999 V2000
    4.7429    6.2983   -2.8432 C   0  0  0  0  0  0  0  0  0  0  0  0
    3.6339    6.5647   -2.0536 C   0  0  0  0  0  0  0  0  0  0  0  0
    3.6755    7.5595   -1.1031 C   0  0  0  0  0  0  0  0  0  0  0  0
    4.8441    8.3077   -0.9316 C   0  0  0  0  0  0  0  0  0  0  0  0
    5.9645    8.0333   -1.7345 C   0  0  0  0  0  0  0  0  0  0  0  0
    5.9038    7.0270   -2.6870 C   0  0  0  0  0  0  0  0  0  0  0  0
    6.9488    8.9247   -1.3433 N   0  0  0  0  0  0  0  0  0  0  0  0
    6.4237    9.6916   -0.3364 C   0  0  0  0  0  0  0  0  0  0  0  0
    5.1840    9.3255   -0.1013 N   0  0  0  0  0  0  0  0  0  0  0  0
    7.1383   10.7671    0.3705 C   0  0  0  0  0  0  0  0  0  0  0  0
    7.6706   11.9057   -0.2298 C   0  0  0  0  0  0  0  0  0  0  0  0
    8.2717   12.7157    0.6808 N   0  0  0  0  0  0  0  0  0  0  0  0
    8.1481   12.0857    2.0025 C   0  5  0  0  0  0  0  0  0  0  0  0
    7.3871   10.8007    1.7541 C   0  0  0  0  0  0  0  0  0  0  0  0
    7.0620    9.9688    2.5788 O   0  0  0  0  0  0  0  0  0  0  0  0
    8.9041   13.9355    0.4065 N   0  0  0  0  0  0  0  0  0  0  0  0
   10.2363   13.9738    0.2061 C   0  0  0  0  0  0  0  0  0  0  0  0
   10.8928   14.8857    0.6643 O   0  0  0  0  0  0  0  0  0  0  0  0
   10.9049   12.8931   -0.5804 C   0  0  0  0  0  0  0  0  0  0  0  0
   10.3551   11.8215   -0.7283 O   0  0  0  0  0  0  0  0  0  0  0  0
   12.1186   13.1088   -1.1254 N   0  0  0  0  0  0  0  0  0  0  0  0
    7.5973   12.1742   -1.5643 N   0  0  0  0  0  0  0  0  0  0  0  0
    4.6963    5.5006   -3.5991 H   0  0  0  0  0  0  0  0  0  0  0  0
    2.7142    5.9765   -2.1881 H   0  0  0  0  0  0  0  0  0  0  0  0
    2.7923    7.7652   -0.4806 H   0  0  0  0  0  0  0  0  0  0  0  0
    6.7795    6.8104   -3.3164 H   0  0  0  0  0  0  0  0  0  0  0  0
    7.8983    8.9978   -1.7358 H   0  0  0  0  0  0  0  0  0  0  0  0
    7.5760   12.7361    2.6804 H   0  0  0  0  0  0  0  0  0  0  0  0
    8.3508   14.8030    0.3580 H   0  0  0  0  0  0  0  0  0  0  0  0
   12.7738   12.3239   -1.2506 H   0  0  0  0  0  0  0  0  0  0  0  0
   12.3909   14.0585   -1.4168 H   0  0  0  0  0  0  0  0  0  0  0  0
    7.8863   11.4237   -2.2076 H   0  0  0  0  0  0  0  0  0  0  0  0
    7.2695   13.0820   -1.9239 H   0  0  0  0  0  0  0  0  0  0  0  0
  1  6  1  0  0  0  0
  1  2  2  0  0  0  0
  1 23  1  0  0  0  0
  2  3  1  0  0  0  0
  2 24  1  0  0  0  0
  3  4  2  0  0  0  0
  3 25  1  0  0  0  0
  4  9  1  0  0  0  0
  4  5  1  0  0  0  0
  5  6  2  0  0  0  0
  5  7  1  0  0  0  0
  6 26  1  0  0  0  0
  7  8  1  0  0  0  0
  7 27  1  0  0  0  0
  8  9  2  0  0  0  0
  8 10  1  0  0  0  0
 10 14  1  0  0  0  0
 10 11  2  0  0  0  0
 11 12  1  0  0  0  0
 11 22  1  0  0  0  0
 12 13  1  0  0  0  0
 12 16  1  0  0  0  0
 13 14  1  0  0  0  0
 13 28  1  0  0  0  0
 14 15  2  0  0  0  0
 16 17  1  0  0  0  0
 16 29  1  0  0  0  0
 17 18  2  0  0  0  0
 17 19  1  0  0  0  0
 19 20  2  0  0  0  0
 19 21  1  0  0  0  0
 21 30  1  0  0  0  0
 21 31  1  0  0  0  0
 22 32  1  0  0  0  0
 22 33  1  0  0  0  0
M  END
> <Name>
ZINC06315906

> <reference>
BDB5257

> <quality>
0.817

> <status>
decoy

> <atoms in reference ligand area>
15

> <score>
-36.7808

$$$$
ZINC26997465
      BALL 1.4.0 (Jan  4 2012, 23:22:29)

 47 48  0999  0  0  0  0  0  0999 V2000
    4.6402    8.1136    5.1525 C   0  0  0  0  0  0  0  0  0  0  0  0
    4.9391    8.4488    3.6899 C   0  0  0  0  0  0  0  0  0  0  0  0
    4.7176    7.2252    2.8387 C   0  0  0  0  0  0  0  0  0  0  0  0
    5.2933    6.1913    3.1019 O   0  0  0  0  0  0  0  0  0  0  0  0
    3.8793    7.2802    1.7848 N   0  0  0  0  0  0  0  0  0  0  0  0
    3.6812    6.1859    1.0234 C   0  0  0  0  0  0  0  0  0  0  0  0
    4.2637    6.0697   -0.0369 O   0  0  0  0  0  0  0  0  0  0  0  0
    2.8371    5.2205    1.4379 N   0  0  0  0  0  0  0  0  0  0  0  0
    1.4765    5.1560    0.8986 C   0  0  0  0  0  0  0  0  0  0  0  0
    0.5523    4.5710    1.9352 C   0  0  0  0  0  0  0  0  0  0  0  0
   -0.6130    5.1250    2.1613 C   0  0  0  0  0  0  0  0  0  0  0  0
    6.3195    8.8819    3.5649 O   0  0  0  0  0  0  0  0  0  0  0  0
    6.5644    9.9108    2.7308 C   0  0  0  0  0  0  0  0  0  0  0  0
    5.6900   10.3138    1.9901 O   0  0  0  0  0  0  0  0  0  0  0  0
    7.8966   10.5493    2.7167 C   0  0  0  0  0  0  0  0  0  0  0  0
    8.4895   10.9613    3.9120 C   0  0  0  0  0  0  0  0  0  0  0  0
    9.7359   11.5516    3.8921 C   0  0  0  0  0  0  0  0  0  0  0  0
   10.3936   11.7466    2.6903 C   0  0  0  0  0  0  0  0  0  0  0  0
    9.8094   11.3460    1.5019 C   0  0  0  0  0  0  0  0  0  0  0  0
    8.5658   10.7487    1.5078 C   0  0  0  0  0  0  0  0  0  0  0  0
   10.5335   11.5621    0.1980 C   0  0  0  0  0  0  0  0  0  0  0  0
   10.3643   12.9530   -0.2298 N   0  0  0  0  0  0  0  0  0  0  0  0
   11.0451   13.5211   -1.2447 C   0  0  0  0  0  0  0  0  0  0  0  0
   11.8812   12.9975   -1.9493 O   0  0  0  0  0  0  0  0  0  0  0  0
   10.5463   14.9504   -1.3235 C   0  0  0  0  0  0  0  0  0  0  0  0
    9.5546   15.0313   -0.2372 N   0  5  0  0  0  0  0  0  0  0  0  0
    9.5189   13.8178    0.3424 C   0  0  0  0  0  0  0  0  0  0  0  0
    8.7992   13.5383    1.2810 O   0  0  0  0  0  0  0  0  0  0  0  0
    3.8717    7.3280    5.2001 H   0  0  0  0  0  0  0  0  0  0  0  0
    4.2758    9.0139    5.6690 H   0  0  0  0  0  0  0  0  0  0  0  0
    5.5582    7.7572    5.6427 H   0  0  0  0  0  0  0  0  0  0  0  0
    4.2701    9.2550    3.3545 H   0  0  0  0  0  0  0  0  0  0  0  0
    3.3901    8.1587    1.5612 H   0  0  0  0  0  0  0  0  0  0  0  0
    3.1485    4.5281    2.1338 H   0  0  0  0  0  0  0  0  0  0  0  0
    1.4667    4.5217   -0.0001 H   0  0  0  0  0  0  0  0  0  0  0  0
    1.1376    6.1690    0.6360 H   0  0  0  0  0  0  0  0  0  0  0  0
    0.8562    3.6786    2.5021 H   0  0  0  0  0  0  0  0  0  0  0  0
   -0.9170    6.0173    1.5944 H   0  0  0  0  0  0  0  0  0  0  0  0
   -1.2876    4.6978    2.9180 H   0  0  0  0  0  0  0  0  0  0  0  0
    7.9637   10.8155    4.8672 H   0  0  0  0  0  0  0  0  0  0  0  0
   10.2083   11.8681    4.8338 H   0  0  0  0  0  0  0  0  0  0  0  0
   11.3853   12.2224    2.6797 H   0  0  0  0  0  0  0  0  0  0  0  0
    8.1026   10.4304    0.5622 H   0  0  0  0  0  0  0  0  0  0  0  0
   10.1193   10.8906   -0.5685 H   0  0  0  0  0  0  0  0  0  0  0  0
   11.6040   11.3483    0.3331 H   0  0  0  0  0  0  0  0  0  0  0  0
   11.3731   15.6516   -1.1368 H   0  0  0  0  0  0  0  0  0  0  0  0
   10.0622   15.1314   -2.2945 H   0  0  0  0  0  0  0  0  0  0  0  0
  1  2  1  0  0  0  0
  1 29  1  0  0  0  0
  1 30  1  0  0  0  0
  1 31  1  0  0  0  0
  2  3  1  0  0  0  0
  2 12  1  0  0  0  0
  2 32  1  0  0  0  0
  3  4  2  0  0  0  0
  3  5  1  0  0  0  0
  5  6  1  0  0  0  0
  5 33  1  0  0  0  0
  6  7  2  0  0  0  0
  6  8  1  0  0  0  0
  8  9  1  0  0  0  0
  8 34  1  0  0  0  0
  9 10  1  0  0  0  0
  9 35  1  0  0  0  0
  9 36  1  0  0  0  0
 10 11  2  0  0  0  0
 10 37  1  0  0  0  0
 11 38  1  0  0  0  0
 11 39  1  0  0  0  0
 12 13  1  0  0  0  0
 13 14  2  0  0  0  0
 13 15  1  0  0  0  0
 15 20  2  0  0  0  0
 15 16  1  0  0  0  0
 16 17  2  0  0  0  0
 16 40  1  0  0  0  0
 17 18  1  0  0  0  0
 17 41  1  0  0  0  0
 18 19  2  0  0  0  0
 18 42  1  0  0  0  0
 19 20  1  0  0  0  0
 19 21  1  0  0  0  0
 20 43  1  0  0  0  0
 21 22  1  0  0  0  0
 21 44  1  0  0  0  0
 21 45  1  0  0  0  0
 22 27  1  0  0  0  0
 22 23  1  0  0  0  0
 23 24  2  0  0  0  0
 23 25  1  0  0  0  0
 25 26  1  0  0  0  0
 25 46  1  0  0  0  0
 25 47  1  0  0  0  0
 26 27  1  0  0  0  0
 27 28  2  0  0  0  0
M  END
> <Name>
ZINC26997465

> <reference>
BDB4945

> <quality>
0.707

> <status>
decoy

> <atoms in reference ligand area>
17

> <score>
-36.7047

$$$$
ZINC04340004
      BALL 1.4.0 (Jan  4 2012, 23:22:29)

 41 42  0999  0  0  0  0  0  0999 V2000
   10.8047   14.5895   -0.0397 C   0  0  0  0  0  0  0  0  0  0  0  0
   10.8405   15.7913   -0.9876 C   0  0  0  0  0  0  0  0  0  0  0  0
   11.0560   15.3314   -2.3245 O   0  0  0  0  0  0  0  0  0  0  0  0
   12.2668   14.5885   -2.4896 C   0  0  0  0  0  0  0  0  0  0  0  0
   12.2454   13.3744   -1.5571 C   0  0  0  0  0  0  0  0  0  0  0  0
   12.0870   12.6980    0.7634 C   0  0  0  0  0  0  0  0  0  0  0  0
   10.9511   11.7455    0.3851 C   0  0  0  0  0  0  0  0  0  0  0  0
   10.4400   11.0368    1.6411 C   0  0  0  0  0  0  0  0  0  0  0  0
    8.3192    9.8706    1.7093 C   0  0  0  0  0  0  0  0  0  0  0  0
    7.4452   10.6059    0.6534 C   0  0  0  0  0  0  0  0  0  0  0  0
    5.7677   10.0095    1.1283 S   0  0  0  0  0  0  0  0  0  0  0  0
    5.1905   10.9323    2.0417 O   0  0  0  0  0  0  0  0  0  0  0  0
    5.0549    9.6506   -0.0474 O   0  0  0  0  0  0  0  0  0  0  0  0
    6.2340    8.4801    2.0370 C   0  0  0  0  0  0  0  0  0  0  0  0
    7.7722    8.4412    1.8704 C   0  0  0  0  0  0  0  0  0  0  0  0
    8.1047    7.6729    0.7123 O   0  0  0  0  0  0  0  0  0  0  0  0
   12.0766   13.8477   -0.1669 N   0  0  0  0  0  0  0  0  0  0  0  0
    9.7183    9.8126    1.2455 N   0  3  0  0  0  0  0  0  0  0  0  0
   10.6851   14.9403    0.9959 H   0  0  0  0  0  0  0  0  0  0  0  0
    9.9661   13.9308   -0.3095 H   0  0  0  0  0  0  0  0  0  0  0  0
    9.8826   16.3293   -0.9347 H   0  0  0  0  0  0  0  0  0  0  0  0
   11.6586   16.4662   -0.6958 H   0  0  0  0  0  0  0  0  0  0  0  0
   12.3498   14.2483   -3.5325 H   0  0  0  0  0  0  0  0  0  0  0  0
   13.1274   15.2267   -2.2406 H   0  0  0  0  0  0  0  0  0  0  0  0
   13.1935   12.8236   -1.6456 H   0  0  0  0  0  0  0  0  0  0  0  0
   11.4056   12.7172   -1.8268 H   0  0  0  0  0  0  0  0  0  0  0  0
   11.9396   13.0565    1.7928 H   0  0  0  0  0  0  0  0  0  0  0  0
   13.0503   12.1724    0.6873 H   0  0  0  0  0  0  0  0  0  0  0  0
   10.1301   12.3170   -0.0725 H   0  0  0  0  0  0  0  0  0  0  0  0
   11.3214   10.9979   -0.3318 H   0  0  0  0  0  0  0  0  0  0  0  0
   11.2913   10.7693    2.2843 H   0  0  0  0  0  0  0  0  0  0  0  0
    9.7582   11.7037    2.1889 H   0  0  0  0  0  0  0  0  0  0  0  0
    8.2856   10.4060    2.6696 H   0  0  0  0  0  0  0  0  0  0  0  0
    7.6901   10.2658   -0.3636 H   0  0  0  0  0  0  0  0  0  0  0  0
    7.5070   11.6962    0.7853 H   0  0  0  0  0  0  0  0  0  0  0  0
    5.7724    7.6038    1.5585 H   0  0  0  0  0  0  0  0  0  0  0  0
    5.9637    8.5784    3.0987 H   0  0  0  0  0  0  0  0  0  0  0  0
    8.2208    7.9810    2.7632 H   0  0  0  0  0  0  0  0  0  0  0  0
    8.7428    8.1797    0.1501 H   0  0  0  0  0  0  0  0  0  0  0  0
    9.7338    9.7236    0.2195 H   0  0  0  0  0  0  0  0  0  0  0  0
   10.1815    8.9924    1.6621 H   0  0  0  0  0  0  0  0  0  0  0  0
  1  2  1  0  0  0  0
  1 17  1  0  0  0  0
  1 19  1  0  0  0  0
  1 20  1  0  0  0  0
  2  3  1  0  0  0  0
  2 21  1  0  0  0  0
  2 22  1  0  0  0  0
  3  4  1  0  0  0  0
  4  5  1  0  0  0  0
  4 23  1  0  0  0  0
  4 24  1  0  0  0  0
  5 17  1  0  0  0  0
  5 25  1  0  0  0  0
  5 26  1  0  0  0  0
  6  7  1  0  0  0  0
  6 17  1  0  0  0  0
  6 27  1  0  0  0  0
  6 28  1  0  0  0  0
  7  8  1  0  0  0  0
  7 29  1  0  0  0  0
  7 30  1  0  0  0  0
  8 18  1  0  0  0  0
  8 31  1  0  0  0  0
  8 32  1  0  0  0  0
  9 15  1  0  0  0  0
  9 10  1  0  0  0  0
  9 18  1  0  0  0  0
  9 33  1  0  0  0  0
 10 11  1  0  0  0  0
 10 34  1  0  0  0  0
 10 35  1  0  0  0  0
 11 12  2  0  0  0  0
 11 13  2  0  0  0  0
 11 14  1  0  0  0  0
 14 15  1  0  0  0  0
 14 36  1  0  0  0  0
 14 37  1  0  0  0  0
 15 16  1  0  0  0  0
 15 38  1  0  0  0  0
 16 39  1  0  0  0  0
 18 40  1  0  0  0  0
 18 41  1  0  0  0  0
M  END
> <Name>
ZINC04340004

> <reference>
BDB4983

> <quality>
0.803

> <status>
decoy

> <atoms in reference ligand area>
16

> <score>
-36.6706

$$$$
ZINC05637890
      BALL 1.4.0 (Jan  4 2012, 23:22:29)

 41 42  0999  0  0  0  0  0  0999 V2000
   10.3308   11.9854    3.0798 C   0  0  0  0  0  0  0  0  0  0  0  0
    9.9199   10.7813    3.6175 C   0  0  0  0  0  0  0  0  0  0  0  0
    8.6841   10.2522    3.2681 C   0  0  0  0  0  0  0  0  0  0  0  0
    7.8630   10.9393    2.3828 C   0  0  0  0  0  0  0  0  0  0  0  0
    8.2776   12.1453    1.8533 C   0  0  0  0  0  0  0  0  0  0  0  0
    9.5087   12.6694    2.2034 C   0  0  0  0  0  0  0  0  0  0  0  0
   10.0338   14.2086    1.5254 S   0  0  0  0  0  0  0  0  0  0  0  0
    9.0313   14.6083    0.6011 O   0  0  0  0  0  0  0  0  0  0  0  0
   11.3944   14.0439    1.1497 O   0  0  0  0  0  0  0  0  0  0  0  0
   10.0132   15.3177    2.7550 N   0  0  0  0  0  0  0  0  0  0  0  0
    6.5452   10.3795    2.0079 N   0  0  0  0  0  0  0  0  0  0  0  0
    5.6475   11.1214    1.6516 O   0  0  0  0  0  0  0  0  0  0  0  0
    6.3585    9.1768    2.0559 O   0  0  0  0  0  0  0  0  0  0  0  0
    8.2677    9.0322    3.8060 N   0  0  0  0  0  0  0  0  0  0  0  0
    7.2377    9.0042    4.8473 C   0  0  0  0  0  0  0  0  0  0  0  0
    6.2904    7.8292    4.5962 C   0  0  0  0  0  0  0  0  0  0  0  0
    5.2147    7.7999    5.6837 C   0  0  0  0  0  0  0  0  0  0  0  0
    3.9226    7.4589    5.0834 N   0  0  0  0  0  0  0  0  0  0  0  0
    3.7593    6.6177    3.8919 C   0  0  0  0  0  0  0  0  0  0  0  0
    2.2754    6.1818    3.8976 C   0  0  0  0  0  0  0  0  0  0  0  0
    1.6147    7.3306    4.6943 C   0  0  0  0  0  0  0  0  0  0  0  0
    2.7346    7.8808    5.5498 C   0  0  0  0  0  0  0  0  0  0  0  0
    2.5826    8.5985    6.5156 O   0  0  0  0  0  0  0  0  0  0  0  0
   11.3132   12.4006    3.3492 H   0  0  0  0  0  0  0  0  0  0  0  0
   10.5705   10.2421    4.3216 H   0  0  0  0  0  0  0  0  0  0  0  0
    7.6279   12.6899    1.1523 H   0  0  0  0  0  0  0  0  0  0  0  0
   10.8935   15.5984    3.2102 H   0  0  0  0  0  0  0  0  0  0  0  0
    9.1201   15.7267    3.0647 H   0  0  0  0  0  0  0  0  0  0  0  0
    8.6849    8.1523    3.4704 H   0  0  0  0  0  0  0  0  0  0  0  0
    7.7142    8.8864    5.8316 H   0  0  0  0  0  0  0  0  0  0  0  0
    6.6675    9.9448    4.8261 H   0  0  0  0  0  0  0  0  0  0  0  0
    5.8132    7.9465    3.6121 H   0  0  0  0  0  0  0  0  0  0  0  0
    6.8587    6.8875    4.6182 H   0  0  0  0  0  0  0  0  0  0  0  0
    5.1469    8.7888    6.1607 H   0  0  0  0  0  0  0  0  0  0  0  0
    5.4778    7.0454    6.4397 H   0  0  0  0  0  0  0  0  0  0  0  0
    4.4097    5.7332    3.9610 H   0  0  0  0  0  0  0  0  0  0  0  0
    3.9747    7.2018    2.9850 H   0  0  0  0  0  0  0  0  0  0  0  0
    1.8809    6.1514    2.8713 H   0  0  0  0  0  0  0  0  0  0  0  0
    2.1572    5.2279    4.4325 H   0  0  0  0  0  0  0  0  0  0  0  0
    0.8101    6.9358    5.3322 H   0  0  0  0  0  0  0  0  0  0  0  0
    1.2480    8.1062    4.0058 H   0  0  0  0  0  0  0  0  0  0  0  0
  1  6  2  0  0  0  0
  1  2  1  0  0  0  0
  1 24  1  0  0  0  0
  2  3  2  0  0  0  0
  2 25  1  0  0  0  0
  3  4  1  0  0  0  0
  3 14  1  0  0  0  0
  4  5  2  0  0  0  0
  4 11  1  0  0  0  0
  5  6  1  0  0  0  0
  5 26  1  0  0  0  0
  6  7  1  0  0  0  0
  7  8  2  0  0  0  0
  7  9  2  0  0  0  0
  7 10  1  0  0  0  0
 10 27  1  0  0  0  0
 10 28  1  0  0  0  0
 11 12  2  0  0  0  0
 11 13  2  0  0  0  0
 14 15  1  0  0  0  0
 14 29  1  0  0  0  0
 15 16  1  0  0  0  0
 15 30  1  0  0  0  0
 15 31  1  0  0  0  0
 16 17  1  0  0  0  0
 16 32  1  0  0  0  0
 16 33  1  0  0  0  0
 17 18  1  0  0  0  0
 17 34  1  0  0  0  0
 17 35  1  0  0  0  0
 18 22  1  0  0  0  0
 18 19  1  0  0  0  0
 19 20  1  0  0  0  0
 19 36  1  0  0  0  0
 19 37  1  0  0  0  0
 20 21  1  0  0  0  0
 20 38  1  0  0  0  0
 20 39  1  0  0  0  0
 21 22  1  0  0  0  0
 21 40  1  0  0  0  0
 21 41  1  0  0  0  0
 22 23  2  0  0  0  0
M  END
> <Name>
ZINC05637890

> <reference>
BDB5244

> <quality>
0.665

> <status>
decoy

> <atoms in reference ligand area>
12

> <score>
-36.633

$$$$
ZINC26540596
      BALL 1.4.0 (Jan  4 2012, 23:22:29)

 37 38  0999  0  0  0  0  0  0999 V2000
   14.3096   10.1243    2.3707 C   0  0  0  0  0  0  0  0  0  0  0  0
   12.8569   10.2785    2.4790 N   0  0  0  0  0  0  0  0  0  0  0  0
   11.9260    9.3509    2.1625 C   0  0  0  0  0  0  0  0  0  0  0  0
   10.7426    9.8508    2.3906 N   0  0  0  0  0  0  0  0  0  0  0  0
   10.8728   11.1024    2.8561 C   0  0  0  0  0  0  0  0  0  0  0  0
   12.1883   11.3909    2.9141 C   0  0  0  0  0  0  0  0  0  0  0  0
   12.8980   12.8846    3.4421 Cl  0  0  0  0  0  0  0  0  0  0  0  0
    9.5551   12.1823    3.3056 S   0  0  0  0  0  0  0  0  0  0  0  0
   10.0252   12.9654    4.3942 O   0  0  0  0  0  0  0  0  0  0  0  0
    8.3850   11.3807    3.3931 O   0  0  0  0  0  0  0  0  0  0  0  0
    9.3219   13.2237    2.0394 N   0  5  0  0  0  0  0  0  0  0  0  0
    8.5560   12.8250    0.9370 C   0  0  0  0  0  0  0  0  0  0  0  0
    7.3390   12.1891    1.1294 C   0  0  0  0  0  0  0  0  0  0  0  0
    6.5841   11.7967    0.0393 C   0  0  0  0  0  0  0  0  0  0  0  0
    7.0417   12.0315   -1.2440 C   0  0  0  0  0  0  0  0  0  0  0  0
    8.2514   12.6700   -1.4450 C   0  0  0  0  0  0  0  0  0  0  0  0
    9.0150   13.0669   -0.3577 C   0  0  0  0  0  0  0  0  0  0  0  0
   10.2429   13.7090   -0.5588 N   0  0  0  0  0  0  0  0  0  0  0  0
   10.9337   13.5824   -1.8444 C   0  0  0  0  0  0  0  0  0  0  0  0
   12.3460   14.1585   -1.7235 C   0  0  0  0  0  0  0  0  0  0  0  0
   13.0300   13.5196   -0.6437 O   0  0  0  0  0  0  0  0  0  0  0  0
    5.2852   11.1181    0.2471 N   0  0  0  0  0  0  0  0  0  0  0  0
    4.8828   10.9060    1.3769 O   0  0  0  0  0  0  0  0  0  0  0  0
    4.6166   10.7762   -0.7117 O   0  0  0  0  0  0  0  0  0  0  0  0
   14.6311   11.1322    2.0693 H   0  0  0  0  0  0  0  0  0  0  0  0
   14.4132    9.4980    1.4724 H   0  0  0  0  0  0  0  0  0  0  0  0
   14.8344    9.7317    3.2541 H   0  0  0  0  0  0  0  0  0  0  0  0
   12.1321    8.3417    1.7766 H   0  0  0  0  0  0  0  0  0  0  0  0
    6.9740   11.9968    2.1491 H   0  0  0  0  0  0  0  0  0  0  0  0
    6.4415   11.7093   -2.1077 H   0  0  0  0  0  0  0  0  0  0  0  0
    8.6082   12.8632   -2.4674 H   0  0  0  0  0  0  0  0  0  0  0  0
   10.6603   14.2703    0.1971 H   0  0  0  0  0  0  0  0  0  0  0  0
   10.3781   14.1348   -2.6165 H   0  0  0  0  0  0  0  0  0  0  0  0
   10.9943   12.5206   -2.1253 H   0  0  0  0  0  0  0  0  0  0  0  0
   12.8953   13.9826   -2.6601 H   0  0  0  0  0  0  0  0  0  0  0  0
   12.2868   15.2398   -1.5305 H   0  0  0  0  0  0  0  0  0  0  0  0
   13.3692   12.6386   -0.9418 H   0  0  0  0  0  0  0  0  0  0  0  0
  1  2  1  0  0  0  0
  1 25  1  0  0  0  0
  1 26  1  0  0  0  0
  1 27  1  0  0  0  0
  2  6  1  0  0  0  0
  2  3  1  0  0  0  0
  3  4  2  0  0  0  0
  3 28  1  0  0  0  0
  4  5  1  0  0  0  0
  5  6  2  0  0  0  0
  5  8  1  0  0  0  0
  6  7  1  0  0  0  0
  8  9  2  0  0  0  0
  8 10  2  0  0  0  0
  8 11  1  0  0  0  0
 11 12  1  0  0  0  0
 12 17  2  0  0  0  0
 12 13  1  0  0  0  0
 13 14  2  0  0  0  0
 13 29  1  0  0  0  0
 14 15  1  0  0  0  0
 14 22  1  0  0  0  0
 15 16  2  0  0  0  0
 15 30  1  0  0  0  0
 16 17  1  0  0  0  0
 16 31  1  0  0  0  0
 17 18  1  0  0  0  0
 18 19  1  0  0  0  0
 18 32  1  0  0  0  0
 19 20  1  0  0  0  0
 19 33  1  0  0  0  0
 19 34  1  0  0  0  0
 20 21  1  0  0  0  0
 20 35  1  0  0  0  0
 20 36  1  0  0  0  0
 21 37  1  0  0  0  0
 22 23  2  0  0  0  0
 22 24  2  0  0  0  0
M  END
> <Name>
ZINC26540596

> <reference>
BDB4952

> <quality>
0.738

> <status>
decoy

> <atoms in reference ligand area>
22

> <score>
-36.578

$$$$
ZINC22450082
      BALL 1.4.0 (Jan  4 2012, 23:22:29)

 37 38  0999  0  0  0  0  0  0999 V2000
    2.2027    8.0551    6.2862 C   0  0  0  0  0  0  0  0  0  0  0  0
    2.9532    7.1447    5.6150 C   0  0  0  0  0  0  0  0  0  0  0  0
    1.9388    6.8865    4.1667 S   0  0  0  0  0  0  0  0  0  0  0  0
    0.6636    7.9881    4.5868 C   0  0  0  0  0  0  0  0  0  0  0  0
    1.0724    8.4566    5.7432 N   0  0  0  0  0  0  0  0  0  0  0  0
    4.2724    6.5201    5.9903 C   0  0  0  0  0  0  0  0  0  0  0  0
    5.3676    7.3380    5.4629 N   0  0  0  0  0  0  0  0  0  0  0  0
    6.0899    7.0927    4.3264 C   0  0  0  0  0  0  0  0  0  0  0  0
    6.9911    8.0872    4.2154 C   0  0  0  0  0  0  0  0  0  0  0  0
    6.8268    8.9145    5.2583 N   0  0  0  0  0  0  0  0  0  0  0  0
    5.8527    8.4747    6.0071 C   0  0  0  0  0  0  0  0  0  0  0  0
    8.0099    8.2404    3.1154 C   0  0  0  0  0  0  0  0  0  0  0  0
    7.7021    9.5027    2.3074 C   0  0  0  0  0  0  0  0  0  0  0  0
    6.2248    9.5649    2.0162 C   0  0  0  0  0  0  0  0  0  0  0  0
    5.5539    8.5620    2.0790 O   0  0  0  0  0  0  0  0  0  0  0  0
    5.6543   10.7344    1.6867 O   0  5  0  0  0  0  0  0  0  0  0  0
    8.0993   10.6874    3.0798 N   0  3  0  0  0  0  0  0  0  0  0  0
    8.3861   11.8225    2.1926 C   0  0  0  0  0  0  0  0  0  0  0  0
    8.5509   13.0938    3.0277 C   0  0  0  0  0  0  0  0  0  0  0  0
    8.3695   12.7726    4.4496 N   0  0  0  0  0  0  0  0  0  0  0  0
    2.5309    8.4478    7.2599 H   0  0  0  0  0  0  0  0  0  0  0  0
   -0.2518    8.2310    4.0274 H   0  0  0  0  0  0  0  0  0  0  0  0
    4.3528    6.4631    7.0859 H   0  0  0  0  0  0  0  0  0  0  0  0
    4.3342    5.5075    5.5650 H   0  0  0  0  0  0  0  0  0  0  0  0
    5.9595    6.2460    3.6364 H   0  0  0  0  0  0  0  0  0  0  0  0
    5.4874    8.9510    6.9288 H   0  0  0  0  0  0  0  0  0  0  0  0
    7.9705    7.3632    2.4529 H   0  0  0  0  0  0  0  0  0  0  0  0
    9.0148    8.3231    3.5551 H   0  0  0  0  0  0  0  0  0  0  0  0
    8.2618    9.4777    1.3608 H   0  0  0  0  0  0  0  0  0  0  0  0
    7.3374   10.9443    3.7236 H   0  0  0  0  0  0  0  0  0  0  0  0
    8.9406   10.4677    3.6319 H   0  0  0  0  0  0  0  0  0  0  0  0
    9.3145   11.6274    1.6358 H   0  0  0  0  0  0  0  0  0  0  0  0
    7.5549   11.9551    1.4845 H   0  0  0  0  0  0  0  0  0  0  0  0
    7.7984   13.8352    2.7211 H   0  0  0  0  0  0  0  0  0  0  0  0
    9.5581   13.5074    2.8713 H   0  0  0  0  0  0  0  0  0  0  0  0
    7.4268   12.3849    4.5975 H   0  0  0  0  0  0  0  0  0  0  0  0
    8.4806   13.6279    5.0126 H   0  0  0  0  0  0  0  0  0  0  0  0
  1  5  1  0  0  0  0
  1  2  2  0  0  0  0
  1 21  1  0  0  0  0
  2  3  1  0  0  0  0
  2  6  1  0  0  0  0
  3  4  1  0  0  0  0
  4  5  2  0  0  0  0
  4 22  1  0  0  0  0
  6  7  1  0  0  0  0
  6 23  1  0  0  0  0
  6 24  1  0  0  0  0
  7 11  1  0  0  0  0
  7  8  1  0  0  0  0
  8  9  2  0  0  0  0
  8 25  1  0  0  0  0
  9 10  1  0  0  0  0
  9 12  1  0  0  0  0
 10 11  2  0  0  0  0
 11 26  1  0  0  0  0
 12 13  1  0  0  0  0
 12 27  1  0  0  0  0
 12 28  1  0  0  0  0
 13 14  1  0  0  0  0
 13 17  1  0  0  0  0
 13 29  1  0  0  0  0
 14 15  2  0  0  0  0
 14 16  1  0  0  0  0
 17 18  1  0  0  0  0
 17 30  1  0  0  0  0
 17 31  1  0  0  0  0
 18 19  1  0  0  0  0
 18 32  1  0  0  0  0
 18 33  1  0  0  0  0
 19 20  1  0  0  0  0
 19 34  1  0  0  0  0
 19 35  1  0  0  0  0
 20 36  1  0  0  0  0
 20 37  1  0  0  0  0
M  END
> <Name>
ZINC22450082

> <reference>
BDB5021

> <quality>
0.714

> <status>
decoy

> <atoms in reference ligand area>
12

> <score>
-36.4483

$$$$
ZINC09467478
      BALL 1.4.0 (Jan  4 2012, 23:22:29)

 46 48  0999  0  0  0  0  0  0999 V2000
    9.1242   12.2842   -1.1062 C   0  0  0  0  0  0  0  0  0  0  0  0
   10.0451   12.9838   -1.8565 C   0  0  0  0  0  0  0  0  0  0  0  0
   11.3143   13.2292   -1.3491 C   0  0  0  0  0  0  0  0  0  0  0  0
   11.6592   12.7764   -0.0824 C   0  0  0  0  0  0  0  0  0  0  0  0
   10.7421   12.0813    0.6765 C   0  0  0  0  0  0  0  0  0  0  0  0
    9.4651   11.8324    0.1700 C   0  0  0  0  0  0  0  0  0  0  0  0
    8.4787   11.0875    0.9805 C   0  0  0  0  0  0  0  0  0  0  0  0
    8.3411   11.1404    2.2849 N   0  0  0  0  0  0  0  0  0  0  0  0
    7.3859   10.3657    2.6573 N   0  0  0  0  0  0  0  0  0  0  0  0
    6.8546    9.7703    1.6134 C   0  0  0  0  0  0  0  0  0  0  0  0
    7.5275   10.2122    0.5094 N   0  0  0  0  0  0  0  0  0  0  0  0
    7.3042    9.8568   -0.7905 N   0  0  0  0  0  0  0  0  0  0  0  0
    5.5185    8.6218    1.6329 S   0  0  0  0  0  0  0  0  0  0  0  0
    5.3824    8.3281    3.4138 C   0  0  0  0  0  0  0  0  0  0  0  0
    4.2695    7.3469    3.6774 C   0  0  0  0  0  0  0  0  0  0  0  0
    3.8907    7.1500    4.8126 O   0  0  0  0  0  0  0  0  0  0  0  0
    3.6950    6.6881    2.6516 N   0  0  0  0  0  0  0  0  0  0  0  0
    2.6131    5.7341    2.9077 C   0  0  0  0  0  0  0  0  0  0  0  0
    1.3593    6.4914    3.3496 C   0  0  0  0  0  0  0  0  0  0  0  0
    1.1040    6.2279    4.7679 N   0  0  0  0  0  0  0  0  0  0  0  0
    0.5128    7.1691    5.4846 C   0  0  0  0  0  0  0  0  0  0  0  0
    0.1790    8.2327    5.0082 O   0  0  0  0  0  0  0  0  0  0  0  0
    0.2766    6.8233    6.9478 C   0  0  0  0  0  0  0  0  0  0  0  0
    1.0003    5.1352    6.9930 S   0  0  0  0  0  0  0  0  0  0  0  0
    1.4880    5.0424    5.2766 C   0  0  0  0  0  0  0  0  0  0  0  0
    2.0385    4.1231    4.7023 O   0  0  0  0  0  0  0  0  0  0  0  0
   12.2212   13.9136   -2.0943 O   0  0  0  0  0  0  0  0  0  0  0  0
   11.9748   15.3063   -2.2980 C   0  0  0  0  0  0  0  0  0  0  0  0
   10.6227   15.5796   -2.0649 F   0  0  0  0  0  0  0  0  0  0  0  0
   12.7606   16.0531   -1.4137 F   0  0  0  0  0  0  0  0  0  0  0  0
    8.1221   12.0822   -1.5125 H   0  0  0  0  0  0  0  0  0  0  0  0
    9.7742   13.3481   -2.8585 H   0  0  0  0  0  0  0  0  0  0  0  0
   12.6656   12.9728    0.3158 H   0  0  0  0  0  0  0  0  0  0  0  0
   11.0160   11.7231    1.6798 H   0  0  0  0  0  0  0  0  0  0  0  0
    8.1441    9.5644   -1.3099 H   0  0  0  0  0  0  0  0  0  0  0  0
    6.3755    9.8731   -1.2356 H   0  0  0  0  0  0  0  0  0  0  0  0
    5.1637    9.2761    3.9272 H   0  0  0  0  0  0  0  0  0  0  0  0
    6.3302    7.9168    3.7911 H   0  0  0  0  0  0  0  0  0  0  0  0
    4.0168    6.8552    1.6875 H   0  0  0  0  0  0  0  0  0  0  0  0
    2.3955    5.1707    1.9884 H   0  0  0  0  0  0  0  0  0  0  0  0
    2.9181    5.0366    3.7017 H   0  0  0  0  0  0  0  0  0  0  0  0
    0.4977    6.1554    2.7541 H   0  0  0  0  0  0  0  0  0  0  0  0
    1.5104    7.5705    3.1991 H   0  0  0  0  0  0  0  0  0  0  0  0
    0.8466    7.4935    7.6080 H   0  0  0  0  0  0  0  0  0  0  0  0
   -0.7989    6.7763    7.1739 H   0  0  0  0  0  0  0  0  0  0  0  0
   12.2304   15.5762   -3.3333 H   0  0  0  0  0  0  0  0  0  0  0  0
  1  6  2  0  0  0  0
  1  2  1  0  0  0  0
  1 31  1  0  0  0  0
  2  3  2  0  0  0  0
  2 32  1  0  0  0  0
  3  4  1  0  0  0  0
  3 27  1  0  0  0  0
  4  5  2  0  0  0  0
  4 33  1  0  0  0  0
  5  6  1  0  0  0  0
  5 34  1  0  0  0  0
  6  7  1  0  0  0  0
  7 11  1  0  0  0  0
  7  8  2  0  0  0  0
  8  9  1  0  0  0  0
  9 10  2  0  0  0  0
 10 11  1  0  0  0  0
 10 13  1  0  0  0  0
 11 12  1  0  0  0  0
 12 35  1  0  0  0  0
 12 36  1  0  0  0  0
 13 14  1  0  0  0  0
 14 15  1  0  0  0  0
 14 37  1  0  0  0  0
 14 38  1  0  0  0  0
 15 16  2  0  0  0  0
 15 17  1  0  0  0  0
 17 18  1  0  0  0  0
 17 39  1  0  0  0  0
 18 19  1  0  0  0  0
 18 40  1  0  0  0  0
 18 41  1  0  0  0  0
 19 20  1  0  0  0  0
 19 42  1  0  0  0  0
 19 43  1  0  0  0  0
 20 25  1  0  0  0  0
 20 21  1  0  0  0  0
 21 22  2  0  0  0  0
 21 23  1  0  0  0  0
 23 24  1  0  0  0  0
 23 44  1  0  0  0  0
 23 45  1  0  0  0  0
 24 25  1  0  0  0  0
 25 26  2  0  0  0  0
 27 28  1  0  0  0  0
 28 29  1  0  0  0  0
 28 30  1  0  0  0  0
 28 46  1  0  0  0  0
M  END
> <Name>
ZINC09467478

> <reference>
BDB4972

> <quality>
0.665

> <status>
decoy

> <atoms in reference ligand area>
12

> <score>
-36.4462

$$$$
ZINC04650528
      BALL 1.4.0 (Jan  4 2012, 23:22:29)

 44 45  0999  0  0  0  0  0  0999 V2000
   11.2179    7.7812    4.2196 C   0  0  0  0  0  0  0  0  0  0  0  0
   10.2045    8.8608    4.4997 C   0  0  0  0  0  0  0  0  0  0  0  0
    9.6899    8.9379    5.5894 O   0  0  0  0  0  0  0  0  0  0  0  0
    9.8333    9.8442    3.4197 C   0  0  0  0  0  0  0  0  0  0  0  0
    8.4661   10.4801    3.7186 C   0  0  0  0  0  0  0  0  0  0  0  0
   10.7815   12.0535    3.2769 N   0  0  0  0  0  0  0  0  0  0  0  0
   11.4238   11.3110    2.3668 C   0  0  0  0  0  0  0  0  0  0  0  0
   12.3047   11.7242    1.6412 O   0  0  0  0  0  0  0  0  0  0  0  0
   10.9197    9.9089    2.3661 C   0  0  0  0  0  0  0  0  0  0  0  0
   11.3014    9.0032    1.6641 O   0  0  0  0  0  0  0  0  0  0  0  0
   11.0527   13.4717    3.5251 C   0  0  0  0  0  0  0  0  0  0  0  0
   10.0000   14.3245    2.8141 C   0  0  0  0  0  0  0  0  0  0  0  0
    8.9601   16.5104    2.7619 C   0  0  0  0  0  0  0  0  0  0  0  0
    9.6510   17.7381    2.1650 C   0  0  0  0  0  0  0  0  0  0  0  0
    9.3674   18.8833    2.9713 O   0  0  0  0  0  0  0  0  0  0  0  0
    7.5166   10.2211    2.5775 C   0  0  0  0  0  0  0  0  0  0  0  0
    6.5848    9.2040    2.6722 C   0  0  0  0  0  0  0  0  0  0  0  0
    5.7095    8.9683    1.6299 C   0  0  0  0  0  0  0  0  0  0  0  0
    5.7733    9.7459    0.4827 C   0  0  0  0  0  0  0  0  0  0  0  0
    6.7127   10.7623    0.3879 C   0  0  0  0  0  0  0  0  0  0  0  0
    7.5822   10.9976    1.4353 C   0  0  0  0  0  0  0  0  0  0  0  0
    4.9166    9.5127   -0.5462 O   0  0  0  0  0  0  0  0  0  0  0  0
    9.9681   15.6649    3.4289 N   0  3  0  0  0  0  0  0  0  0  0  0
   12.1698    8.1854    4.5945 H   0  0  0  0  0  0  0  0  0  0  0  0
   11.2957    7.7467    3.1229 H   0  0  0  0  0  0  0  0  0  0  0  0
   10.9707    6.8031    4.6579 H   0  0  0  0  0  0  0  0  0  0  0  0
    9.8533    9.8712    5.8764 H   0  0  0  0  0  0  0  0  0  0  0  0
    7.6997   10.5016    4.5073 H   0  0  0  0  0  0  0  0  0  0  0  0
   11.0140   13.6687    4.6066 H   0  0  0  0  0  0  0  0  0  0  0  0
   12.0512   13.7278    3.1413 H   0  0  0  0  0  0  0  0  0  0  0  0
   10.2588   14.4153    1.7488 H   0  0  0  0  0  0  0  0  0  0  0  0
    9.0123   13.8509    2.9153 H   0  0  0  0  0  0  0  0  0  0  0  0
    8.2075   16.8330    3.4965 H   0  0  0  0  0  0  0  0  0  0  0  0
    8.4719   15.9362    1.9607 H   0  0  0  0  0  0  0  0  0  0  0  0
   10.7377   17.5700    2.1369 H   0  0  0  0  0  0  0  0  0  0  0  0
    9.2798   17.9086    1.1436 H   0  0  0  0  0  0  0  0  0  0  0  0
    8.4146   19.1322    2.8694 H   0  0  0  0  0  0  0  0  0  0  0  0
    6.5405    8.5820    3.5783 H   0  0  0  0  0  0  0  0  0  0  0  0
    4.9626    8.1647    1.7094 H   0  0  0  0  0  0  0  0  0  0  0  0
    6.7653   11.3803   -0.5206 H   0  0  0  0  0  0  0  0  0  0  0  0
    8.3273   11.8034    1.3607 H   0  0  0  0  0  0  0  0  0  0  0  0
    4.0273    9.4199   -0.1210 H   0  0  0  0  0  0  0  0  0  0  0  0
    9.7322   15.5769    4.4276 H   0  0  0  0  0  0  0  0  0  0  0  0
   10.8951   16.1049    3.3390 H   0  0  0  0  0  0  0  0  0  0  0  0
  1  2  1  0  0  0  0
  1 24  1  0  0  0  0
  1 25  1  0  0  0  0
  1 26  1  0  0  0  0
  2  4  2  0  0  0  0
  2  3  1  0  0  0  0
  3 27  1  0  0  0  0
  4  5  1  0  0  0  0
  4  9  1  0  0  0  0
  5  6  1  0  0  0  0
  5 16  1  0  0  0  0
  5 28  1  0  0  0  0
  6  7  1  0  0  0  0
  6 11  1  0  0  0  0
  7  8  2  0  0  0  0
  7  9  1  0  0  0  0
  9 10  2  0  0  0  0
 11 12  1  0  0  0  0
 11 29  1  0  0  0  0
 11 30  1  0  0  0  0
 12 23  1  0  0  0  0
 12 31  1  0  0  0  0
 12 32  1  0  0  0  0
 13 14  1  0  0  0  0
 13 23  1  0  0  0  0
 13 33  1  0  0  0  0
 13 34  1  0  0  0  0
 14 15  1  0  0  0  0
 14 35  1  0  0  0  0
 14 36  1  0  0  0  0
 15 37  1  0  0  0  0
 16 21  2  0  0  0  0
 16 17  1  0  0  0  0
 17 18  2  0  0  0  0
 17 38  1  0  0  0  0
 18 19  1  0  0  0  0
 18 39  1  0  0  0  0
 19 20  2  0  0  0  0
 19 22  1  0  0  0  0
 20 21  1  0  0  0  0
 20 40  1  0  0  0  0
 21 41  1  0  0  0  0
 22 42  1  0  0  0  0
 23 43  1  0  0  0  0
 23 44  1  0  0  0  0
M  END
> <Name>
ZINC04650528

> <reference>
BDB5200

> <quality>
0.817

> <status>
decoy

> <atoms in reference ligand area>
14

> <score>
-36.2862

$$$$
ZINC01818846
      BALL 1.4.0 (Jan  4 2012, 23:22:29)

 34 34  0999  0  0  0  0  0  0999 V2000
   15.4720    9.4113    3.6629 C   0  0  0  0  0  0  0  0  0  0  0  0
   14.2586    9.2645    2.7427 C   0  0  0  0  0  0  0  0  0  0  0  0
   13.4258   10.5473    2.7881 C   0  0  0  0  0  0  0  0  0  0  0  0
   12.5448   10.6176    1.5676 C   0  0  0  0  0  0  0  0  0  0  0  0
   12.2969    9.6100    0.9396 O   0  0  0  0  0  0  0  0  0  0  0  0
   12.0324   11.8003    1.1736 N   0  0  0  0  0  0  0  0  0  0  0  0
   10.9126   11.8332    0.3323 N   0  0  0  0  0  0  0  0  0  0  0  0
   10.9960   12.4394   -0.9021 C   0  0  0  0  0  0  0  0  0  0  0  0
    9.7621   12.8733   -1.5996 C   0  0  0  0  0  0  0  0  0  0  0  0
    8.4184   13.1298   -1.0325 C   0  0  0  0  0  0  0  0  0  0  0  0
    7.7236   13.4771   -2.0909 N   0  0  0  0  0  0  0  0  0  0  0  0
    8.4374   13.4562   -3.0657 O   0  0  0  0  0  0  0  0  0  0  0  0
    9.5853   13.1275   -2.8774 N   0  0  0  0  0  0  0  0  0  0  0  0
    7.9975   13.0237    0.2866 N   0  0  0  0  0  0  0  0  0  0  0  0
   14.9980    9.6611    5.0961 C   0  0  0  0  0  0  0  0  0  0  0  0
   15.5367   11.0075    5.5839 C   0  0  0  0  0  0  0  0  0  0  0  0
   15.5082   11.0425    7.0123 O   0  0  0  0  0  0  0  0  0  0  0  0
   12.1456   12.6630   -1.5177 N   0  0  0  0  0  0  0  0  0  0  0  0
   16.0706    8.4889    3.6308 H   0  0  0  0  0  0  0  0  0  0  0  0
   16.0872   10.2595    3.3280 H   0  0  0  0  0  0  0  0  0  0  0  0
   14.5994    9.0855    1.7122 H   0  0  0  0  0  0  0  0  0  0  0  0
   13.6432    8.4167    3.0780 H   0  0  0  0  0  0  0  0  0  0  0  0
   14.0953   11.4200    2.8070 H   0  0  0  0  0  0  0  0  0  0  0  0
   12.7994   10.5461    3.6923 H   0  0  0  0  0  0  0  0  0  0  0  0
   12.4641   12.6799    1.4909 H   0  0  0  0  0  0  0  0  0  0  0  0
   10.0270   11.4043    0.6366 H   0  0  0  0  0  0  0  0  0  0  0  0
    7.1367   13.5525    0.4870 H   0  0  0  0  0  0  0  0  0  0  0  0
    8.4795   12.4767    1.0141 H   0  0  0  0  0  0  0  0  0  0  0  0
   13.8984    9.6758    5.1214 H   0  0  0  0  0  0  0  0  0  0  0  0
   15.3692    8.8593    5.7512 H   0  0  0  0  0  0  0  0  0  0  0  0
   14.9114   11.8200    5.1854 H   0  0  0  0  0  0  0  0  0  0  0  0
   16.5719   11.1365    5.2350 H   0  0  0  0  0  0  0  0  0  0  0  0
   14.6388   11.4048    7.3172 H   0  0  0  0  0  0  0  0  0  0  0  0
   13.0106   12.3665   -1.0438 H   0  0  0  0  0  0  0  0  0  0  0  0
  1  2  1  0  0  0  0
  1 15  1  0  0  0  0
  1 19  1  0  0  0  0
  1 20  1  0  0  0  0
  2  3  1  0  0  0  0
  2 21  1  0  0  0  0
  2 22  1  0  0  0  0
  3  4  1  0  0  0  0
  3 23  1  0  0  0  0
  3 24  1  0  0  0  0
  4  5  2  0  0  0  0
  4  6  1  0  0  0  0
  6  7  1  0  0  0  0
  6 25  1  0  0  0  0
  7  8  1  0  0  0  0
  7 26  1  0  0  0  0
  8  9  1  0  0  0  0
  8 18  2  0  0  0  0
  9 13  2  0  0  0  0
  9 10  1  0  0  0  0
 10 11  2  0  0  0  0
 10 14  1  0  0  0  0
 11 12  1  0  0  0  0
 12 13  1  0  0  0  0
 14 27  1  0  0  0  0
 14 28  1  0  0  0  0
 15 16  1  0  0  0  0
 15 29  1  0  0  0  0
 15 30  1  0  0  0  0
 16 17  1  0  0  0  0
 16 31  1  0  0  0  0
 16 32  1  0  0  0  0
 17 33  1  0  0  0  0
 18 34  1  0  0  0  0
M  END
> <Name>
ZINC01818846

> <reference>
BDB5021

> <quality>
0.695

> <status>
decoy

> <atoms in reference ligand area>
13

> <score>
-35.9866

$$$$
ZINC04189752
      BALL 1.4.0 (Jan  4 2012, 23:22:29)

 43 44  0999  0  0  0  0  0  0999 V2000
    6.2079    7.7458   -5.4880 C   0  0  0  0  0  0  0  0  0  0  0  0
    6.2153    7.8254   -4.0612 O   0  0  0  0  0  0  0  0  0  0  0  0
    5.1203    7.3493   -3.4106 C   0  0  0  0  0  0  0  0  0  0  0  0
    4.0624    6.8169   -4.1295 C   0  0  0  0  0  0  0  0  0  0  0  0
    2.9499    6.3328   -3.4665 C   0  0  0  0  0  0  0  0  0  0  0  0
    2.8892    6.3782   -2.0858 C   0  0  0  0  0  0  0  0  0  0  0  0
    3.9427    6.9024   -1.3612 C   0  0  0  0  0  0  0  0  0  0  0  0
    5.0597    7.3953   -2.0198 C   0  0  0  0  0  0  0  0  0  0  0  0
    6.1268    7.9327   -1.2874 N   0  0  0  0  0  0  0  0  0  0  0  0
    6.3341    7.5428   -0.0141 C   0  0  0  0  0  0  0  0  0  0  0  0
    5.5410    6.8046    0.5310 O   0  0  0  0  0  0  0  0  0  0  0  0
    7.5515    8.0242    0.7326 C   0  0  0  0  0  0  0  0  0  0  0  0
    7.1243    9.0067    1.8250 C   0  0  0  0  0  0  0  0  0  0  0  0
    6.1202    9.9789    1.2615 C   0  0  0  0  0  0  0  0  0  0  0  0
    5.7904   10.9472    1.9045 O   0  0  0  0  0  0  0  0  0  0  0  0
    7.9474   10.6137    3.4383 C   0  0  0  0  0  0  0  0  0  0  0  0
    8.8473   11.8226    3.4405 C   0  0  0  0  0  0  0  0  0  0  0  0
   10.2027   11.6648    3.6607 C   0  0  0  0  0  0  0  0  0  0  0  0
   11.0218   12.7832    3.6603 C   0  0  0  0  0  0  0  0  0  0  0  0
   10.4443   14.0242    3.4375 C   0  0  0  0  0  0  0  0  0  0  0  0
    9.0805   14.1047    3.2305 C   0  0  0  0  0  0  0  0  0  0  0  0
    8.3325   13.0184    3.2321 N   0  0  0  0  0  0  0  0  0  0  0  0
    5.5923    9.7690    0.0455 O   0  5  0  0  0  0  0  0  0  0  0  0
    8.3091    9.7440    2.3031 N   0  3  0  0  0  0  0  0  0  0  0  0
    5.3699    7.0858   -5.7565 H   0  0  0  0  0  0  0  0  0  0  0  0
    7.1414    7.2394   -5.7744 H   0  0  0  0  0  0  0  0  0  0  0  0
    6.1177    8.7312   -5.9686 H   0  0  0  0  0  0  0  0  0  0  0  0
    4.1075    6.7793   -5.2278 H   0  0  0  0  0  0  0  0  0  0  0  0
    2.1109    5.9105   -4.0390 H   0  0  0  0  0  0  0  0  0  0  0  0
    2.0001    5.9960   -1.5629 H   0  0  0  0  0  0  0  0  0  0  0  0
    3.8956    6.9289   -0.2625 H   0  0  0  0  0  0  0  0  0  0  0  0
    6.7527    8.6256   -1.7223 H   0  0  0  0  0  0  0  0  0  0  0  0
    8.0633    7.1657    1.1921 H   0  0  0  0  0  0  0  0  0  0  0  0
    8.2357    8.5283    0.0343 H   0  0  0  0  0  0  0  0  0  0  0  0
    6.6688    8.4560    2.6613 H   0  0  0  0  0  0  0  0  0  0  0  0
    8.0738   10.0595    4.3800 H   0  0  0  0  0  0  0  0  0  0  0  0
    6.9001   10.9340    3.3358 H   0  0  0  0  0  0  0  0  0  0  0  0
   10.6261   10.6644    3.8340 H   0  0  0  0  0  0  0  0  0  0  0  0
   12.1041   12.6886    3.8325 H   0  0  0  0  0  0  0  0  0  0  0  0
   11.0641   14.9329    3.4258 H   0  0  0  0  0  0  0  0  0  0  0  0
    8.6132   15.0862    3.0625 H   0  0  0  0  0  0  0  0  0  0  0  0
    9.0303    9.0731    2.6041 H   0  0  0  0  0  0  0  0  0  0  0  0
    8.6847   10.3217    1.5376 H   0  0  0  0  0  0  0  0  0  0  0  0
  1  2  1  0  0  0  0
  1 25  1  0  0  0  0
  1 26  1  0  0  0  0
  1 27  1  0  0  0  0
  2  3  1  0  0  0  0
  3  8  2  0  0  0  0
  3  4  1  0  0  0  0
  4  5  2  0  0  0  0
  4 28  1  0  0  0  0
  5  6  1  0  0  0  0
  5 29  1  0  0  0  0
  6  7  2  0  0  0  0
  6 30  1  0  0  0  0
  7  8  1  0  0  0  0
  7 31  1  0  0  0  0
  8  9  1  0  0  0  0
  9 10  1  0  0  0  0
  9 32  1  0  0  0  0
 10 11  2  0  0  0  0
 10 12  1  0  0  0  0
 12 13  1  0  0  0  0
 12 33  1  0  0  0  0
 12 34  1  0  0  0  0
 13 14  1  0  0  0  0
 13 24  1  0  0  0  0
 13 35  1  0  0  0  0
 14 15  2  0  0  0  0
 14 23  1  0  0  0  0
 16 17  1  0  0  0  0
 16 24  1  0  0  0  0
 16 36  1  0  0  0  0
 16 37  1  0  0  0  0
 17 22  2  0  0  0  0
 17 18  1  0  0  0  0
 18 19  2  0  0  0  0
 18 38  1  0  0  0  0
 19 20  1  0  0  0  0
 19 39  1  0  0  0  0
 20 21  2  0  0  0  0
 20 40  1  0  0  0  0
 21 22  1  0  0  0  0
 21 41  1  0  0  0  0
 24 42  1  0  0  0  0
 24 43  1  0  0  0  0
M  END
> <Name>
ZINC04189752

> <reference>
BDB5013

> <quality>
0.734

> <status>
decoy

> <atoms in reference ligand area>
12

> <score>
-35.9377

$$$$
ZINC09915296
      BALL 1.4.0 (Jan  4 2012, 23:22:29)

 40 41  0999  0  0  0  0  0  0999 V2000
   16.8729   11.1612    7.6290 C   0  0  0  0  0  0  0  0  0  0  0  0
   15.5968   11.9786    5.7400 C   0  0  0  0  0  0  0  0  0  0  0  0
   14.3438   11.7315    4.8965 C   0  0  0  0  0  0  0  0  0  0  0  0
   14.4379   10.4106    4.2594 N   0  0  0  0  0  0  0  0  0  0  0  0
   14.5629    9.3498    5.2688 C   0  0  0  0  0  0  0  0  0  0  0  0
   15.8159    9.5969    6.1122 C   0  0  0  0  0  0  0  0  0  0  0  0
   13.3675   10.1843    3.4414 N   0  0  0  0  0  0  0  0  0  0  0  0
   12.8841   11.1806    2.6731 C   0  0  0  0  0  0  0  0  0  0  0  0
   13.5785   12.1433    2.4200 O   0  0  0  0  0  0  0  0  0  0  0  0
   11.4940   11.0999    2.1332 C   0  0  0  0  0  0  0  0  0  0  0  0
   10.7387   10.2358    2.5284 O   0  0  0  0  0  0  0  0  0  0  0  0
   11.0800   11.9832    1.2033 N   0  0  0  0  0  0  0  0  0  0  0  0
    9.8153   11.8462    0.6232 C   0  0  0  0  0  0  0  0  0  0  0  0
    9.6205   12.1871   -0.7095 C   0  0  0  0  0  0  0  0  0  0  0  0
    8.3719   12.0456   -1.2818 C   0  0  0  0  0  0  0  0  0  0  0  0
    7.3115   11.5751   -0.5252 C   0  0  0  0  0  0  0  0  0  0  0  0
    7.5019   11.2401    0.8048 C   0  0  0  0  0  0  0  0  0  0  0  0
    8.7503   11.3746    1.3799 C   0  0  0  0  0  0  0  0  0  0  0  0
    6.3668   10.7370    1.6106 N   0  0  0  0  0  0  0  0  0  0  0  0
    5.2321   11.1003    1.3578 O   0  0  0  0  0  0  0  0  0  0  0  0
    6.5674    9.9595    2.5266 O   0  0  0  0  0  0  0  0  0  0  0  0
    6.0895   11.4423   -1.0859 F   0  0  0  0  0  0  0  0  0  0  0  0
   15.6983   10.9181    6.7645 N   0  3  0  0  0  0  0  0  0  0  0  0
   17.1730   12.2162    7.5464 H   0  0  0  0  0  0  0  0  0  0  0  0
   17.7042   10.5196    7.3016 H   0  0  0  0  0  0  0  0  0  0  0  0
   16.6189   10.9308    8.6743 H   0  0  0  0  0  0  0  0  0  0  0  0
   16.4868   11.9524    5.0939 H   0  0  0  0  0  0  0  0  0  0  0  0
   15.5231   12.9596    6.2322 H   0  0  0  0  0  0  0  0  0  0  0  0
   14.2634   12.5073    4.1209 H   0  0  0  0  0  0  0  0  0  0  0  0
   13.4542   11.7642    5.5426 H   0  0  0  0  0  0  0  0  0  0  0  0
   14.6448    8.3736    4.7687 H   0  0  0  0  0  0  0  0  0  0  0  0
   13.6761    9.3560    5.9196 H   0  0  0  0  0  0  0  0  0  0  0  0
   16.7052    9.5842    5.4649 H   0  0  0  0  0  0  0  0  0  0  0  0
   15.9033    8.8140    6.8800 H   0  0  0  0  0  0  0  0  0  0  0  0
   12.9299    9.2524    3.4118 H   0  0  0  0  0  0  0  0  0  0  0  0
   11.6953   12.7591    0.9199 H   0  0  0  0  0  0  0  0  0  0  0  0
   10.4603   12.5695   -1.3083 H   0  0  0  0  0  0  0  0  0  0  0  0
    8.2194   12.3068   -2.3394 H   0  0  0  0  0  0  0  0  0  0  0  0
    8.9011   11.1084    2.4365 H   0  0  0  0  0  0  0  0  0  0  0  0
   14.8477   10.9308    7.3451 H   0  0  0  0  0  0  0  0  0  0  0  0
  1 23  1  0  0  0  0
  1 24  1  0  0  0  0
  1 25  1  0  0  0  0
  1 26  1  0  0  0  0
  2  3  1  0  0  0  0
  2 23  1  0  0  0  0
  2 27  1  0  0  0  0
  2 28  1  0  0  0  0
  3  4  1  0  0  0  0
  3 29  1  0  0  0  0
  3 30  1  0  0  0  0
  4  5  1  0  0  0  0
  4  7  1  0  0  0  0
  5  6  1  0  0  0  0
  5 31  1  0  0  0  0
  5 32  1  0  0  0  0
  6 23  1  0  0  0  0
  6 33  1  0  0  0  0
  6 34  1  0  0  0  0
  7  8  1  0  0  0  0
  7 35  1  0  0  0  0
  8  9  2  0  0  0  0
  8 10  1  0  0  0  0
 10 11  2  0  0  0  0
 10 12  1  0  0  0  0
 12 13  1  0  0  0  0
 12 36  1  0  0  0  0
 13 18  2  0  0  0  0
 13 14  1  0  0  0  0
 14 15  2  0  0  0  0
 14 37  1  0  0  0  0
 15 16  1  0  0  0  0
 15 38  1  0  0  0  0
 16 17  2  0  0  0  0
 16 22  1  0  0  0  0
 17 18  1  0  0  0  0
 17 19  1  0  0  0  0
 18 39  1  0  0  0  0
 19 20  2  0  0  0  0
 19 21  2  0  0  0  0
 23 40  1  0  0  0  0
M  END
> <Name>
ZINC09915296

> <reference>
BDB4977

> <quality>
0.669

> <status>
decoy

> <atoms in reference ligand area>
15

> <score>
-35.7584

$$$$
ZINC05758200
      BALL 1.4.0 (Jan  4 2012, 23:22:29)

 20 20  0999  0  0  0  0  0  0999 V2000
    7.9059   12.5939   -0.9176 C   0  0  0  0  0  0  0  0  0  0  0  0
    9.2628   12.3426   -0.8596 C   0  0  0  0  0  0  0  0  0  0  0  0
    9.7579   11.6040    0.2171 C   0  0  0  0  0  0  0  0  0  0  0  0
    8.9125   11.1786    1.1506 N   0  0  0  0  0  0  0  0  0  0  0  0
    7.6178   11.4410    1.0580 C   0  0  0  0  0  0  0  0  0  0  0  0
    7.1199   12.1349    0.0450 N   0  0  0  0  0  0  0  0  0  0  0  0
    6.7634   10.9784    2.0436 N   0  0  0  0  0  0  0  0  0  0  0  0
    5.4110   11.0576    1.8675 N   0  0  0  0  0  0  0  0  0  0  0  0
   11.1110   11.3229    0.3136 N   0  0  0  0  0  0  0  0  0  0  0  0
   11.5244   10.0938    0.7430 N   0  0  0  0  0  0  0  0  0  0  0  0
   10.1707   12.8395   -1.9178 N   0  0  0  0  0  0  0  0  0  0  0  0
   11.3536   12.5501   -1.8907 O   0  0  0  0  0  0  0  0  0  0  0  0
    9.7341   13.5338   -2.8182 O   0  0  0  0  0  0  0  0  0  0  0  0
    7.4824   13.1691   -1.7541 H   0  0  0  0  0  0  0  0  0  0  0  0
    7.1471   10.5745    2.9099 H   0  0  0  0  0  0  0  0  0  0  0  0
    5.2843   11.6914    1.0655 H   0  0  0  0  0  0  0  0  0  0  0  0
    5.0632   11.5518    2.7015 H   0  0  0  0  0  0  0  0  0  0  0  0
   11.8054   12.0407    0.0615 H   0  0  0  0  0  0  0  0  0  0  0  0
   12.4729    9.9830    0.3574 H   0  0  0  0  0  0  0  0  0  0  0  0
   10.9176    9.4228    0.2507 H   0  0  0  0  0  0  0  0  0  0  0  0
  1  6  2  0  0  0  0
  1  2  1  0  0  0  0
  1 14  1  0  0  0  0
  2  3  2  0  0  0  0
  2 11  1  0  0  0  0
  3  4  1  0  0  0  0
  3  9  1  0  0  0  0
  4  5  2  0  0  0  0
  5  6  1  0  0  0  0
  5  7  1  0  0  0  0
  7  8  1  0  0  0  0
  7 15  1  0  0  0  0
  8 16  1  0  0  0  0
  8 17  1  0  0  0  0
  9 10  1  0  0  0  0
  9 18  1  0  0  0  0
 10 19  1  0  0  0  0
 10 20  1  0  0  0  0
 11 12  2  0  0  0  0
 11 13  2  0  0  0  0
M  END
> <Name>
ZINC05758200

> <reference>
BDB5008

> <quality>
0.697

> <status>
decoy

> <atoms in reference ligand area>
17

> <score>
-35.6284

$$$$
ZINC24628488
      BALL 1.4.0 (Jan  4 2012, 23:22:29)

 36 37  0999  0  0  0  0  0  0999 V2000
   10.7838   12.7398   -2.5139 C   0  0  0  0  0  0  0  0  0  0  0  0
   11.2173   12.1991   -1.3163 C   0  0  0  0  0  0  0  0  0  0  0  0
   10.2559   11.7803   -0.3895 C   0  0  0  0  0  0  0  0  0  0  0  0
    8.8979   11.9163   -0.7158 C   0  0  0  0  0  0  0  0  0  0  0  0
    8.5377   12.4354   -1.8772 N   0  0  0  0  0  0  0  0  0  0  0  0
    9.4271   12.8410   -2.7630 C   0  0  0  0  0  0  0  0  0  0  0  0
    7.9506   11.5130    0.1639 O   0  0  0  0  0  0  0  0  0  0  0  0
    7.5063   10.1586    0.0633 C   0  0  0  0  0  0  0  0  0  0  0  0
    5.9927   10.1010    0.2791 C   0  0  0  0  0  0  0  0  0  0  0  0
    5.5578    8.7749    0.1807 F   0  0  0  0  0  0  0  0  0  0  0  0
    5.6834   10.6001    1.5489 F   0  0  0  0  0  0  0  0  0  0  0  0
    5.3530   10.8751   -0.6949 F   0  0  0  0  0  0  0  0  0  0  0  0
   10.6627   11.2017    0.9052 C   0  0  0  0  0  0  0  0  0  0  0  0
   10.3177   11.7322    1.9434 O   0  0  0  0  0  0  0  0  0  0  0  0
   11.4167   10.0850    0.9371 N   0  0  0  0  0  0  0  0  0  0  0  0
   12.1473    9.7658    2.0891 N   0  0  0  0  0  0  0  0  0  0  0  0
   12.9378   10.6935    2.6643 C   0  0  0  0  0  0  0  0  0  0  0  0
   13.0169   11.8085    2.1831 O   0  0  0  0  0  0  0  0  0  0  0  0
   13.7027   10.3594    3.8704 C   0  0  0  0  0  0  0  0  0  0  0  0
   14.3964   11.2454    4.6670 C   0  0  0  0  0  0  0  0  0  0  0  0
   14.9727   10.5027    5.7022 C   0  0  0  0  0  0  0  0  0  0  0  0
   14.6355    9.2037    5.5193 C   0  0  0  0  0  0  0  0  0  0  0  0
   13.8639    9.1031    4.4095 N   0  0  0  0  0  0  0  0  0  0  0  0
   15.8077   11.0400    6.8000 N   0  0  0  0  0  0  0  0  0  0  0  0
   15.6786   10.6073    7.9312 O   0  0  0  0  0  0  0  0  0  0  0  0
   16.6240   11.9148    6.5721 O   0  0  0  0  0  0  0  0  0  0  0  0
   11.5122   13.0863   -3.2619 H   0  0  0  0  0  0  0  0  0  0  0  0
   12.2910   12.1008   -1.0980 H   0  0  0  0  0  0  0  0  0  0  0  0
    9.0834   13.2674   -3.7170 H   0  0  0  0  0  0  0  0  0  0  0  0
    8.0086    9.5489    0.8289 H   0  0  0  0  0  0  0  0  0  0  0  0
    7.7490    9.7661   -0.9352 H   0  0  0  0  0  0  0  0  0  0  0  0
   11.4557    9.4663    0.1145 H   0  0  0  0  0  0  0  0  0  0  0  0
   12.0803    8.8222    2.4964 H   0  0  0  0  0  0  0  0  0  0  0  0
   14.4806   12.3318    4.5166 H   0  0  0  0  0  0  0  0  0  0  0  0
   14.9385    8.3670    6.1659 H   0  0  0  0  0  0  0  0  0  0  0  0
   13.4646    8.2318    4.0324 H   0  0  0  0  0  0  0  0  0  0  0  0
  1  6  2  0  0  0  0
  1  2  1  0  0  0  0
  1 27  1  0  0  0  0
  2  3  2  0  0  0  0
  2 28  1  0  0  0  0
  3  4  1  0  0  0  0
  3 13  1  0  0  0  0
  4  5  2  0  0  0  0
  4  7  1  0  0  0  0
  5  6  1  0  0  0  0
  6 29  1  0  0  0  0
  7  8  1  0  0  0  0
  8  9  1  0  0  0  0
  8 30  1  0  0  0  0
  8 31  1  0  0  0  0
  9 10  1  0  0  0  0
  9 11  1  0  0  0  0
  9 12  1  0  0  0  0
 13 14  2  0  0  0  0
 13 15  1  0  0  0  0
 15 16  1  0  0  0  0
 15 32  1  0  0  0  0
 16 17  1  0  0  0  0
 16 33  1  0  0  0  0
 17 18  2  0  0  0  0
 17 19  1  0  0  0  0
 19 23  1  0  0  0  0
 19 20  2  0  0  0  0
 20 21  1  0  0  0  0
 20 34  1  0  0  0  0
 21 22  2  0  0  0  0
 21 24  1  0  0  0  0
 22 23  1  0  0  0  0
 22 35  1  0  0  0  0
 23 36  1  0  0  0  0
 24 25  2  0  0  0  0
 24 26  2  0  0  0  0
M  END
> <Name>
ZINC24628488

> <reference>
BDB4952

> <quality>
0.715

> <status>
decoy

> <atoms in reference ligand area>
13

> <score>
-35.6043

$$$$
ZINC15690560
      BALL 1.4.0 (Jan  4 2012, 23:22:29)

 30 31  0999  0  0  0  0  0  0999 V2000
    4.4549    7.9457   -0.4340 C   0  0  0  0  0  0  0  0  0  0  0  0
    4.0835    7.1360   -1.6996 C   0  0  0  0  0  0  0  0  0  0  0  0
    5.7150    6.8829   -2.5099 S   0  0  0  0  0  0  0  0  0  0  0  0
    5.7090    7.5319   -3.7739 O   0  0  0  0  0  0  0  0  0  0  0  0
    6.0626    5.5072   -2.4318 O   0  0  0  0  0  0  0  0  0  0  0  0
    6.7829    7.8376   -1.3509 C   0  0  0  0  0  0  0  0  0  0  0  0
    5.7262    8.7708   -0.6936 C   0  0  0  0  0  0  0  0  0  0  0  0
    6.2410    9.2866    0.5622 O   0  0  0  0  0  0  0  0  0  0  0  0
    6.1641   10.6130    0.7536 C   0  0  0  0  0  0  0  0  0  0  0  0
    5.5351   11.0534    1.6865 O   0  0  0  0  0  0  0  0  0  0  0  0
    6.8622   11.5529   -0.1953 C   0  0  0  0  0  0  0  0  0  0  0  0
    8.6569   11.4176    0.0308 S   0  0  0  0  0  0  0  0  0  0  0  0
    9.3267   12.3296   -1.3198 C   0  0  0  0  0  0  0  0  0  0  0  0
    8.9773   12.1924   -2.6340 N   0  0  0  0  0  0  0  0  0  0  0  0
    9.7239   13.0737   -3.3635 C   0  0  0  0  0  0  0  0  0  0  0  0
   10.4950   13.7344   -2.5354 N   0  0  0  0  0  0  0  0  0  0  0  0
   10.2436   13.2631   -1.2402 N   0  0  0  0  0  0  0  0  0  0  0  0
    9.6706   13.2439   -4.7410 N   0  0  0  0  0  0  0  0  0  0  0  0
    3.6256    8.6212   -0.1769 H   0  0  0  0  0  0  0  0  0  0  0  0
    4.6323    7.2541    0.4028 H   0  0  0  0  0  0  0  0  0  0  0  0
    3.6492    6.1641   -1.4225 H   0  0  0  0  0  0  0  0  0  0  0  0
    3.4273    7.7248   -2.3573 H   0  0  0  0  0  0  0  0  0  0  0  0
    7.5230    8.4231   -1.9161 H   0  0  0  0  0  0  0  0  0  0  0  0
    7.2254    7.1618   -0.6043 H   0  0  0  0  0  0  0  0  0  0  0  0
    5.5014    9.6189   -1.3571 H   0  0  0  0  0  0  0  0  0  0  0  0
    6.6027   11.2882   -1.2310 H   0  0  0  0  0  0  0  0  0  0  0  0
    6.5444   12.5858    0.0099 H   0  0  0  0  0  0  0  0  0  0  0  0
    8.2746   11.5392   -3.0087 H   0  0  0  0  0  0  0  0  0  0  0  0
   10.0413   14.1368   -5.0963 H   0  0  0  0  0  0  0  0  0  0  0  0
    9.2879   12.5321   -5.3796 H   0  0  0  0  0  0  0  0  0  0  0  0
  1  7  1  0  0  0  0
  1  2  1  0  0  0  0
  1 19  1  0  0  0  0
  1 20  1  0  0  0  0
  2  3  1  0  0  0  0
  2 21  1  0  0  0  0
  2 22  1  0  0  0  0
  3  4  2  0  0  0  0
  3  5  2  0  0  0  0
  3  6  1  0  0  0  0
  6  7  1  0  0  0  0
  6 23  1  0  0  0  0
  6 24  1  0  0  0  0
  7  8  1  0  0  0  0
  7 25  1  0  0  0  0
  8  9  1  0  0  0  0
  9 10  2  0  0  0  0
  9 11  1  0  0  0  0
 11 12  1  0  0  0  0
 11 26  1  0  0  0  0
 11 27  1  0  0  0  0
 12 13  1  0  0  0  0
 13 17  2  0  0  0  0
 13 14  1  0  0  0  0
 14 15  1  0  0  0  0
 14 28  1  0  0  0  0
 15 16  2  0  0  0  0
 15 18  1  0  0  0  0
 16 17  1  0  0  0  0
 18 29  1  0  0  0  0
 18 30  1  0  0  0  0
M  END
> <Name>
ZINC15690560

> <reference>
BDB4937

> <quality>
0.737

> <status>
decoy

> <atoms in reference ligand area>
13

> <score>
-35.5022

$$$$
ZINC05114539
      BALL 1.4.0 (Jan  4 2012, 23:22:29)

 40 42  0999  0  0  0  0  0  0999 V2000
    9.2652   12.5861   -4.0822 C   0  0  0  0  0  0  0  0  0  0  0  0
    8.9634   13.7426   -3.1270 C   0  0  0  0  0  0  0  0  0  0  0  0
    8.0512   13.2584   -2.0136 C   0  0  0  0  0  0  0  0  0  0  0  0
    6.8574   13.4756   -2.0351 O   0  0  0  0  0  0  0  0  0  0  0  0
    8.6725   12.5189   -0.9121 C   0  0  0  0  0  0  0  0  0  0  0  0
   10.0606   12.5476   -0.6828 C   0  0  0  0  0  0  0  0  0  0  0  0
   10.3062   11.7501    0.4295 C   0  0  0  0  0  0  0  0  0  0  0  0
    9.1073   11.2532    0.8452 C   0  0  0  0  0  0  0  0  0  0  0  0
    8.1163   11.7223    0.0420 N   0  0  0  0  0  0  0  0  0  0  0  0
    6.8055   11.2087    0.4801 C   0  0  0  0  0  0  0  0  0  0  0  0
    7.1168    9.9940    1.3838 C   0  0  0  0  0  0  0  0  0  0  0  0
    8.5242   10.3483    1.9120 C   0  0  0  0  0  0  0  0  0  0  0  0
    8.4332   11.0401    3.1590 O   0  0  0  0  0  0  0  0  0  0  0  0
   11.6503   11.4800    1.0554 C   0  0  0  0  0  0  0  0  0  0  0  0
   11.6431   11.9376    2.4334 O   0  0  0  0  0  0  0  0  0  0  0  0
   12.3888   13.0209    2.7216 C   0  0  0  0  0  0  0  0  0  0  0  0
   13.1663   13.4601    1.8974 O   0  0  0  0  0  0  0  0  0  0  0  0
   12.2770   13.6149    3.9263 N   0  0  0  0  0  0  0  0  0  0  0  0
   10.9643   13.3295   -1.5575 C   0  0  0  0  0  0  0  0  0  0  0  0
   12.1744   13.2372   -1.5060 O   0  0  0  0  0  0  0  0  0  0  0  0
   10.2565   14.2467   -2.5144 C   0  0  0  0  0  0  0  0  0  0  0  0
   10.7247   15.4036   -2.8007 N   0  0  0  0  0  0  0  0  0  0  0  0
    6.1504    9.9285    2.4943 N   0  3  0  0  0  0  0  0  0  0  0  0
   10.3518   12.5118   -4.2364 H   0  0  0  0  0  0  0  0  0  0  0  0
    8.7706   12.7692   -5.0476 H   0  0  0  0  0  0  0  0  0  0  0  0
    8.8911   11.6456   -3.6515 H   0  0  0  0  0  0  0  0  0  0  0  0
    8.4734   14.5529   -3.6868 H   0  0  0  0  0  0  0  0  0  0  0  0
    6.2160   10.8859   -0.3906 H   0  0  0  0  0  0  0  0  0  0  0  0
    6.2731   11.9785    1.0579 H   0  0  0  0  0  0  0  0  0  0  0  0
    7.0626    9.0217    0.8721 H   0  0  0  0  0  0  0  0  0  0  0  0
    9.1422    9.4565    2.0933 H   0  0  0  0  0  0  0  0  0  0  0  0
    7.4804   11.2137    3.3640 H   0  0  0  0  0  0  0  0  0  0  0  0
   11.8566   10.3998    1.0293 H   0  0  0  0  0  0  0  0  0  0  0  0
   12.4310   12.0162    0.4958 H   0  0  0  0  0  0  0  0  0  0  0  0
   12.0250   13.0566    4.7544 H   0  0  0  0  0  0  0  0  0  0  0  0
   12.4435   14.6271    4.0187 H   0  0  0  0  0  0  0  0  0  0  0  0
   10.2070   15.9996   -3.4621 H   0  0  0  0  0  0  0  0  0  0  0  0
    6.3669    9.1131    3.0852 H   0  0  0  0  0  0  0  0  0  0  0  0
    5.1994    9.8283    2.1115 H   0  0  0  0  0  0  0  0  0  0  0  0
    6.2075   10.7888    3.0577 H   0  0  0  0  0  0  0  0  0  0  0  0
  1  2  1  0  0  0  0
  1 24  1  0  0  0  0
  1 25  1  0  0  0  0
  1 26  1  0  0  0  0
  2 21  1  0  0  0  0
  2  3  1  0  0  0  0
  2 27  1  0  0  0  0
  3  4  2  0  0  0  0
  3  5  1  0  0  0  0
  5  9  1  0  0  0  0
  5  6  2  0  0  0  0
  6  7  1  0  0  0  0
  6 19  1  0  0  0  0
  7  8  2  0  0  0  0
  7 14  1  0  0  0  0
  8 12  1  0  0  0  0
  8  9  1  0  0  0  0
  9 10  1  0  0  0  0
 10 11  1  0  0  0  0
 10 28  1  0  0  0  0
 10 29  1  0  0  0  0
 11 12  1  0  0  0  0
 11 23  1  0  0  0  0
 11 30  1  0  0  0  0
 12 13  1  0  0  0  0
 12 31  1  0  0  0  0
 13 32  1  0  0  0  0
 14 15  1  0  0  0  0
 14 33  1  0  0  0  0
 14 34  1  0  0  0  0
 15 16  1  0  0  0  0
 16 17  2  0  0  0  0
 16 18  1  0  0  0  0
 18 35  1  0  0  0  0
 18 36  1  0  0  0  0
 19 20  2  0  0  0  0
 19 21  1  0  0  0  0
 21 22  2  0  0  0  0
 22 37  1  0  0  0  0
 23 38  1  0  0  0  0
 23 39  1  0  0  0  0
 23 40  1  0  0  0  0
M  END
> <Name>
ZINC05114539

> <reference>
BDB4977

> <quality>
0.711

> <status>
decoy

> <atoms in reference ligand area>
25

> <score>
-35.3562

$$$$
ZINC03365459
      BALL 1.4.0 (Jan  4 2012, 23:22:29)

 45 46  0999  0  0  0  0  0  0999 V2000
   13.4146    7.2720   -3.1907 C   0  0  0  0  0  0  0  0  0  0  0  0
   12.6764    7.0073   -1.9961 O   0  0  0  0  0  0  0  0  0  0  0  0
   13.4006    6.2560   -1.0198 C   0  0  0  0  0  0  0  0  0  0  0  0
   13.3057    6.9457    0.3167 C   0  0  0  0  0  0  0  0  0  0  0  0
   12.3997    6.6746    1.0761 O   0  0  0  0  0  0  0  0  0  0  0  0
   14.2277    7.8637    0.6683 N   0  0  0  0  0  0  0  0  0  0  0  0
   14.4060    8.1964    2.0175 N   0  0  0  0  0  0  0  0  0  0  0  0
   13.3803    8.7076    2.7267 C   0  0  0  0  0  0  0  0  0  0  0  0
   12.7373    7.9907    3.4684 O   0  0  0  0  0  0  0  0  0  0  0  0
   13.0372   10.1402    2.6026 C   0  0  0  0  0  0  0  0  0  0  0  0
   13.8917   11.1135    3.1232 C   0  0  0  0  0  0  0  0  0  0  0  0
   13.5659   12.4484    3.0038 C   0  0  0  0  0  0  0  0  0  0  0  0
   12.3973   12.8240    2.3648 C   0  0  0  0  0  0  0  0  0  0  0  0
   11.5434   11.8644    1.8512 C   0  0  0  0  0  0  0  0  0  0  0  0
   11.8575   10.5256    1.9640 C   0  0  0  0  0  0  0  0  0  0  0  0
   10.0549   12.3532    1.0449 S   0  0  0  0  0  0  0  0  0  0  0  0
    9.2517   12.9922    2.0276 O   0  0  0  0  0  0  0  0  0  0  0  0
    9.6034   11.2256    0.3075 O   0  0  0  0  0  0  0  0  0  0  0  0
   10.4578   13.5142   -0.0651 N   0  5  0  0  0  0  0  0  0  0  0  0
    9.8395   13.5265   -1.3208 C   0  0  0  0  0  0  0  0  0  0  0  0
    8.4797   13.7810   -1.4239 C   0  0  0  0  0  0  0  0  0  0  0  0
    7.8704   13.7874   -2.6647 C   0  0  0  0  0  0  0  0  0  0  0  0
    8.6139   13.5453   -3.8048 C   0  0  0  0  0  0  0  0  0  0  0  0
    9.9708   13.2960   -3.7101 C   0  0  0  0  0  0  0  0  0  0  0  0
   10.5890   13.2884   -2.4707 C   0  0  0  0  0  0  0  0  0  0  0  0
   11.9235   13.0433   -2.3761 O   0  0  0  0  0  0  0  0  0  0  0  0
   12.6609   13.8228   -1.4325 C   0  0  0  0  0  0  0  0  0  0  0  0
   12.9861    6.6493   -3.9899 H   0  0  0  0  0  0  0  0  0  0  0  0
   14.4522    6.9504   -3.0174 H   0  0  0  0  0  0  0  0  0  0  0  0
   13.3758    8.3372   -3.4622 H   0  0  0  0  0  0  0  0  0  0  0  0
   14.4563    6.1838   -1.3201 H   0  0  0  0  0  0  0  0  0  0  0  0
   12.9716    5.2461   -0.9418 H   0  0  0  0  0  0  0  0  0  0  0  0
   14.8013    8.3207   -0.0550 H   0  0  0  0  0  0  0  0  0  0  0  0
   15.3210    8.0504    2.4674 H   0  0  0  0  0  0  0  0  0  0  0  0
   14.8231   10.8165    3.6277 H   0  0  0  0  0  0  0  0  0  0  0  0
   14.2365   13.2161    3.4173 H   0  0  0  0  0  0  0  0  0  0  0  0
   12.1463   13.8904    2.2647 H   0  0  0  0  0  0  0  0  0  0  0  0
   11.1798    9.7637    1.5516 H   0  0  0  0  0  0  0  0  0  0  0  0
    7.8866   13.9777   -0.5188 H   0  0  0  0  0  0  0  0  0  0  0  0
    6.7914   13.9855   -2.7451 H   0  0  0  0  0  0  0  0  0  0  0  0
    8.1248   13.5511   -4.7901 H   0  0  0  0  0  0  0  0  0  0  0  0
   10.5593   13.1037   -4.6193 H   0  0  0  0  0  0  0  0  0  0  0  0
   13.3325   14.4659   -2.0202 H   0  0  0  0  0  0  0  0  0  0  0  0
   13.2829   13.1147   -0.8653 H   0  0  0  0  0  0  0  0  0  0  0  0
   12.0121   14.4137   -0.7692 H   0  0  0  0  0  0  0  0  0  0  0  0
  1  2  1  0  0  0  0
  1 28  1  0  0  0  0
  1 29  1  0  0  0  0
  1 30  1  0  0  0  0
  2  3  1  0  0  0  0
  3  4  1  0  0  0  0
  3 31  1  0  0  0  0
  3 32  1  0  0  0  0
  4  5  2  0  0  0  0
  4  6  1  0  0  0  0
  6  7  1  0  0  0  0
  6 33  1  0  0  0  0
  7  8  1  0  0  0  0
  7 34  1  0  0  0  0
  8  9  2  0  0  0  0
  8 10  1  0  0  0  0
 10 15  2  0  0  0  0
 10 11  1  0  0  0  0
 11 12  2  0  0  0  0
 11 35  1  0  0  0  0
 12 13  1  0  0  0  0
 12 36  1  0  0  0  0
 13 14  2  0  0  0  0
 13 37  1  0  0  0  0
 14 15  1  0  0  0  0
 14 16  1  0  0  0  0
 15 38  1  0  0  0  0
 16 17  2  0  0  0  0
 16 18  2  0  0  0  0
 16 19  1  0  0  0  0
 19 20  1  0  0  0  0
 20 25  2  0  0  0  0
 20 21  1  0  0  0  0
 21 22  2  0  0  0  0
 21 39  1  0  0  0  0
 22 23  1  0  0  0  0
 22 40  1  0  0  0  0
 23 24  2  0  0  0  0
 23 41  1  0  0  0  0
 24 25  1  0  0  0  0
 24 42  1  0  0  0  0
 25 26  1  0  0  0  0
 26 27  1  0  0  0  0
 27 43  1  0  0  0  0
 27 44  1  0  0  0  0
 27 45  1  0  0  0  0
M  END
> <Name>
ZINC03365459

> <reference>
BDB4945

> <quality>
0.723

> <status>
decoy

> <atoms in reference ligand area>
18

> <score>
-35.2626

$$$$
ZINC04748240
      BALL 1.4.0 (Jan  4 2012, 23:22:29)

 32 31  0999  0  0  0  0  0  0999 V2000
    9.4251   13.4489    3.5393 C   0  0  0  0  0  0  0  0  0  0  0  0
   10.7932   13.9243    3.4346 O   0  0  0  0  0  0  0  0  0  0  0  0
   11.7575   12.9937    3.3591 C   0  0  0  0  0  0  0  0  0  0  0  0
   12.9150   13.3289    3.2705 O   0  0  0  0  0  0  0  0  0  0  0  0
   11.3965   11.5308    3.3850 C   0  0  0  0  0  0  0  0  0  0  0  0
   11.4078   10.9775    1.9586 C   0  0  0  0  0  0  0  0  0  0  0  0
   10.0383   11.1323    1.3489 C   0  0  0  0  0  0  0  0  0  0  0  0
    9.0042   10.7313    1.9880 N   0  0  0  0  0  0  0  0  0  0  0  0
    7.7245   10.9691    1.4695 N   0  0  0  0  0  0  0  0  0  0  0  0
    6.6411   10.4609    2.0895 C   0  0  0  0  0  0  0  0  0  0  0  0
    6.7623    9.5239    2.8548 O   0  0  0  0  0  0  0  0  0  0  0  0
    5.4233   10.9914    1.8612 N   0  0  0  0  0  0  0  0  0  0  0  0
    9.8864   11.7590   -0.0131 C   0  0  0  0  0  0  0  0  0  0  0  0
   10.9271   12.8345   -0.1901 C   0  0  0  0  0  0  0  0  0  0  0  0
   10.8995   13.8222    0.5054 O   0  0  0  0  0  0  0  0  0  0  0  0
   11.8847   12.6952   -1.1204 O   0  0  0  0  0  0  0  0  0  0  0  0
   11.9487   13.7095   -2.1575 C   0  0  0  0  0  0  0  0  0  0  0  0
    9.0463   13.8056    4.5085 H   0  0  0  0  0  0  0  0  0  0  0  0
    9.4807   12.3511    3.5811 H   0  0  0  0  0  0  0  0  0  0  0  0
    8.7930   13.7911    2.7067 H   0  0  0  0  0  0  0  0  0  0  0  0
   12.1289   10.9829    3.9960 H   0  0  0  0  0  0  0  0  0  0  0  0
   10.3926   11.4073    3.8175 H   0  0  0  0  0  0  0  0  0  0  0  0
   11.6808    9.9121    1.9794 H   0  0  0  0  0  0  0  0  0  0  0  0
   12.1418   11.5324    1.3557 H   0  0  0  0  0  0  0  0  0  0  0  0
    7.6117   11.5322    0.6145 H   0  0  0  0  0  0  0  0  0  0  0  0
    4.5836   10.3981    1.9215 H   0  0  0  0  0  0  0  0  0  0  0  0
    5.3325   11.9902    1.6265 H   0  0  0  0  0  0  0  0  0  0  0  0
   10.0196   10.9896   -0.7879 H   0  0  0  0  0  0  0  0  0  0  0  0
    8.8836   12.2016   -0.1045 H   0  0  0  0  0  0  0  0  0  0  0  0
   11.3387   13.3369   -2.9935 H   0  0  0  0  0  0  0  0  0  0  0  0
   12.9959   13.7450   -2.4922 H   0  0  0  0  0  0  0  0  0  0  0  0
   11.6012   14.6934   -1.8095 H   0  0  0  0  0  0  0  0  0  0  0  0
  1  2  1  0  0  0  0
  1 18  1  0  0  0  0
  1 19  1  0  0  0  0
  1 20  1  0  0  0  0
  2  3  1  0  0  0  0
  3  4  2  0  0  0  0
  3  5  1  0  0  0  0
  5  6  1  0  0  0  0
  5 21  1  0  0  0  0
  5 22  1  0  0  0  0
  6  7  1  0  0  0  0
  6 23  1  0  0  0  0
  6 24  1  0  0  0  0
  7  8  2  0  0  0  0
  7 13  1  0  0  0  0
  8  9  1  0  0  0  0
  9 10  1  0  0  0  0
  9 25  1  0  0  0  0
 10 11  2  0  0  0  0
 10 12  1  0  0  0  0
 12 26  1  0  0  0  0
 12 27  1  0  0  0  0
 13 14  1  0  0  0  0
 13 28  1  0  0  0  0
 13 29  1  0  0  0  0
 14 15  2  0  0  0  0
 14 16  1  0  0  0  0
 16 17  1  0  0  0  0
 17 30  1  0  0  0  0
 17 31  1  0  0  0  0
 17 32  1  0  0  0  0
M  END
> <Name>
ZINC04748240

> <reference>
BDB4986

> <quality>
0.721

> <status>
decoy

> <atoms in reference ligand area>
27

> <score>
-35.0411

$$$$
ZINC19925920
      BALL 1.4.0 (Jan  4 2012, 23:22:29)

 56 59  0999  0  0  0  0  0  0999 V2000
   16.3188   13.5470    4.2761 C   0  0  0  0  0  0  0  0  0  0  0  0
   15.1324   13.3013    5.0337 O   0  0  0  0  0  0  0  0  0  0  0  0
   14.4454   12.1616    4.7529 C   0  0  0  0  0  0  0  0  0  0  0  0
   14.8725   10.9491    5.2718 C   0  0  0  0  0  0  0  0  0  0  0  0
   14.1786    9.7851    4.9903 C   0  0  0  0  0  0  0  0  0  0  0  0
   13.0556    9.8201    4.1907 C   0  0  0  0  0  0  0  0  0  0  0  0
   12.6135   11.0351    3.6603 C   0  0  0  0  0  0  0  0  0  0  0  0
   13.3193   12.2116    3.9405 C   0  0  0  0  0  0  0  0  0  0  0  0
   12.9014   13.3977    3.4249 O   0  0  0  0  0  0  0  0  0  0  0  0
   12.6353   13.4372    2.0214 C   0  0  0  0  0  0  0  0  0  0  0  0
   11.4139   11.0770    2.8053 C   0  0  0  0  0  0  0  0  0  0  0  0
   11.2973   10.2522    1.8096 N   0  0  0  0  0  0  0  0  0  0  0  0
   10.1543   10.2881    1.0002 N   0  0  0  0  0  0  0  0  0  0  0  0
    9.0917   11.0314    1.3674 C   0  0  0  0  0  0  0  0  0  0  0  0
    9.0940   11.6088    2.4384 O   0  0  0  0  0  0  0  0  0  0  0  0
    7.9292   11.1447    0.4732 C   0  0  0  0  0  0  0  0  0  0  0  0
    7.6234   12.1886   -0.3609 C   0  0  0  0  0  0  0  0  0  0  0  0
    6.4866   11.8586   -0.9748 N   0  0  0  0  0  0  0  0  0  0  0  0
    6.0991   10.7030   -0.5679 N   0  0  0  0  0  0  0  0  0  0  0  0
    6.9256   10.2242    0.2948 N   0  0  0  0  0  0  0  0  0  0  0  0
    6.8190    8.9876    0.9386 C   0  0  0  0  0  0  0  0  0  0  0  0
    7.1032    7.6807    0.3387 C   0  0  0  0  0  0  0  0  0  0  0  0
    6.8934    6.7612    1.2404 N   0  0  0  0  0  0  0  0  0  0  0  0
    6.4764    7.4074    2.4302 O   0  0  0  0  0  0  0  0  0  0  0  0
    6.4555    8.8009    2.1760 N   0  0  0  0  0  0  0  0  0  0  0  0
    7.5239    7.4589   -0.9676 N   0  0  0  0  0  0  0  0  0  0  0  0
    8.4154   13.4570   -0.5477 C   0  0  0  0  0  0  0  0  0  0  0  0
    9.6701   13.1522   -1.2480 N   0  0  0  0  0  0  0  0  0  0  0  0
   10.7563   14.0303   -0.7893 C   0  0  0  0  0  0  0  0  0  0  0  0
   12.0553   13.6398   -1.4993 C   0  0  0  0  0  0  0  0  0  0  0  0
   11.8601   13.7140   -2.9141 O   0  0  0  0  0  0  0  0  0  0  0  0
   10.8101   12.8708   -3.3954 C   0  0  0  0  0  0  0  0  0  0  0  0
    9.4984   13.2535   -2.7046 C   0  0  0  0  0  0  0  0  0  0  0  0
   16.0784   14.3657    3.5819 H   0  0  0  0  0  0  0  0  0  0  0  0
   16.4979   12.6405    3.6793 H   0  0  0  0  0  0  0  0  0  0  0  0
   17.1843   13.7932    4.9087 H   0  0  0  0  0  0  0  0  0  0  0  0
   15.7675   10.9119    5.9103 H   0  0  0  0  0  0  0  0  0  0  0  0
   14.5244    8.8274    5.4065 H   0  0  0  0  0  0  0  0  0  0  0  0
   12.5080    8.8920    3.9704 H   0  0  0  0  0  0  0  0  0  0  0  0
   13.3408   12.7352    1.5530 H   0  0  0  0  0  0  0  0  0  0  0  0
   12.8960   14.4518    1.6857 H   0  0  0  0  0  0  0  0  0  0  0  0
   11.5923   13.1857    1.7789 H   0  0  0  0  0  0  0  0  0  0  0  0
   10.6173   11.8072    3.0109 H   0  0  0  0  0  0  0  0  0  0  0  0
   10.1260    9.7465    0.1246 H   0  0  0  0  0  0  0  0  0  0  0  0
    7.1047    6.6445   -1.4389 H   0  0  0  0  0  0  0  0  0  0  0  0
    8.2089    8.0597   -1.4478 H   0  0  0  0  0  0  0  0  0  0  0  0
    8.6422   13.8970    0.4347 H   0  0  0  0  0  0  0  0  0  0  0  0
    7.8281   14.1718   -1.1429 H   0  0  0  0  0  0  0  0  0  0  0  0
   10.8852   13.9197    0.2975 H   0  0  0  0  0  0  0  0  0  0  0  0
   10.5088   15.0754   -1.0264 H   0  0  0  0  0  0  0  0  0  0  0  0
   12.8579   14.3312   -1.2030 H   0  0  0  0  0  0  0  0  0  0  0  0
   12.3326   12.6125   -1.2209 H   0  0  0  0  0  0  0  0  0  0  0  0
   10.7034   13.0009   -4.4825 H   0  0  0  0  0  0  0  0  0  0  0  0
   11.0491   11.8206   -3.1718 H   0  0  0  0  0  0  0  0  0  0  0  0
    8.7001   12.5697   -3.0289 H   0  0  0  0  0  0  0  0  0  0  0  0
    9.2307   14.2861   -2.9731 H   0  0  0  0  0  0  0  0  0  0  0  0
  1  2  1  0  0  0  0
  1 34  1  0  0  0  0
  1 35  1  0  0  0  0
  1 36  1  0  0  0  0
  2  3  1  0  0  0  0
  3  8  2  0  0  0  0
  3  4  1  0  0  0  0
  4  5  2  0  0  0  0
  4 37  1  0  0  0  0
  5  6  1  0  0  0  0
  5 38  1  0  0  0  0
  6  7  2  0  0  0  0
  6 39  1  0  0  0  0
  7  8  1  0  0  0  0
  7 11  1  0  0  0  0
  8  9  1  0  0  0  0
  9 10  1  0  0  0  0
 10 40  1  0  0  0  0
 10 41  1  0  0  0  0
 10 42  1  0  0  0  0
 11 12  2  0  0  0  0
 11 43  1  0  0  0  0
 12 13  1  0  0  0  0
 13 14  1  0  0  0  0
 13 44  1  0  0  0  0
 14 15  2  0  0  0  0
 14 16  1  0  0  0  0
 16 20  1  0  0  0  0
 16 17  2  0  0  0  0
 17 18  1  0  0  0  0
 17 27  1  0  0  0  0
 18 19  2  0  0  0  0
 19 20  1  0  0  0  0
 20 21  1  0  0  0  0
 21 25  2  0  0  0  0
 21 22  1  0  0  0  0
 22 23  2  0  0  0  0
 22 26  1  0  0  0  0
 23 24  1  0  0  0  0
 24 25  1  0  0  0  0
 26 45  1  0  0  0  0
 26 46  1  0  0  0  0
 27 28  1  0  0  0  0
 27 47  1  0  0  0  0
 27 48  1  0  0  0  0
 28 33  1  0  0  0  0
 28 29  1  0  0  0  0
 29 30  1  0  0  0  0
 29 49  1  0  0  0  0
 29 50  1  0  0  0  0
 30 31  1  0  0  0  0
 30 51  1  0  0  0  0
 30 52  1  0  0  0  0
 31 32  1  0  0  0  0
 32 33  1  0  0  0  0
 32 53  1  0  0  0  0
 32 54  1  0  0  0  0
 33 55  1  0  0  0  0
 33 56  1  0  0  0  0
M  END
> <Name>
ZINC19925920

> <reference>
BDB4968

> <quality>
0.786

> <status>
decoy

> <atoms in reference ligand area>
23

> <score>
-35.0247

$$$$
ZINC20185343
      BALL 1.4.0 (Jan  4 2012, 23:22:29)

 38 39  0999  0  0  0  0  0  0999 V2000
    8.4224   13.5142    3.5470 C   0  0  0  0  0  0  0  0  0  0  0  0
    9.6238   13.5465    2.6001 C   0  0  0  0  0  0  0  0  0  0  0  0
    9.2931   12.8282    1.3668 N   0  0  0  0  0  0  0  0  0  0  0  0
    8.7456   11.5565    1.4311 C   0  0  0  0  0  0  0  0  0  0  0  0
    7.5829   11.1305    0.9755 N   0  0  0  0  0  0  0  0  0  0  0  0
    7.2133    9.8715    1.1185 C   0  0  0  0  0  0  0  0  0  0  0  0
    8.0519    9.0207    1.7566 C   0  0  0  0  0  0  0  0  0  0  0  0
    9.4104   10.1168    2.1386 S   0  0  0  0  0  0  0  0  0  0  0  0
    5.8857    9.3930    0.5898 C   0  0  0  0  0  0  0  0  0  0  0  0
    5.6751    9.9351   -0.8254 C   0  0  0  0  0  0  0  0  0  0  0  0
    4.4625   10.7638   -0.8569 N   0  3  0  0  0  0  0  0  0  0  0  0
    9.5410   13.4541    0.0657 C   0  0  0  0  0  0  0  0  0  0  0  0
   10.3707   14.7335    0.2645 C   0  0  0  0  0  0  0  0  0  0  0  0
   10.8818   15.2001   -1.1285 C   0  0  0  0  0  0  0  0  0  0  0  0
   11.3366   13.5809   -1.8806 S   0  0  0  0  0  0  0  0  0  0  0  0
   12.7090   13.3195   -1.6214 O   0  0  0  0  0  0  0  0  0  0  0  0
   10.8577   13.5408   -3.2179 O   0  0  0  0  0  0  0  0  0  0  0  0
   10.3082   12.4636   -0.8431 C   0  0  0  0  0  0  0  0  0  0  0  0
    7.9850   14.5209    3.6204 H   0  0  0  0  0  0  0  0  0  0  0  0
    8.7487   13.1833    4.5440 H   0  0  0  0  0  0  0  0  0  0  0  0
    7.6673   12.8149    3.1586 H   0  0  0  0  0  0  0  0  0  0  0  0
    9.8736   14.5905    2.3599 H   0  0  0  0  0  0  0  0  0  0  0  0
   10.4864   13.0650    3.0839 H   0  0  0  0  0  0  0  0  0  0  0  0
    7.9303    7.9502    1.9786 H   0  0  0  0  0  0  0  0  0  0  0  0
    5.8752    8.2934    0.5660 H   0  0  0  0  0  0  0  0  0  0  0  0
    5.0779    9.7534    1.2436 H   0  0  0  0  0  0  0  0  0  0  0  0
    6.5428   10.5446   -1.1177 H   0  0  0  0  0  0  0  0  0  0  0  0
    5.5632    9.0960   -1.5278 H   0  0  0  0  0  0  0  0  0  0  0  0
    4.1301   10.8508   -1.8279 H   0  0  0  0  0  0  0  0  0  0  0  0
    4.6751   11.6994   -0.4822 H   0  0  0  0  0  0  0  0  0  0  0  0
    3.7298   10.3233   -0.2825 H   0  0  0  0  0  0  0  0  0  0  0  0
    8.5838   13.7142   -0.4099 H   0  0  0  0  0  0  0  0  0  0  0  0
    9.7403   15.5180    0.7084 H   0  0  0  0  0  0  0  0  0  0  0  0
   11.2281   14.5216    0.9203 H   0  0  0  0  0  0  0  0  0  0  0  0
   10.0708   15.6676   -1.7062 H   0  0  0  0  0  0  0  0  0  0  0  0
   11.7772   15.8309   -1.0265 H   0  0  0  0  0  0  0  0  0  0  0  0
    9.6091   11.9013   -1.4796 H   0  0  0  0  0  0  0  0  0  0  0  0
   10.9570   11.8104   -0.2411 H   0  0  0  0  0  0  0  0  0  0  0  0
  1  2  1  0  0  0  0
  1 19  1  0  0  0  0
  1 20  1  0  0  0  0
  1 21  1  0  0  0  0
  2  3  1  0  0  0  0
  2 22  1  0  0  0  0
  2 23  1  0  0  0  0
  3  4  1  0  0  0  0
  3 12  1  0  0  0  0
  4  8  1  0  0  0  0
  4  5  2  0  0  0  0
  5  6  1  0  0  0  0
  6  7  2  0  0  0  0
  6  9  1  0  0  0  0
  7  8  1  0  0  0  0
  7 24  1  0  0  0  0
  9 10  1  0  0  0  0
  9 25  1  0  0  0  0
  9 26  1  0  0  0  0
 10 11  1  0  0  0  0
 10 27  1  0  0  0  0
 10 28  1  0  0  0  0
 11 29  1  0  0  0  0
 11 30  1  0  0  0  0
 11 31  1  0  0  0  0
 12 18  1  0  0  0  0
 12 13  1  0  0  0  0
 12 32  1  0  0  0  0
 13 14  1  0  0  0  0
 13 33  1  0  0  0  0
 13 34  1  0  0  0  0
 14 15  1  0  0  0  0
 14 35  1  0  0  0  0
 14 36  1  0  0  0  0
 15 16  2  0  0  0  0
 15 17  2  0  0  0  0
 15 18  1  0  0  0  0
 18 37  1  0  0  0  0
 18 38  1  0  0  0  0
M  END
> <Name>
ZINC20185343

> <reference>
BDB5233

> <quality>
0.724

> <status>
decoy

> <atoms in reference ligand area>
20

> <score>
-34.3116

$$$$
ZINC19328598
      BALL 1.4.0 (Jan  4 2012, 23:22:29)

 39 39  0999  0  0  0  0  0  0999 V2000
    5.0647    8.2876    0.7909 C   0  0  0  0  0  0  0  0  0  0  0  0
    5.6630    9.5671    0.2030 C   0  0  0  0  0  0  0  0  0  0  0  0
    4.5800   10.4760   -0.1955 N   0  3  0  0  0  0  0  0  0  0  0  0
    6.5056   10.2222    1.2123 N   0  0  0  0  0  0  0  0  0  0  0  0
    7.6682   10.8683    0.5886 C   0  0  0  0  0  0  0  0  0  0  0  0
    8.2331   11.9274    1.5372 C   0  0  0  0  0  0  0  0  0  0  0  0
    8.4283   11.3160    2.9261 C   0  0  0  0  0  0  0  0  0  0  0  0
    9.8340   10.7205    3.0283 C   0  0  0  0  0  0  0  0  0  0  0  0
   10.0291   10.1092    4.4172 C   0  0  0  0  0  0  0  0  0  0  0  0
    8.8114    9.3017    4.7862 C   0  0  0  0  0  0  0  0  0  0  0  0
    8.7635    8.7305    5.8551 O   0  0  0  0  0  0  0  0  0  0  0  0
    7.7755    9.2141    3.9284 N   0  0  0  0  0  0  0  0  0  0  0  0
    6.6450    8.4646    4.2710 C   0  0  0  0  0  0  0  0  0  0  0  0
    5.4102    8.6934    3.8759 N   0  5  0  0  0  0  0  0  0  0  0  0
    4.6251    7.6861    4.4611 N   0  0  0  0  0  0  0  0  0  0  0  0
    5.4178    6.9475    5.1602 N   0  0  0  0  0  0  0  0  0  0  0  0
    6.6213    7.3877    5.0575 N   0  0  0  0  0  0  0  0  0  0  0  0
   10.2219   11.1821    5.4018 N   0  3  0  0  0  0  0  0  0  0  0  0
    4.3165    8.5484    1.5540 H   0  0  0  0  0  0  0  0  0  0  0  0
    5.8626    7.6862    1.2510 H   0  0  0  0  0  0  0  0  0  0  0  0
    4.5835    7.7058   -0.0091 H   0  0  0  0  0  0  0  0  0  0  0  0
    6.2732    9.3158   -0.6771 H   0  0  0  0  0  0  0  0  0  0  0  0
    4.4288   10.4067   -1.2120 H   0  0  0  0  0  0  0  0  0  0  0  0
    4.8355   11.4437    0.0477 H   0  0  0  0  0  0  0  0  0  0  0  0
    3.7140   10.2164    0.2979 H   0  0  0  0  0  0  0  0  0  0  0  0
    5.9497   10.9322    1.7101 H   0  0  0  0  0  0  0  0  0  0  0  0
    8.4405   10.1128    0.3816 H   0  0  0  0  0  0  0  0  0  0  0  0
    7.3618   11.3468   -0.3533 H   0  0  0  0  0  0  0  0  0  0  0  0
    9.2010   12.2837    1.1547 H   0  0  0  0  0  0  0  0  0  0  0  0
    7.5320   12.7723    1.6047 H   0  0  0  0  0  0  0  0  0  0  0  0
    8.3050   12.0967    3.6912 H   0  0  0  0  0  0  0  0  0  0  0  0
    7.6826   10.5236    3.0873 H   0  0  0  0  0  0  0  0  0  0  0  0
    9.9579    9.9395    2.2637 H   0  0  0  0  0  0  0  0  0  0  0  0
   10.5811   11.5119    2.8686 H   0  0  0  0  0  0  0  0  0  0  0  0
   10.9138    9.4556    4.4091 H   0  0  0  0  0  0  0  0  0  0  0  0
    7.8161    9.6991    3.0206 H   0  0  0  0  0  0  0  0  0  0  0  0
    9.3960   11.2395    6.0146 H   0  0  0  0  0  0  0  0  0  0  0  0
   10.3489   12.0796    4.9126 H   0  0  0  0  0  0  0  0  0  0  0  0
   11.0568   10.9811    5.9706 H   0  0  0  0  0  0  0  0  0  0  0  0
  1  2  1  0  0  0  0
  1 19  1  0  0  0  0
  1 20  1  0  0  0  0
  1 21  1  0  0  0  0
  2  3  1  0  0  0  0
  2  4  1  0  0  0  0
  2 22  1  0  0  0  0
  3 23  1  0  0  0  0
  3 24  1  0  0  0  0
  3 25  1  0  0  0  0
  4  5  1  0  0  0  0
  4 26  1  0  0  0  0
  5  6  1  0  0  0  0
  5 27  1  0  0  0  0
  5 28  1  0  0  0  0
  6  7  1  0  0  0  0
  6 29  1  0  0  0  0
  6 30  1  0  0  0  0
  7  8  1  0  0  0  0
  7 31  1  0  0  0  0
  7 32  1  0  0  0  0
  8  9  1  0  0  0  0
  8 33  1  0  0  0  0
  8 34  1  0  0  0  0
  9 10  1  0  0  0  0
  9 18  1  0  0  0  0
  9 35  1  0  0  0  0
 10 11  2  0  0  0  0
 10 12  1  0  0  0  0
 12 13  1  0  0  0  0
 12 36  1  0  0  0  0
 13 14  1  0  0  0  0
 13 17  2  0  0  0  0
 14 15  1  0  0  0  0
 15 16  2  0  0  0  0
 16 17  1  0  0  0  0
 18 37  1  0  0  0  0
 18 38  1  0  0  0  0
 18 39  1  0  0  0  0
M  END
> <Name>
ZINC19328598

> <reference>
BDB4986

> <quality>
0.714

> <status>
decoy

> <atoms in reference ligand area>
12

> <score>
-34.2928

$$$$
ZINC24983764
      BALL 1.4.0 (Jan  4 2012, 23:22:29)

 42 43  0999  0  0  0  0  0  0999 V2000
    6.7769   10.3906   -0.4713 C   0  0  0  0  0  0  0  0  0  0  0  0
    5.6756    9.9694    0.9072 S   0  0  0  0  0  0  0  0  0  0  0  0
    5.1287    8.6716    0.7177 O   0  0  0  0  0  0  0  0  0  0  0  0
    4.8342   11.0720    1.2162 O   0  0  0  0  0  0  0  0  0  0  0  0
    6.6745    9.8194    2.2195 N   0  0  0  0  0  0  0  0  0  0  0  0
    7.5999   10.8162    2.5061 C   0  0  0  0  0  0  0  0  0  0  0  0
    7.4832   12.0677    1.9142 C   0  0  0  0  0  0  0  0  0  0  0  0
    8.4024   13.0562    2.1995 C   0  0  0  0  0  0  0  0  0  0  0  0
    9.4489   12.8100    3.0771 C   0  0  0  0  0  0  0  0  0  0  0  0
    9.5775   11.5749    3.6777 C   0  0  0  0  0  0  0  0  0  0  0  0
    8.6563   10.5629    3.3939 C   0  0  0  0  0  0  0  0  0  0  0  0
    8.7904    9.2389    4.0285 C   0  0  0  0  0  0  0  0  0  0  0  0
    7.9838    8.3625    3.7829 O   0  0  0  0  0  0  0  0  0  0  0  0
    9.8066    8.9999    4.8809 N   0  0  0  0  0  0  0  0  0  0  0  0
    9.9398    7.6843    5.5114 C   0  0  0  0  0  0  0  0  0  0  0  0
    9.3848    7.7429    6.9360 C   0  0  0  0  0  0  0  0  0  0  0  0
   10.4877    7.6367    7.8945 N   0  0  0  0  0  0  0  0  0  0  0  0
   10.2604    7.8722    9.2412 C   0  0  0  0  0  0  0  0  0  0  0  0
   10.3085    6.8101   10.1420 C   0  0  0  0  0  0  0  0  0  0  0  0
   10.0831    7.0461   11.4714 C   0  0  0  0  0  0  0  0  0  0  0  0
    9.8096    8.3604   11.8810 C   0  0  0  0  0  0  0  0  0  0  0  0
    9.7720    9.3747   10.9229 C   0  0  0  0  0  0  0  0  0  0  0  0
   10.0000    9.1047    9.6540 N   0  0  0  0  0  0  0  0  0  0  0  0
    9.5669    8.6555   13.2611 C   0  0  0  0  0  0  0  0  0  0  0  0
    9.3744    8.8897   14.3559 N   0  0  0  0  0  0  0  0  0  0  0  0
   10.3428   13.7859    3.3482 F   0  0  0  0  0  0  0  0  0  0  0  0
    6.3081   11.1755   -1.0832 H   0  0  0  0  0  0  0  0  0  0  0  0
    6.9415    9.4963   -1.0903 H   0  0  0  0  0  0  0  0  0  0  0  0
    7.7394   10.7521   -0.0803 H   0  0  0  0  0  0  0  0  0  0  0  0
    6.6102    8.9874    2.8233 H   0  0  0  0  0  0  0  0  0  0  0  0
    6.6568   12.2707    1.2172 H   0  0  0  0  0  0  0  0  0  0  0  0
    8.3052   14.0455    1.7284 H   0  0  0  0  0  0  0  0  0  0  0  0
   10.4039   11.3868    4.3789 H   0  0  0  0  0  0  0  0  0  0  0  0
   10.4897    9.7422    5.0890 H   0  0  0  0  0  0  0  0  0  0  0  0
    9.3766    6.9399    4.9294 H   0  0  0  0  0  0  0  0  0  0  0  0
   11.0013    7.3977    5.5438 H   0  0  0  0  0  0  0  0  0  0  0  0
    8.8599    8.6979    7.0861 H   0  0  0  0  0  0  0  0  0  0  0  0
    8.6830    6.9103    7.0919 H   0  0  0  0  0  0  0  0  0  0  0  0
   11.4319    7.3869    7.5676 H   0  0  0  0  0  0  0  0  0  0  0  0
   10.5257    5.7915    9.7881 H   0  0  0  0  0  0  0  0  0  0  0  0
   10.1155    6.2245   12.2021 H   0  0  0  0  0  0  0  0  0  0  0  0
    9.5503   10.4074   11.2299 H   0  0  0  0  0  0  0  0  0  0  0  0
  1  2  1  0  0  0  0
  1 27  1  0  0  0  0
  1 28  1  0  0  0  0
  1 29  1  0  0  0  0
  2  3  2  0  0  0  0
  2  4  2  0  0  0  0
  2  5  1  0  0  0  0
  5  6  1  0  0  0  0
  5 30  1  0  0  0  0
  6 11  2  0  0  0  0
  6  7  1  0  0  0  0
  7  8  2  0  0  0  0
  7 31  1  0  0  0  0
  8  9  1  0  0  0  0
  8 32  1  0  0  0  0
  9 10  2  0  0  0  0
  9 26  1  0  0  0  0
 10 11  1  0  0  0  0
 10 33  1  0  0  0  0
 11 12  1  0  0  0  0
 12 13  2  0  0  0  0
 12 14  1  0  0  0  0
 14 15  1  0  0  0  0
 14 34  1  0  0  0  0
 15 16  1  0  0  0  0
 15 35  1  0  0  0  0
 15 36  1  0  0  0  0
 16 17  1  0  0  0  0
 16 37  1  0  0  0  0
 16 38  1  0  0  0  0
 17 18  1  0  0  0  0
 17 39  1  0  0  0  0
 18 23  2  0  0  0  0
 18 19  1  0  0  0  0
 19 20  2  0  0  0  0
 19 40  1  0  0  0  0
 20 21  1  0  0  0  0
 20 41  1  0  0  0  0
 21 22  2  0  0  0  0
 21 24  1  0  0  0  0
 22 23  1  0  0  0  0
 22 42  1  0  0  0  0
 24 25  3  0  0  0  0
M  END
> <Name>
ZINC24983764

> <reference>
BDB4952

> <quality>
0.720

> <status>
decoy

> <atoms in reference ligand area>
14

> <score>
-34.1211

$$$$
ZINC05521415
      BALL 1.4.0 (Jan  4 2012, 23:22:29)

 30 31  0999  0  0  0  0  0  0999 V2000
   12.4054   11.1647    1.8016 C   0  0  0  0  0  0  0  0  0  0  0  0
   11.4132   11.9903    1.3943 C   0  0  0  0  0  0  0  0  0  0  0  0
   10.2824   11.2471    1.3900 N   0  0  0  0  0  0  0  0  0  0  0  0
   10.5833   10.0526    1.7633 N   0  0  0  0  0  0  0  0  0  0  0  0
   11.8419    9.9705    2.0162 N   0  0  0  0  0  0  0  0  0  0  0  0
    8.9464   11.7193    1.0183 C   0  0  0  0  0  0  0  0  0  0  0  0
    8.0460   11.8319    2.2685 C   0  0  0  0  0  0  0  0  0  0  0  0
    6.6543   11.3820    1.7707 C   0  0  0  0  0  0  0  0  0  0  0  0
    6.8784   11.0508    0.2785 C   0  0  0  0  0  0  0  0  0  0  0  0
    8.2871   10.7498    0.1749 O   0  0  0  0  0  0  0  0  0  0  0  0
    6.0427    9.8365   -0.1314 C   0  0  0  0  0  0  0  0  0  0  0  0
    4.6785   10.2298   -0.2935 O   0  0  0  0  0  0  0  0  0  0  0  0
    6.2194   10.2210    2.4813 O   0  0  0  0  0  0  0  0  0  0  0  0
    8.5132   10.9625    3.3020 O   0  0  0  0  0  0  0  0  0  0  0  0
   11.5415   13.4451    1.0230 C   0  0  0  0  0  0  0  0  0  0  0  0
   12.5564   13.5945   -0.0230 N   0  0  0  0  0  0  0  0  0  0  0  0
   12.3527   13.2162   -1.0616 N   0  3  0  0  0  0  0  0  0  0  0  0
   12.1491   12.8380   -2.1003 N   0  5  0  0  0  0  0  0  0  0  0  0
   13.4664   11.4245    1.9309 H   0  0  0  0  0  0  0  0  0  0  0  0
    9.0803   12.6879    0.5143 H   0  0  0  0  0  0  0  0  0  0  0  0
    8.0366   12.8461    2.6944 H   0  0  0  0  0  0  0  0  0  0  0  0
    5.8810   12.1493    1.9233 H   0  0  0  0  0  0  0  0  0  0  0  0
    6.5794   11.8794   -0.3803 H   0  0  0  0  0  0  0  0  0  0  0  0
    6.4229    9.4334   -1.0817 H   0  0  0  0  0  0  0  0  0  0  0  0
    6.1105    9.0633    0.6482 H   0  0  0  0  0  0  0  0  0  0  0  0
    4.4377   10.2012   -1.2533 H   0  0  0  0  0  0  0  0  0  0  0  0
    5.8650   10.4962    3.3639 H   0  0  0  0  0  0  0  0  0  0  0  0
    7.7799   10.8055    3.9482 H   0  0  0  0  0  0  0  0  0  0  0  0
   11.8403   14.0257    1.9083 H   0  0  0  0  0  0  0  0  0  0  0  0
   10.5748   13.8153    0.6508 H   0  0  0  0  0  0  0  0  0  0  0  0
  1  5  1  0  0  0  0
  1  2  2  0  0  0  0
  1 19  1  0  0  0  0
  2  3  1  0  0  0  0
  2 15  1  0  0  0  0
  3  4  1  0  0  0  0
  3  6  1  0  0  0  0
  4  5  2  0  0  0  0
  6 10  1  0  0  0  0
  6  7  1  0  0  0  0
  6 20  1  0  0  0  0
  7  8  1  0  0  0  0
  7 14  1  0  0  0  0
  7 21  1  0  0  0  0
  8  9  1  0  0  0  0
  8 13  1  0  0  0  0
  8 22  1  0  0  0  0
  9 10  1  0  0  0  0
  9 11  1  0  0  0  0
  9 23  1  0  0  0  0
 11 12  1  0  0  0  0
 11 24  1  0  0  0  0
 11 25  1  0  0  0  0
 12 26  1  0  0  0  0
 13 27  1  0  0  0  0
 14 28  1  0  0  0  0
 15 16  1  0  0  0  0
 15 29  1  0  0  0  0
 15 30  1  0  0  0  0
 16 17  2  0  0  0  0
 17 18  2  0  0  0  0
M  END
> <Name>
ZINC05521415

> <reference>
BDB5233

> <quality>
0.733

> <status>
decoy

> <atoms in reference ligand area>
18

> <score>
-34.0213

$$$$
ZINC10186482
      BALL 1.4.0 (Jan  4 2012, 23:22:29)

 43 43  0999  0  0  0  0  0  0999 V2000
    7.8789   15.1136   -2.0599 C   0  0  0  0  0  0  0  0  0  0  0  0
    9.3178   14.6860   -1.9264 C   0  0  0  0  0  0  0  0  0  0  0  0
   10.3327   15.5841   -2.1922 C   0  0  0  0  0  0  0  0  0  0  0  0
   11.6571   15.1891   -2.0750 C   0  0  0  0  0  0  0  0  0  0  0  0
   11.9632   13.8933   -1.6850 C   0  0  0  0  0  0  0  0  0  0  0  0
   10.9496   12.9959   -1.4140 C   0  0  0  0  0  0  0  0  0  0  0  0
    9.6234   13.3908   -1.5311 C   0  0  0  0  0  0  0  0  0  0  0  0
    8.5943   12.4806   -1.2561 N   0  0  0  0  0  0  0  0  0  0  0  0
    8.7475   11.5650   -0.2790 C   0  0  0  0  0  0  0  0  0  0  0  0
    9.8114   11.4624    0.2944 O   0  0  0  0  0  0  0  0  0  0  0  0
    7.5972   10.6687    0.1009 C   0  0  0  0  0  0  0  0  0  0  0  0
    7.4068   10.6991    1.6187 C   0  0  0  0  0  0  0  0  0  0  0  0
    5.9793   10.3500    1.9530 C   0  0  0  0  0  0  0  0  0  0  0  0
    5.7384    9.3874    2.6422 O   0  0  0  0  0  0  0  0  0  0  0  0
    8.7983   10.2153    3.5402 C   0  0  0  0  0  0  0  0  0  0  0  0
    9.5536   11.5279    3.3220 C   0  0  0  0  0  0  0  0  0  0  0  0
    8.5596   12.6907    3.3004 C   0  0  0  0  0  0  0  0  0  0  0  0
   10.5559   11.7347    4.4593 C   0  0  0  0  0  0  0  0  0  0  0  0
   12.6560   16.0720   -2.3427 O   0  0  0  0  0  0  0  0  0  0  0  0
    4.9757   11.1085    1.4849 O   0  5  0  0  0  0  0  0  0  0  0  0
    8.3128    9.7150    2.2402 N   0  3  0  0  0  0  0  0  0  0  0  0
    7.8336   16.1112   -1.5987 H   0  0  0  0  0  0  0  0  0  0  0  0
    7.3160   14.4287   -1.4086 H   0  0  0  0  0  0  0  0  0  0  0  0
    7.5075   15.1108   -3.0953 H   0  0  0  0  0  0  0  0  0  0  0  0
   10.0908   16.6130   -2.4969 H   0  0  0  0  0  0  0  0  0  0  0  0
   13.0138   13.5808   -1.5919 H   0  0  0  0  0  0  0  0  0  0  0  0
   11.1925   11.9684   -1.1052 H   0  0  0  0  0  0  0  0  0  0  0  0
    7.7205   12.5113   -1.8006 H   0  0  0  0  0  0  0  0  0  0  0  0
    7.8117    9.6388   -0.2205 H   0  0  0  0  0  0  0  0  0  0  0  0
    6.6788   11.0224   -0.3905 H   0  0  0  0  0  0  0  0  0  0  0  0
    7.6350   11.7051    2.0008 H   0  0  0  0  0  0  0  0  0  0  0  0
    9.4738    9.4728    3.9902 H   0  0  0  0  0  0  0  0  0  0  0  0
    7.9424   10.3893    4.2091 H   0  0  0  0  0  0  0  0  0  0  0  0
   10.0907   11.4868    2.3630 H   0  0  0  0  0  0  0  0  0  0  0  0
    7.5397   12.3054    3.4472 H   0  0  0  0  0  0  0  0  0  0  0  0
    8.6196   13.2078    2.3315 H   0  0  0  0  0  0  0  0  0  0  0  0
    8.8031   13.3972    4.1076 H   0  0  0  0  0  0  0  0  0  0  0  0
   10.3734   10.9919    5.2499 H   0  0  0  0  0  0  0  0  0  0  0  0
   10.4381   12.7468    4.8736 H   0  0  0  0  0  0  0  0  0  0  0  0
   11.5790   11.6143    4.0737 H   0  0  0  0  0  0  0  0  0  0  0  0
   12.2208   16.9612   -2.3292 H   0  0  0  0  0  0  0  0  0  0  0  0
    7.8080    8.8287    2.3830 H   0  0  0  0  0  0  0  0  0  0  0  0
    9.1164    9.5487    1.6177 H   0  0  0  0  0  0  0  0  0  0  0  0
  1  2  1  0  0  0  0
  1 22  1  0  0  0  0
  1 23  1  0  0  0  0
  1 24  1  0  0  0  0
  2  7  2  0  0  0  0
  2  3  1  0  0  0  0
  3  4  2  0  0  0  0
  3 25  1  0  0  0  0
  4  5  1  0  0  0  0
  4 19  1  0  0  0  0
  5  6  2  0  0  0  0
  5 26  1  0  0  0  0
  6  7  1  0  0  0  0
  6 27  1  0  0  0  0
  7  8  1  0  0  0  0
  8  9  1  0  0  0  0
  8 28  1  0  0  0  0
  9 10  2  0  0  0  0
  9 11  1  0  0  0  0
 11 12  1  0  0  0  0
 11 29  1  0  0  0  0
 11 30  1  0  0  0  0
 12 13  1  0  0  0  0
 12 21  1  0  0  0  0
 12 31  1  0  0  0  0
 13 14  2  0  0  0  0
 13 20  1  0  0  0  0
 15 16  1  0  0  0  0
 15 21  1  0  0  0  0
 15 32  1  0  0  0  0
 15 33  1  0  0  0  0
 16 17  1  0  0  0  0
 16 18  1  0  0  0  0
 16 34  1  0  0  0  0
 17 35  1  0  0  0  0
 17 36  1  0  0  0  0
 17 37  1  0  0  0  0
 18 38  1  0  0  0  0
 18 39  1  0  0  0  0
 18 40  1  0  0  0  0
 19 41  1  0  0  0  0
 21 42  1  0  0  0  0
 21 43  1  0  0  0  0
M  END
> <Name>
ZINC10186482

> <reference>
BDB4986

> <quality>
0.724

> <status>
decoy

> <atoms in reference ligand area>
25

> <score>
-34.0129

$$$$
ZINC26764321
      BALL 1.4.0 (Jan  4 2012, 23:22:29)

 41 41  0999  0  0  0  0  0  0999 V2000
    5.1345    7.7730   -0.2676 C   0  0  0  0  0  0  0  0  0  0  0  0
    6.4637    7.9523    0.4197 C   0  0  0  0  0  0  0  0  0  0  0  0
    7.3754    6.9169    0.4427 C   0  0  0  0  0  0  0  0  0  0  0  0
    8.5980    7.0816    1.0686 C   0  0  0  0  0  0  0  0  0  0  0  0
    8.9106    8.2803    1.6852 C   0  0  0  0  0  0  0  0  0  0  0  0
    8.0081    9.3233    1.6695 C   0  0  0  0  0  0  0  0  0  0  0  0
    6.7749    9.1657    1.0347 C   0  0  0  0  0  0  0  0  0  0  0  0
    5.8026   10.2793    1.0143 C   0  0  0  0  0  0  0  0  0  0  0  0
    5.5660   10.8982    2.0333 O   0  0  0  0  0  0  0  0  0  0  0  0
    5.1787   10.6082   -0.1342 N   0  0  0  0  0  0  0  0  0  0  0  0
   10.4678    8.4772    2.4859 S   0  0  0  0  0  0  0  0  0  0  0  0
   11.3664    7.5762    1.8536 O   0  0  0  0  0  0  0  0  0  0  0  0
   10.2130    8.4437    3.8835 O   0  0  0  0  0  0  0  0  0  0  0  0
   11.0068   10.0043    2.1396 N   0  0  0  0  0  0  0  0  0  0  0  0
   10.3909   10.7694    1.0525 C   0  0  0  0  0  0  0  0  0  0  0  0
   11.2761   11.9355    0.6949 C   0  0  0  0  0  0  0  0  0  0  0  0
   12.2210   12.2183    1.4006 O   0  0  0  0  0  0  0  0  0  0  0  0
   11.0175   12.6642   -0.4091 N   0  0  0  0  0  0  0  0  0  0  0  0
   11.8779   13.7977   -0.7567 C   0  0  0  0  0  0  0  0  0  0  0  0
   11.5273   14.2922   -2.1615 C   0  0  0  0  0  0  0  0  0  0  0  0
   10.3943   13.5718   -2.6510 O   0  0  0  0  0  0  0  0  0  0  0  0
   10.6456   12.8400   -3.8524 C   0  0  0  0  0  0  0  0  0  0  0  0
    5.1034    6.7116   -0.5548 H   0  0  0  0  0  0  0  0  0  0  0  0
    5.2129    8.3579   -1.1960 H   0  0  0  0  0  0  0  0  0  0  0  0
    4.2709    8.0693    0.3460 H   0  0  0  0  0  0  0  0  0  0  0  0
    7.1296    5.9583   -0.0377 H   0  0  0  0  0  0  0  0  0  0  0  0
    9.3248    6.2560    1.0762 H   0  0  0  0  0  0  0  0  0  0  0  0
    8.2597   10.2773    2.1560 H   0  0  0  0  0  0  0  0  0  0  0  0
    5.1278    9.9278   -0.9058 H   0  0  0  0  0  0  0  0  0  0  0  0
    4.7527   11.5400   -0.2404 H   0  0  0  0  0  0  0  0  0  0  0  0
   11.7749   10.4162    2.6883 H   0  0  0  0  0  0  0  0  0  0  0  0
    9.4078   11.1420    1.3761 H   0  0  0  0  0  0  0  0  0  0  0  0
   10.2661   10.1212    0.1726 H   0  0  0  0  0  0  0  0  0  0  0  0
   10.2149   12.4240   -1.0083 H   0  0  0  0  0  0  0  0  0  0  0  0
   12.9311   13.4810   -0.7325 H   0  0  0  0  0  0  0  0  0  0  0  0
   11.7229   14.6114   -0.0328 H   0  0  0  0  0  0  0  0  0  0  0  0
   11.2904   15.3657   -2.1241 H   0  0  0  0  0  0  0  0  0  0  0  0
   12.3829   14.1286   -2.8332 H   0  0  0  0  0  0  0  0  0  0  0  0
   10.5650   13.5449   -4.6931 H   0  0  0  0  0  0  0  0  0  0  0  0
    9.8513   12.0857   -3.9535 H   0  0  0  0  0  0  0  0  0  0  0  0
   11.6369   12.3636   -3.8356 H   0  0  0  0  0  0  0  0  0  0  0  0
  1  2  1  0  0  0  0
  1 23  1  0  0  0  0
  1 24  1  0  0  0  0
  1 25  1  0  0  0  0
  2  7  2  0  0  0  0
  2  3  1  0  0  0  0
  3  4  2  0  0  0  0
  3 26  1  0  0  0  0
  4  5  1  0  0  0  0
  4 27  1  0  0  0  0
  5  6  2  0  0  0  0
  5 11  1  0  0  0  0
  6  7  1  0  0  0  0
  6 28  1  0  0  0  0
  7  8  1  0  0  0  0
  8  9  2  0  0  0  0
  8 10  1  0  0  0  0
 10 29  1  0  0  0  0
 10 30  1  0  0  0  0
 11 12  2  0  0  0  0
 11 13  2  0  0  0  0
 11 14  1  0  0  0  0
 14 15  1  0  0  0  0
 14 31  1  0  0  0  0
 15 16  1  0  0  0  0
 15 32  1  0  0  0  0
 15 33  1  0  0  0  0
 16 17  2  0  0  0  0
 16 18  1  0  0  0  0
 18 19  1  0  0  0  0
 18 34  1  0  0  0  0
 19 20  1  0  0  0  0
 19 35  1  0  0  0  0
 19 36  1  0  0  0  0
 20 21  1  0  0  0  0
 20 37  1  0  0  0  0
 20 38  1  0  0  0  0
 21 22  1  0  0  0  0
 22 39  1  0  0  0  0
 22 40  1  0  0  0  0
 22 41  1  0  0  0  0
M  END
> <Name>
ZINC26764321

> <reference>
BDB5024

> <quality>
0.665

> <status>
decoy

> <atoms in reference ligand area>
16

> <score>
-33.8566

$$$$
ZINC06380326
      BALL 1.4.0 (Jan  4 2012, 23:22:29)

 44 45  0999  0  0  0  0  0  0999 V2000
   11.8991   11.7043    3.8509 C   0  0  0  0  0  0  0  0  0  0  0  0
   10.9335   10.6912    3.5627 O   0  0  0  0  0  0  0  0  0  0  0  0
   10.9453   10.2463    2.2048 C   0  0  0  0  0  0  0  0  0  0  0  0
   10.8982   11.4580    1.2702 C   0  0  0  0  0  0  0  0  0  0  0  0
    9.5886   12.2187    1.4987 C   0  0  0  0  0  0  0  0  0  0  0  0
    8.4111   11.2651    1.2739 C   0  0  0  0  0  0  0  0  0  0  0  0
    8.5541   10.0609    2.2083 C   0  0  0  0  0  0  0  0  0  0  0  0
    9.8065    9.4170    1.9650 O   0  0  0  0  0  0  0  0  0  0  0  0
    7.4141    9.0743    1.9478 C   0  0  0  0  0  0  0  0  0  0  0  0
    6.1695    9.6805    2.3020 O   0  0  0  0  0  0  0  0  0  0  0  0
    7.1858   11.9446    1.5548 O   0  0  0  0  0  0  0  0  0  0  0  0
    9.5026   13.3094    0.5795 O   0  0  0  0  0  0  0  0  0  0  0  0
    9.8483   14.5751    1.1454 C   0  0  0  0  0  0  0  0  0  0  0  0
    9.8418   15.6435    0.0490 C   0  0  0  0  0  0  0  0  0  0  0  0
   10.1541   17.0069    0.6736 C   0  0  0  0  0  0  0  0  0  0  0  0
    9.1303   17.2981    1.7751 C   0  0  0  0  0  0  0  0  0  0  0  0
    9.1643   16.1658    2.8049 C   0  0  0  0  0  0  0  0  0  0  0  0
    8.8965   14.9226    2.1531 O   0  0  0  0  0  0  0  0  0  0  0  0
    9.4540   18.5352    2.4130 O   0  0  0  0  0  0  0  0  0  0  0  0
   10.0780   18.0213   -0.3300 O   0  0  0  0  0  0  0  0  0  0  0  0
   10.8335   15.3287   -0.9305 O   0  0  0  0  0  0  0  0  0  0  0  0
   10.9637   11.0167   -0.0874 O   0  0  0  0  0  0  0  0  0  0  0  0
   11.4780   12.3502    4.6354 H   0  0  0  0  0  0  0  0  0  0  0  0
   12.0313   12.3054    2.9392 H   0  0  0  0  0  0  0  0  0  0  0  0
   12.8565   11.2699    4.1746 H   0  0  0  0  0  0  0  0  0  0  0  0
   11.8643    9.6721    2.0157 H   0  0  0  0  0  0  0  0  0  0  0  0
   11.7518   12.1198    1.4789 H   0  0  0  0  0  0  0  0  0  0  0  0
    9.5599   12.6084    2.5270 H   0  0  0  0  0  0  0  0  0  0  0  0
    8.4060   10.9235    0.2283 H   0  0  0  0  0  0  0  0  0  0  0  0
    8.5126   10.4004    3.2538 H   0  0  0  0  0  0  0  0  0  0  0  0
    7.3994    8.8041    0.8816 H   0  0  0  0  0  0  0  0  0  0  0  0
    7.5658    8.1688    2.5536 H   0  0  0  0  0  0  0  0  0  0  0  0
    6.3144   10.3300    3.0349 H   0  0  0  0  0  0  0  0  0  0  0  0
    6.8503   12.3762    0.7294 H   0  0  0  0  0  0  0  0  0  0  0  0
   10.8513   14.5144    1.5929 H   0  0  0  0  0  0  0  0  0  0  0  0
    8.8529   15.6745   -0.4317 H   0  0  0  0  0  0  0  0  0  0  0  0
   11.1674   16.9961    1.1016 H   0  0  0  0  0  0  0  0  0  0  0  0
    8.1241   17.3683    1.3363 H   0  0  0  0  0  0  0  0  0  0  0  0
    8.4009   16.3468    3.5760 H   0  0  0  0  0  0  0  0  0  0  0  0
   10.1582   16.1266    3.2745 H   0  0  0  0  0  0  0  0  0  0  0  0
    8.6246   18.9647    2.7414 H   0  0  0  0  0  0  0  0  0  0  0  0
    9.5075   18.7632   -0.0072 H   0  0  0  0  0  0  0  0  0  0  0  0
   10.9420   16.0940   -1.5490 H   0  0  0  0  0  0  0  0  0  0  0  0
   10.4153   10.1997   -0.1962 H   0  0  0  0  0  0  0  0  0  0  0  0
  1  2  1  0  0  0  0
  1 23  1  0  0  0  0
  1 24  1  0  0  0  0
  1 25  1  0  0  0  0
  2  3  1  0  0  0  0
  3  8  1  0  0  0  0
  3  4  1  0  0  0  0
  3 26  1  0  0  0  0
  4  5  1  0  0  0  0
  4 22  1  0  0  0  0
  4 27  1  0  0  0  0
  5  6  1  0  0  0  0
  5 12  1  0  0  0  0
  5 28  1  0  0  0  0
  6  7  1  0  0  0  0
  6 11  1  0  0  0  0
  6 29  1  0  0  0  0
  7  8  1  0  0  0  0
  7  9  1  0  0  0  0
  7 30  1  0  0  0  0
  9 10  1  0  0  0  0
  9 31  1  0  0  0  0
  9 32  1  0  0  0  0
 10 33  1  0  0  0  0
 11 34  1  0  0  0  0
 12 13  1  0  0  0  0
 13 18  1  0  0  0  0
 13 14  1  0  0  0  0
 13 35  1  0  0  0  0
 14 15  1  0  0  0  0
 14 21  1  0  0  0  0
 14 36  1  0  0  0  0
 15 16  1  0  0  0  0
 15 20  1  0  0  0  0
 15 37  1  0  0  0  0
 16 17  1  0  0  0  0
 16 19  1  0  0  0  0
 16 38  1  0  0  0  0
 17 18  1  0  0  0  0
 17 39  1  0  0  0  0
 17 40  1  0  0  0  0
 19 41  1  0  0  0  0
 20 42  1  0  0  0  0
 21 43  1  0  0  0  0
 22 44  1  0  0  0  0
M  END
> <Name>
ZINC06380326

> <reference>
BDB4932

> <quality>
0.692

> <status>
decoy

> <atoms in reference ligand area>
17

> <score>
-33.6762

$$$$
ZINC06088021
      BALL 1.4.0 (Jan  4 2012, 23:22:29)

 38 39  0999  0  0  0  0  0  0999 V2000
   10.8829   13.1702    1.5696 C   0  0  0  0  0  0  0  0  0  0  0  0
   11.7543   13.6499    0.6158 C   0  0  0  0  0  0  0  0  0  0  0  0
   11.4268   14.7753   -0.1234 C   0  0  0  0  0  0  0  0  0  0  0  0
   10.2196   15.4226    0.0857 C   0  0  0  0  0  0  0  0  0  0  0  0
    9.3357   14.9507    1.0317 C   0  0  0  0  0  0  0  0  0  0  0  0
    9.6598   13.8153    1.7821 C   0  0  0  0  0  0  0  0  0  0  0  0
    8.7216   13.3058    2.7940 C   0  0  0  0  0  0  0  0  0  0  0  0
    7.9805   14.0708    3.3735 O   0  0  0  0  0  0  0  0  0  0  0  0
    8.6817   11.8329    3.1106 C   0  0  0  0  0  0  0  0  0  0  0  0
    8.5718   11.0346    1.8100 C   0  0  0  0  0  0  0  0  0  0  0  0
    7.5110   11.2854   -0.3519 C   0  0  0  0  0  0  0  0  0  0  0  0
    7.1364   12.3011   -1.4331 C   0  0  0  0  0  0  0  0  0  0  0  0
    8.3861   12.7837   -2.1235 C   0  0  0  0  0  0  0  0  0  0  0  0
    9.5377   13.1545   -1.5321 C   0  0  0  0  0  0  0  0  0  0  0  0
   10.3984   13.5210   -2.4933 N   0  0  0  0  0  0  0  0  0  0  0  0
    9.8267   13.3835   -3.6583 C   0  0  0  0  0  0  0  0  0  0  0  0
    8.5688   12.9288   -3.4723 N   0  0  0  0  0  0  0  0  0  0  0  0
    6.2563   10.7117    0.2546 C   0  0  0  0  0  0  0  0  0  0  0  0
    5.3823   10.2810   -0.4599 O   0  0  0  0  0  0  0  0  0  0  0  0
   12.5341   15.3766   -1.3177 Cl  0  0  0  0  0  0  0  0  0  0  0  0
    8.2995   11.9615    0.6954 N   0  3  0  0  0  0  0  0  0  0  0  0
    6.1097   10.6793    1.5884 O   0  5  0  0  0  0  0  0  0  0  0  0
   11.1483   12.2824    2.1623 H   0  0  0  0  0  0  0  0  0  0  0  0
   12.7121   13.1381    0.4408 H   0  0  0  0  0  0  0  0  0  0  0  0
    9.9662   16.3153   -0.5049 H   0  0  0  0  0  0  0  0  0  0  0  0
    8.3776   15.4654    1.1964 H   0  0  0  0  0  0  0  0  0  0  0  0
    9.6025   11.5462    3.6395 H   0  0  0  0  0  0  0  0  0  0  0  0
    7.8109   11.6171    3.7471 H   0  0  0  0  0  0  0  0  0  0  0  0
    9.5171   10.5039    1.6235 H   0  0  0  0  0  0  0  0  0  0  0  0
    7.7501   10.3079    1.8919 H   0  0  0  0  0  0  0  0  0  0  0  0
    8.1053   10.4733   -0.7963 H   0  0  0  0  0  0  0  0  0  0  0  0
    6.4720   11.8251   -2.1692 H   0  0  0  0  0  0  0  0  0  0  0  0
    6.6201   13.1558   -0.9717 H   0  0  0  0  0  0  0  0  0  0  0  0
    9.7375   13.1565   -0.4504 H   0  0  0  0  0  0  0  0  0  0  0  0
   10.2922   13.6019   -4.6308 H   0  0  0  0  0  0  0  0  0  0  0  0
    7.8763   12.7285   -4.2080 H   0  0  0  0  0  0  0  0  0  0  0  0
    7.7728   12.7737    1.0475 H   0  0  0  0  0  0  0  0  0  0  0  0
    9.1910   12.2860    0.2944 H   0  0  0  0  0  0  0  0  0  0  0  0
  1  6  2  0  0  0  0
  1  2  1  0  0  0  0
  1 23  1  0  0  0  0
  2  3  2  0  0  0  0
  2 24  1  0  0  0  0
  3  4  1  0  0  0  0
  3 20  1  0  0  0  0
  4  5  2  0  0  0  0
  4 25  1  0  0  0  0
  5  6  1  0  0  0  0
  5 26  1  0  0  0  0
  6  7  1  0  0  0  0
  7  8  2  0  0  0  0
  7  9  1  0  0  0  0
  9 10  1  0  0  0  0
  9 27  1  0  0  0  0
  9 28  1  0  0  0  0
 10 21  1  0  0  0  0
 10 29  1  0  0  0  0
 10 30  1  0  0  0  0
 11 12  1  0  0  0  0
 11 18  1  0  0  0  0
 11 21  1  0  0  0  0
 11 31  1  0  0  0  0
 12 13  1  0  0  0  0
 12 32  1  0  0  0  0
 12 33  1  0  0  0  0
 13 17  1  0  0  0  0
 13 14  2  0  0  0  0
 14 15  1  0  0  0  0
 14 34  1  0  0  0  0
 15 16  2  0  0  0  0
 16 17  1  0  0  0  0
 16 35  1  0  0  0  0
 17 36  1  0  0  0  0
 18 19  2  0  0  0  0
 18 22  1  0  0  0  0
 21 37  1  0  0  0  0
 21 38  1  0  0  0  0
M  END
> <Name>
ZINC06088021

> <reference>
BDB5023

> <quality>
0.735

> <status>
decoy

> <atoms in reference ligand area>
31

> <score>
-33.6675

$$$$
ZINC01646936
      BALL 1.4.0 (Jan  4 2012, 23:22:29)

 34 35  0999  0  0  0  0  0  0999 V2000
   10.3528   10.3430    1.1043 C   0  0  0  0  0  0  0  0  0  0  0  0
    9.6280    9.6428    1.9371 N   0  0  0  0  0  0  0  0  0  0  0  0
    9.1149   10.4447    2.8774 C   0  0  0  0  0  0  0  0  0  0  0  0
    9.5601   11.7305    2.6138 C   0  0  0  0  0  0  0  0  0  0  0  0
   10.3480   11.6352    1.4764 N   0  0  0  0  0  0  0  0  0  0  0  0
   11.0450   12.7359    0.8064 C   0  0  0  0  0  0  0  0  0  0  0  0
   10.1005   13.9336    0.6752 C   0  0  0  0  0  0  0  0  0  0  0  0
   10.8163   15.0583   -0.0792 C   0  0  0  0  0  0  0  0  0  0  0  0
   11.2788   14.5308   -1.4409 C   0  0  0  0  0  0  0  0  0  0  0  0
   12.1778   13.3101   -1.2281 C   0  0  0  0  0  0  0  0  0  0  0  0
   11.4615   12.3149   -0.4942 O   0  0  0  0  0  0  0  0  0  0  0  0
   10.1407   14.1559   -2.2194 O   0  0  0  0  0  0  0  0  0  0  0  0
    9.9179   16.1528   -0.2706 O   0  0  0  0  0  0  0  0  0  0  0  0
    8.9312   13.5429   -0.0472 O   0  0  0  0  0  0  0  0  0  0  0  0
    9.2610   12.9392    3.3783 C   0  0  0  0  0  0  0  0  0  0  0  0
    9.8135   13.9879    3.0998 O   0  0  0  0  0  0  0  0  0  0  0  0
    8.3736   12.8933    4.3916 N   0  0  0  0  0  0  0  0  0  0  0  0
    8.2906   10.0576    3.9303 N   0  0  0  0  0  0  0  0  0  0  0  0
    8.7244    9.1501    4.8274 C   0  0  0  0  0  0  0  0  0  0  0  0
    8.3214    9.1870    5.9707 O   0  0  0  0  0  0  0  0  0  0  0  0
   10.8855    9.9368    0.2318 H   0  0  0  0  0  0  0  0  0  0  0  0
   11.9258   13.0257    1.3982 H   0  0  0  0  0  0  0  0  0  0  0  0
    9.8090   14.2862    1.6756 H   0  0  0  0  0  0  0  0  0  0  0  0
   11.6857   15.4004    0.5014 H   0  0  0  0  0  0  0  0  0  0  0  0
   11.8392   15.3152   -1.9707 H   0  0  0  0  0  0  0  0  0  0  0  0
   12.4775   12.9006   -2.2041 H   0  0  0  0  0  0  0  0  0  0  0  0
   13.0739   13.6071   -0.6636 H   0  0  0  0  0  0  0  0  0  0  0  0
   10.1194   14.6904   -3.0525 H   0  0  0  0  0  0  0  0  0  0  0  0
    9.9301   16.4279   -1.2215 H   0  0  0  0  0  0  0  0  0  0  0  0
    8.1588   14.0820    0.2577 H   0  0  0  0  0  0  0  0  0  0  0  0
    7.5939   12.2208    4.3633 H   0  0  0  0  0  0  0  0  0  0  0  0
    8.4751   13.5306    5.1943 H   0  0  0  0  0  0  0  0  0  0  0  0
    7.3491   10.4647    4.0237 H   0  0  0  0  0  0  0  0  0  0  0  0
    9.4439    8.3759    4.5226 H   0  0  0  0  0  0  0  0  0  0  0  0
  1  5  1  0  0  0  0
  1  2  2  0  0  0  0
  1 21  1  0  0  0  0
  2  3  1  0  0  0  0
  3  4  2  0  0  0  0
  3 18  1  0  0  0  0
  4  5  1  0  0  0  0
  4 15  1  0  0  0  0
  5  6  1  0  0  0  0
  6 11  1  0  0  0  0
  6  7  1  0  0  0  0
  6 22  1  0  0  0  0
  7  8  1  0  0  0  0
  7 14  1  0  0  0  0
  7 23  1  0  0  0  0
  8  9  1  0  0  0  0
  8 13  1  0  0  0  0
  8 24  1  0  0  0  0
  9 10  1  0  0  0  0
  9 12  1  0  0  0  0
  9 25  1  0  0  0  0
 10 11  1  0  0  0  0
 10 26  1  0  0  0  0
 10 27  1  0  0  0  0
 12 28  1  0  0  0  0
 13 29  1  0  0  0  0
 14 30  1  0  0  0  0
 15 16  2  0  0  0  0
 15 17  1  0  0  0  0
 17 31  1  0  0  0  0
 17 32  1  0  0  0  0
 18 19  1  0  0  0  0
 18 33  1  0  0  0  0
 19 20  2  0  0  0  0
 19 34  1  0  0  0  0
M  END
> <Name>
ZINC01646936

> <reference>
BDB5008

> <quality>
0.705

> <status>
decoy

> <atoms in reference ligand area>
20

> <score>
-33.614

$$$$
ZINC31904736
      BALL 1.4.0 (Jan  4 2012, 23:22:29)

 45 46  0999  0  0  0  0  0  0999 V2000
   10.9829   10.0690    4.7595 C   0  0  0  0  0  0  0  0  0  0  0  0
    9.7955   10.4094    3.8962 C   0  0  0  0  0  0  0  0  0  0  0  0
    9.7037   11.6200    3.3057 C   0  0  0  0  0  0  0  0  0  0  0  0
    8.6189   11.9125    2.5246 N   0  0  0  0  0  0  0  0  0  0  0  0
    7.6405   11.0069    2.3438 C   0  0  0  0  0  0  0  0  0  0  0  0
    6.6832   11.2893    1.6495 O   0  0  0  0  0  0  0  0  0  0  0  0
    7.7092    9.7907    2.9165 N   0  0  0  0  0  0  0  0  0  0  0  0
    8.7616    9.4637    3.6933 C   0  0  0  0  0  0  0  0  0  0  0  0
    8.8224    8.3651    4.2152 O   0  0  0  0  0  0  0  0  0  0  0  0
    6.6333    8.8203    2.6993 C   0  0  0  0  0  0  0  0  0  0  0  0
    5.5642    8.9938    3.7799 C   0  0  0  0  0  0  0  0  0  0  0  0
    4.4406    7.9804    3.5532 C   0  0  0  0  0  0  0  0  0  0  0  0
    3.3714    8.1539    4.6338 C   0  0  0  0  0  0  0  0  0  0  0  0
    3.9814    8.6299    5.8352 O   0  0  0  0  0  0  0  0  0  0  0  0
    8.5189   13.2263    1.8841 C   0  0  0  0  0  0  0  0  0  0  0  0
    7.9613   13.0844    0.4504 C   0  0  0  0  0  0  0  0  0  0  0  0
    9.2233   13.0251   -0.4392 C   0  0  0  0  0  0  0  0  0  0  0  0
   10.3940   13.1381    0.5623 C   0  0  0  0  0  0  0  0  0  0  0  0
    9.8316   13.8040    1.7140 O   0  0  0  0  0  0  0  0  0  0  0  0
   11.5275   13.9740   -0.0354 C   0  0  0  0  0  0  0  0  0  0  0  0
   12.2258   13.2001   -1.0129 O   0  0  0  0  0  0  0  0  0  0  0  0
    9.2419   14.1484   -1.3794 N   0  0  0  0  0  0  0  0  0  0  0  0
    8.3163   14.4097   -1.9610 N   0  3  0  0  0  0  0  0  0  0  0  0
    7.3907   14.6712   -2.5426 N   0  5  0  0  0  0  0  0  0  0  0  0
   10.6858    9.1577    5.2991 H   0  0  0  0  0  0  0  0  0  0  0  0
   11.0328   10.8800    5.5010 H   0  0  0  0  0  0  0  0  0  0  0  0
   11.9237    9.9447    4.2031 H   0  0  0  0  0  0  0  0  0  0  0  0
   10.4972   12.3677    3.4517 H   0  0  0  0  0  0  0  0  0  0  0  0
    6.1835    8.9867    1.7093 H   0  0  0  0  0  0  0  0  0  0  0  0
    7.0422    7.8003    2.7496 H   0  0  0  0  0  0  0  0  0  0  0  0
    6.0132    8.8272    4.7702 H   0  0  0  0  0  0  0  0  0  0  0  0
    5.1532   10.0130    3.7304 H   0  0  0  0  0  0  0  0  0  0  0  0
    3.9909    8.1468    2.5632 H   0  0  0  0  0  0  0  0  0  0  0  0
    4.8495    6.9605    3.6035 H   0  0  0  0  0  0  0  0  0  0  0  0
    2.6193    8.8804    4.2923 H   0  0  0  0  0  0  0  0  0  0  0  0
    2.8851    7.1867    4.8286 H   0  0  0  0  0  0  0  0  0  0  0  0
    3.5864    9.5031    6.0834 H   0  0  0  0  0  0  0  0  0  0  0  0
    7.8716   13.8446    2.5233 H   0  0  0  0  0  0  0  0  0  0  0  0
    7.3559   13.9650    0.1894 H   0  0  0  0  0  0  0  0  0  0  0  0
    7.3887   12.1498    0.3573 H   0  0  0  0  0  0  0  0  0  0  0  0
    9.2715   12.1091   -1.0463 H   0  0  0  0  0  0  0  0  0  0  0  0
   10.8210   12.1566    0.8162 H   0  0  0  0  0  0  0  0  0  0  0  0
   11.1086   14.8731   -0.5111 H   0  0  0  0  0  0  0  0  0  0  0  0
   12.2246   14.2719    0.7617 H   0  0  0  0  0  0  0  0  0  0  0  0
   12.7361   12.4810   -0.5628 H   0  0  0  0  0  0  0  0  0  0  0  0
  1  2  1  0  0  0  0
  1 25  1  0  0  0  0
  1 26  1  0  0  0  0
  1 27  1  0  0  0  0
  2  8  1  0  0  0  0
  2  3  2  0  0  0  0
  3  4  1  0  0  0  0
  3 28  1  0  0  0  0
  4  5  1  0  0  0  0
  4 15  1  0  0  0  0
  5  6  2  0  0  0  0
  5  7  1  0  0  0  0
  7  8  1  0  0  0  0
  7 10  1  0  0  0  0
  8  9  2  0  0  0  0
 10 11  1  0  0  0  0
 10 29  1  0  0  0  0
 10 30  1  0  0  0  0
 11 12  1  0  0  0  0
 11 31  1  0  0  0  0
 11 32  1  0  0  0  0
 12 13  1  0  0  0  0
 12 33  1  0  0  0  0
 12 34  1  0  0  0  0
 13 14  1  0  0  0  0
 13 35  1  0  0  0  0
 13 36  1  0  0  0  0
 14 37  1  0  0  0  0
 15 19  1  0  0  0  0
 15 16  1  0  0  0  0
 15 38  1  0  0  0  0
 16 17  1  0  0  0  0
 16 39  1  0  0  0  0
 16 40  1  0  0  0  0
 17 18  1  0  0  0  0
 17 22  1  0  0  0  0
 17 41  1  0  0  0  0
 18 19  1  0  0  0  0
 18 20  1  0  0  0  0
 18 42  1  0  0  0  0
 20 21  1  0  0  0  0
 20 43  1  0  0  0  0
 20 44  1  0  0  0  0
 21 45  1  0  0  0  0
 22 23  2  0  0  0  0
 23 24  2  0  0  0  0
M  END
> <Name>
ZINC31904736

> <reference>
BDB5009

> <quality>
0.830

> <status>
decoy

> <atoms in reference ligand area>
20

> <score>
-33.5475

$$$$
ZINC12398420
      BALL 1.4.0 (Jan  4 2012, 23:22:29)

 39 40  0999  0  0  0  0  0  0999 V2000
    9.4010   15.0151    2.7746 C   0  0  0  0  0  0  0  0  0  0  0  0
    9.9250   14.4416    1.4832 C   0  0  0  0  0  0  0  0  0  0  0  0
   10.4528   15.1443    0.4542 C   0  0  0  0  0  0  0  0  0  0  0  0
   10.8142   14.2364   -0.5464 C   0  0  0  0  0  0  0  0  0  0  0  0
   10.5194   13.0313   -0.1308 N   0  0  0  0  0  0  0  0  0  0  0  0
    9.9516   13.1353    1.1457 N   0  0  0  0  0  0  0  0  0  0  0  0
    9.4765   12.0220    1.9710 C   0  0  0  0  0  0  0  0  0  0  0  0
    8.1802   12.4267    2.6758 C   0  0  0  0  0  0  0  0  0  0  0  0
    7.1378   11.3595    2.4618 C   0  0  0  0  0  0  0  0  0  0  0  0
    7.1436   10.1287    2.9944 N   0  0  0  0  0  0  0  0  0  0  0  0
    6.0528    9.5421    2.5440 C   0  0  0  0  0  0  0  0  0  0  0  0
    5.4304   10.4348    1.7595 O   0  0  0  0  0  0  0  0  0  0  0  0
    6.0691   11.4658    1.7277 N   0  0  0  0  0  0  0  0  0  0  0  0
    5.6013    8.1626    2.8454 C   0  0  0  0  0  0  0  0  0  0  0  0
    6.3434    7.3931    3.4226 O   0  0  0  0  0  0  0  0  0  0  0  0
    4.3675    7.7622    2.4792 N   0  0  0  0  0  0  0  0  0  0  0  0
    3.9213    6.3990    2.7772 C   0  0  0  0  0  0  0  0  0  0  0  0
    2.7500    6.0346    1.8628 C   0  0  0  0  0  0  0  0  0  0  0  0
   11.4409   14.5853   -1.8718 C   0  0  0  0  0  0  0  0  0  0  0  0
   12.2139   15.7428   -1.7318 F   0  0  0  0  0  0  0  0  0  0  0  0
   12.2551   13.5293   -2.2950 F   0  0  0  0  0  0  0  0  0  0  0  0
   10.4355   14.8075   -2.8189 F   0  0  0  0  0  0  0  0  0  0  0  0
    3.0227    6.5441    0.5072 N   0  3  0  0  0  0  0  0  0  0  0  0
   10.1954   14.7582    3.4907 H   0  0  0  0  0  0  0  0  0  0  0  0
    8.5578   14.3485    3.0082 H   0  0  0  0  0  0  0  0  0  0  0  0
    9.1373   16.0830    2.7628 H   0  0  0  0  0  0  0  0  0  0  0  0
   10.5758   16.2366    0.4122 H   0  0  0  0  0  0  0  0  0  0  0  0
    9.2881   11.1464    1.3325 H   0  0  0  0  0  0  0  0  0  0  0  0
   10.2386   11.7703    2.7232 H   0  0  0  0  0  0  0  0  0  0  0  0
    8.3693   12.5430    3.7531 H   0  0  0  0  0  0  0  0  0  0  0  0
    7.8185   13.3795    2.2620 H   0  0  0  0  0  0  0  0  0  0  0  0
    3.7384    8.4147    1.9899 H   0  0  0  0  0  0  0  0  0  0  0  0
    4.7504    5.6963    2.6078 H   0  0  0  0  0  0  0  0  0  0  0  0
    3.5984    6.3389    3.8270 H   0  0  0  0  0  0  0  0  0  0  0  0
    1.8259    6.4908    2.2474 H   0  0  0  0  0  0  0  0  0  0  0  0
    2.6366    4.9410    1.8283 H   0  0  0  0  0  0  0  0  0  0  0  0
    2.5691    5.9370   -0.1903 H   0  0  0  0  0  0  0  0  0  0  0  0
    4.0389    6.5615    0.3401 H   0  0  0  0  0  0  0  0  0  0  0  0
    2.6480    7.4996    0.4209 H   0  0  0  0  0  0  0  0  0  0  0  0
  1  2  1  0  0  0  0
  1 24  1  0  0  0  0
  1 25  1  0  0  0  0
  1 26  1  0  0  0  0
  2  6  1  0  0  0  0
  2  3  2  0  0  0  0
  3  4  1  0  0  0  0
  3 27  1  0  0  0  0
  4  5  2  0  0  0  0
  4 19  1  0  0  0  0
  5  6  1  0  0  0  0
  6  7  1  0  0  0  0
  7  8  1  0  0  0  0
  7 28  1  0  0  0  0
  7 29  1  0  0  0  0
  8  9  1  0  0  0  0
  8 30  1  0  0  0  0
  8 31  1  0  0  0  0
  9 13  2  0  0  0  0
  9 10  1  0  0  0  0
 10 11  2  0  0  0  0
 11 12  1  0  0  0  0
 11 14  1  0  0  0  0
 12 13  1  0  0  0  0
 14 15  2  0  0  0  0
 14 16  1  0  0  0  0
 16 17  1  0  0  0  0
 16 32  1  0  0  0  0
 17 18  1  0  0  0  0
 17 33  1  0  0  0  0
 17 34  1  0  0  0  0
 18 23  1  0  0  0  0
 18 35  1  0  0  0  0
 18 36  1  0  0  0  0
 19 20  1  0  0  0  0
 19 21  1  0  0  0  0
 19 22  1  0  0  0  0
 23 37  1  0  0  0  0
 23 38  1  0  0  0  0
 23 39  1  0  0  0  0
M  END
> <Name>
ZINC12398420

> <reference>
BDB5025

> <quality>
0.738

> <status>
decoy

> <atoms in reference ligand area>
17

> <score>
-33.1043

$$$$
ZINC20423296
      BALL 1.4.0 (Jan  4 2012, 23:22:29)

 37 37  0999  0  0  0  0  0  0999 V2000
    9.9971   19.2167    2.8380 C   0  0  0  0  0  0  0  0  0  0  0  0
    8.9536   18.3691    2.3535 O   0  0  0  0  0  0  0  0  0  0  0  0
    9.3298   17.2634    1.6570 C   0  0  0  0  0  0  0  0  0  0  0  0
    9.4835   17.3302    0.2799 C   0  0  0  0  0  0  0  0  0  0  0  0
    9.8654   16.2072   -0.4275 C   0  0  0  0  0  0  0  0  0  0  0  0
   10.0954   15.0125    0.2389 C   0  0  0  0  0  0  0  0  0  0  0  0
    9.9421   14.9459    1.6156 C   0  0  0  0  0  0  0  0  0  0  0  0
    9.5553   16.0680    2.3227 C   0  0  0  0  0  0  0  0  0  0  0  0
   10.1912   13.6479    2.3395 C   0  0  0  0  0  0  0  0  0  0  0  0
    8.9668   12.7416    2.1977 C   0  0  0  0  0  0  0  0  0  0  0  0
    9.3946   11.3942    1.6123 C   0  0  0  0  0  0  0  0  0  0  0  0
    8.2294   10.4067    1.7009 C   0  0  0  0  0  0  0  0  0  0  0  0
    6.9423   11.1171    1.3694 C   0  0  0  0  0  0  0  0  0  0  0  0
    6.9485   12.0530    0.6051 O   0  0  0  0  0  0  0  0  0  0  0  0
    5.7893   10.7103    1.9230 O   0  5  0  0  0  0  0  0  0  0  0  0
   10.4369   13.9200    3.7621 N   0  3  0  0  0  0  0  0  0  0  0  0
   10.4714   13.9068   -0.4576 O   0  0  0  0  0  0  0  0  0  0  0  0
   11.8737   13.6997   -0.6383 C   0  0  0  0  0  0  0  0  0  0  0  0
    9.5126   19.9679    3.4792 H   0  0  0  0  0  0  0  0  0  0  0  0
   10.4064   19.7366    1.9593 H   0  0  0  0  0  0  0  0  0  0  0  0
   10.7773   18.6632    3.3811 H   0  0  0  0  0  0  0  0  0  0  0  0
    9.3012   18.2775   -0.2486 H   0  0  0  0  0  0  0  0  0  0  0  0
    9.9872   16.2601   -1.5194 H   0  0  0  0  0  0  0  0  0  0  0  0
    9.4264   16.0131    3.4137 H   0  0  0  0  0  0  0  0  0  0  0  0
   11.0695   13.1483    1.9047 H   0  0  0  0  0  0  0  0  0  0  0  0
    8.5112   12.5832    3.1863 H   0  0  0  0  0  0  0  0  0  0  0  0
    8.2341   13.2155    1.5278 H   0  0  0  0  0  0  0  0  0  0  0  0
    9.6829   11.5268    0.5591 H   0  0  0  0  0  0  0  0  0  0  0  0
   10.2509   11.0017    2.1803 H   0  0  0  0  0  0  0  0  0  0  0  0
    8.1698    9.9986    2.7207 H   0  0  0  0  0  0  0  0  0  0  0  0
    8.3891    9.5859    0.9862 H   0  0  0  0  0  0  0  0  0  0  0  0
   10.7709   13.0622    4.2241 H   0  0  0  0  0  0  0  0  0  0  0  0
    9.5628   14.2319    4.2089 H   0  0  0  0  0  0  0  0  0  0  0  0
   11.1500   14.6577    3.8531 H   0  0  0  0  0  0  0  0  0  0  0  0
   12.1850   12.9916    0.1438 H   0  0  0  0  0  0  0  0  0  0  0  0
   12.3581   14.6653   -0.4313 H   0  0  0  0  0  0  0  0  0  0  0  0
   12.1230   13.3285   -1.6433 H   0  0  0  0  0  0  0  0  0  0  0  0
  1  2  1  0  0  0  0
  1 19  1  0  0  0  0
  1 20  1  0  0  0  0
  1 21  1  0  0  0  0
  2  3  1  0  0  0  0
  3  8  2  0  0  0  0
  3  4  1  0  0  0  0
  4  5  2  0  0  0  0
  4 22  1  0  0  0  0
  5  6  1  0  0  0  0
  5 23  1  0  0  0  0
  6  7  2  0  0  0  0
  6 17  1  0  0  0  0
  7  8  1  0  0  0  0
  7  9  1  0  0  0  0
  8 24  1  0  0  0  0
  9 10  1  0  0  0  0
  9 16  1  0  0  0  0
  9 25  1  0  0  0  0
 10 11  1  0  0  0  0
 10 26  1  0  0  0  0
 10 27  1  0  0  0  0
 11 12  1  0  0  0  0
 11 28  1  0  0  0  0
 11 29  1  0  0  0  0
 12 13  1  0  0  0  0
 12 30  1  0  0  0  0
 12 31  1  0  0  0  0
 13 14  2  0  0  0  0
 13 15  1  0  0  0  0
 16 32  1  0  0  0  0
 16 33  1  0  0  0  0
 16 34  1  0  0  0  0
 17 18  1  0  0  0  0
 18 35  1  0  0  0  0
 18 36  1  0  0  0  0
 18 37  1  0  0  0  0
M  END
> <Name>
ZINC20423296

> <reference>
BDB4995

> <quality>
0.786

> <status>
decoy

> <atoms in reference ligand area>
20

> <score>
-33.0067

$$$$
ZINC02267985
      BALL 1.4.0 (Jan  4 2012, 23:22:29)

 48 49  0999  0  0  0  0  0  0999 V2000
   11.9237    9.6293    1.1808 C   0  0  0  0  0  0  0  0  0  0  0  0
   11.3333   10.6882    2.1142 C   0  0  0  0  0  0  0  0  0  0  0  0
   10.3040   10.0384    3.0473 C   0  0  0  0  0  0  0  0  0  0  0  0
    9.7099   11.1181    3.9568 C   0  0  0  0  0  0  0  0  0  0  0  0
   10.0207   12.8040    2.2407 C   0  0  0  0  0  0  0  0  0  0  0  0
   10.6223   11.7669    1.2876 C   0  0  0  0  0  0  0  0  0  0  0  0
    9.4954   11.1115    0.4835 C   0  0  0  0  0  0  0  0  0  0  0  0
    9.1853    9.4254    2.1995 C   0  0  0  0  0  0  0  0  0  0  0  0
    7.3793    9.9516    0.6759 C   0  0  0  0  0  0  0  0  0  0  0  0
    6.2416    9.6620    1.6568 C   0  0  0  0  0  0  0  0  0  0  0  0
    5.3973   10.8103    1.7596 O   0  0  0  0  0  0  0  0  0  0  0  0
   11.5648   12.4206    0.3763 N   0  0  0  0  0  0  0  0  0  0  0  0
   11.4818   12.2315   -0.8241 O   0  0  0  0  0  0  0  0  0  0  0  0
   12.4314   13.1531    0.8189 O   0  0  0  0  0  0  0  0  0  0  0  0
    8.3651   13.1309    3.9764 C   0  0  0  0  0  0  0  0  0  0  0  0
    7.9314   14.3115    3.1053 C   0  0  0  0  0  0  0  0  0  0  0  0
    8.7828   15.4303    3.3610 O   0  0  0  0  0  0  0  0  0  0  0  0
   10.9344    8.9971    3.8622 N   0  0  0  0  0  0  0  0  0  0  0  0
   11.3057    7.9594    3.3437 O   0  0  0  0  0  0  0  0  0  0  0  0
   11.0873    9.1688    5.0583 O   0  0  0  0  0  0  0  0  0  0  0  0
   12.4500   11.3263    2.9428 C   0  0  0  0  0  0  0  0  0  0  0  0
    9.0368   12.1336    3.1184 N   0  3  0  0  0  0  0  0  0  0  0  0
    8.5302   10.4998    1.4222 N   0  0  0  0  0  0  0  0  0  0  0  0
   11.2149    9.4244    0.3650 H   0  0  0  0  0  0  0  0  0  0  0  0
   12.1068    8.7039    1.7465 H   0  0  0  0  0  0  0  0  0  0  0  0
   12.8716    9.9956    0.7598 H   0  0  0  0  0  0  0  0  0  0  0  0
    8.9784   10.6622    4.6402 H   0  0  0  0  0  0  0  0  0  0  0  0
   10.5135   11.5949    4.5373 H   0  0  0  0  0  0  0  0  0  0  0  0
    9.5184   13.5915    1.6599 H   0  0  0  0  0  0  0  0  0  0  0  0
   10.8190   13.2468    2.8543 H   0  0  0  0  0  0  0  0  0  0  0  0
    8.9853   11.8736   -0.1238 H   0  0  0  0  0  0  0  0  0  0  0  0
    9.9139   10.3334   -0.1719 H   0  0  0  0  0  0  0  0  0  0  0  0
    8.4459    8.9438    2.8564 H   0  0  0  0  0  0  0  0  0  0  0  0
    9.6111    8.6807    1.5109 H   0  0  0  0  0  0  0  0  0  0  0  0
    7.0437   10.6850   -0.0720 H   0  0  0  0  0  0  0  0  0  0  0  0
    7.6777    9.0198    0.1730 H   0  0  0  0  0  0  0  0  0  0  0  0
    6.6603    9.4259    2.6462 H   0  0  0  0  0  0  0  0  0  0  0  0
    5.6534    8.8062    1.2939 H   0  0  0  0  0  0  0  0  0  0  0  0
    5.3847   11.1291    2.6968 H   0  0  0  0  0  0  0  0  0  0  0  0
    9.0637   13.4809    4.7506 H   0  0  0  0  0  0  0  0  0  0  0  0
    7.4821   12.6755    4.4483 H   0  0  0  0  0  0  0  0  0  0  0  0
    8.0046   14.0308    2.0442 H   0  0  0  0  0  0  0  0  0  0  0  0
    6.8917   14.5811    3.3424 H   0  0  0  0  0  0  0  0  0  0  0  0
    9.1045   15.3943    4.2966 H   0  0  0  0  0  0  0  0  0  0  0  0
   12.3717   12.4216    2.8801 H   0  0  0  0  0  0  0  0  0  0  0  0
   13.4261   11.0069    2.5487 H   0  0  0  0  0  0  0  0  0  0  0  0
   12.3570   11.0112    3.9926 H   0  0  0  0  0  0  0  0  0  0  0  0
    8.3318   11.6657    2.5311 H   0  0  0  0  0  0  0  0  0  0  0  0
  1  2  1  0  0  0  0
  1 24  1  0  0  0  0
  1 25  1  0  0  0  0
  1 26  1  0  0  0  0
  2  6  1  0  0  0  0
  2  3  1  0  0  0  0
  2 21  1  0  0  0  0
  3  8  1  0  0  0  0
  3  4  1  0  0  0  0
  3 18  1  0  0  0  0
  4 22  1  0  0  0  0
  4 27  1  0  0  0  0
  4 28  1  0  0  0  0
  5  6  1  0  0  0  0
  5 22  1  0  0  0  0
  5 29  1  0  0  0  0
  5 30  1  0  0  0  0
  6  7  1  0  0  0  0
  6 12  1  0  0  0  0
  7 23  1  0  0  0  0
  7 31  1  0  0  0  0
  7 32  1  0  0  0  0
  8 23  1  0  0  0  0
  8 33  1  0  0  0  0
  8 34  1  0  0  0  0
  9 10  1  0  0  0  0
  9 23  1  0  0  0  0
  9 35  1  0  0  0  0
  9 36  1  0  0  0  0
 10 11  1  0  0  0  0
 10 37  1  0  0  0  0
 10 38  1  0  0  0  0
 11 39  1  0  0  0  0
 12 13  2  0  0  0  0
 12 14  2  0  0  0  0
 15 16  1  0  0  0  0
 15 22  1  0  0  0  0
 15 40  1  0  0  0  0
 15 41  1  0  0  0  0
 16 17  1  0  0  0  0
 16 42  1  0  0  0  0
 16 43  1  0  0  0  0
 17 44  1  0  0  0  0
 18 19  2  0  0  0  0
 18 20  2  0  0  0  0
 21 45  1  0  0  0  0
 21 46  1  0  0  0  0
 21 47  1  0  0  0  0
 22 48  1  0  0  0  0
M  END
> <Name>
ZINC02267985

> <reference>
BDB4934

> <quality>
0.724

> <status>
decoy

> <atoms in reference ligand area>
23

> <score>
-32.9285

$$$$
ZINC05677679
      BALL 1.4.0 (Jan  4 2012, 23:22:29)

 46 47  0999  0  0  0  0  0  0999 V2000
    7.8236   15.0177   -2.2724 C   0  0  0  0  0  0  0  0  0  0  0  0
    8.7105   13.9613   -1.6103 C   0  0  0  0  0  0  0  0  0  0  0  0
    9.0280   12.8752   -2.6371 C   0  0  0  0  0  0  0  0  0  0  0  0
   10.3265   13.2219   -3.4102 C   0  0  0  0  0  0  0  0  0  0  0  0
   11.3354   13.9062   -2.0230 S   0  0  0  0  0  0  0  0  0  0  0  0
   12.1734   14.9404   -2.5206 O   0  0  0  0  0  0  0  0  0  0  0  0
   11.9044   12.8332   -1.2854 O   0  0  0  0  0  0  0  0  0  0  0  0
    9.9661   14.6540   -1.0455 C   0  0  0  0  0  0  0  0  0  0  0  0
    7.9691   13.3563   -0.5010 N   0  0  0  0  0  0  0  0  0  0  0  0
    8.3900   12.1942    0.0364 C   0  0  0  0  0  0  0  0  0  0  0  0
   10.0653   11.8597    0.1479 S   0  0  0  0  0  0  0  0  0  0  0  0
    7.4920   11.2953    0.4860 N   0  0  0  0  0  0  0  0  0  0  0  0
    6.8084   10.4078   -0.4580 C   0  0  0  0  0  0  0  0  0  0  0  0
    5.8493    9.4924    0.3057 C   0  0  0  0  0  0  0  0  0  0  0  0
    4.4190    7.5493    0.1034 C   0  0  0  0  0  0  0  0  0  0  0  0
    4.0078    6.3976   -0.8289 C   0  0  0  0  0  0  0  0  0  0  0  0
    3.3053    5.2846   -0.0145 C   0  0  0  0  0  0  0  0  0  0  0  0
    4.0578    5.4686    1.6535 S   0  0  0  0  0  0  0  0  0  0  0  0
    3.0422    5.8223    2.5824 O   0  0  0  0  0  0  0  0  0  0  0  0
    4.8838    4.3422    1.9148 O   0  0  0  0  0  0  0  0  0  0  0  0
    5.1268    6.9374    1.3460 C   0  0  0  0  0  0  0  0  0  0  0  0
    5.3477    8.4482   -0.6075 N   0  3  0  0  0  0  0  0  0  0  0  0
    7.8262   14.8779   -3.3635 H   0  0  0  0  0  0  0  0  0  0  0  0
    8.1947   16.0241   -2.0281 H   0  0  0  0  0  0  0  0  0  0  0  0
    6.7949   14.9119   -1.8976 H   0  0  0  0  0  0  0  0  0  0  0  0
    8.1933   12.7899   -3.3484 H   0  0  0  0  0  0  0  0  0  0  0  0
    9.1584   11.9127   -2.1206 H   0  0  0  0  0  0  0  0  0  0  0  0
   10.8023   12.3134   -3.8082 H   0  0  0  0  0  0  0  0  0  0  0  0
   10.1417   14.0040   -4.1613 H   0  0  0  0  0  0  0  0  0  0  0  0
   10.0937   14.4127    0.0200 H   0  0  0  0  0  0  0  0  0  0  0  0
    9.9241   15.7375   -1.2306 H   0  0  0  0  0  0  0  0  0  0  0  0
    7.1263   13.8191   -0.1317 H   0  0  0  0  0  0  0  0  0  0  0  0
    7.2864   11.2325    1.4933 H   0  0  0  0  0  0  0  0  0  0  0  0
    6.2407   11.0101   -1.1825 H   0  0  0  0  0  0  0  0  0  0  0  0
    7.5509    9.7962   -0.9915 H   0  0  0  0  0  0  0  0  0  0  0  0
    6.3811    9.0212    1.1453 H   0  0  0  0  0  0  0  0  0  0  0  0
    5.0033   10.0822    0.6885 H   0  0  0  0  0  0  0  0  0  0  0  0
    3.5356    8.1253    0.4162 H   0  0  0  0  0  0  0  0  0  0  0  0
    3.3187    6.7776   -1.5976 H   0  0  0  0  0  0  0  0  0  0  0  0
    4.9025    5.9833   -1.3165 H   0  0  0  0  0  0  0  0  0  0  0  0
    3.5464    4.2932   -0.4257 H   0  0  0  0  0  0  0  0  0  0  0  0
    2.2227    5.4717    0.0412 H   0  0  0  0  0  0  0  0  0  0  0  0
    5.0763    7.6242    2.2037 H   0  0  0  0  0  0  0  0  0  0  0  0
    6.1472    6.6128    1.0945 H   0  0  0  0  0  0  0  0  0  0  0  0
    4.8559    8.8919   -1.3963 H   0  0  0  0  0  0  0  0  0  0  0  0
    6.1412    7.9006   -0.9701 H   0  0  0  0  0  0  0  0  0  0  0  0
  1  2  1  0  0  0  0
  1 23  1  0  0  0  0
  1 24  1  0  0  0  0
  1 25  1  0  0  0  0
  2  8  1  0  0  0  0
  2  3  1  0  0  0  0
  2  9  1  0  0  0  0
  3  4  1  0  0  0  0
  3 26  1  0  0  0  0
  3 27  1  0  0  0  0
  4  5  1  0  0  0  0
  4 28  1  0  0  0  0
  4 29  1  0  0  0  0
  5  6  2  0  0  0  0
  5  7  2  0  0  0  0
  5  8  1  0  0  0  0
  8 30  1  0  0  0  0
  8 31  1  0  0  0  0
  9 10  1  0  0  0  0
  9 32  1  0  0  0  0
 10 11  2  0  0  0  0
 10 12  1  0  0  0  0
 12 13  1  0  0  0  0
 12 33  1  0  0  0  0
 13 14  1  0  0  0  0
 13 34  1  0  0  0  0
 13 35  1  0  0  0  0
 14 22  1  0  0  0  0
 14 36  1  0  0  0  0
 14 37  1  0  0  0  0
 15 21  1  0  0  0  0
 15 16  1  0  0  0  0
 15 22  1  0  0  0  0
 15 38  1  0  0  0  0
 16 17  1  0  0  0  0
 16 39  1  0  0  0  0
 16 40  1  0  0  0  0
 17 18  1  0  0  0  0
 17 41  1  0  0  0  0
 17 42  1  0  0  0  0
 18 19  2  0  0  0  0
 18 20  2  0  0  0  0
 18 21  1  0  0  0  0
 21 43  1  0  0  0  0
 21 44  1  0  0  0  0
 22 45  1  0  0  0  0
 22 46  1  0  0  0  0
M  END
> <Name>
ZINC05677679

> <reference>
BDB4952

> <quality>
0.712

> <status>
decoy

> <atoms in reference ligand area>
19

> <score>
-32.8951

$$$$
ZINC05192440
      BALL 1.4.0 (Jan  4 2012, 23:22:29)

 43 44  0999  0  0  0  0  0  0999 V2000
    8.3788   13.6261    3.5373 C   0  0  0  0  0  0  0  0  0  0  0  0
    8.6396   14.1593    2.1121 C   0  0  0  0  0  0  0  0  0  0  0  0
   10.1059   14.0665    1.6793 C   0  0  0  0  0  0  0  0  0  0  0  0
   11.0324   13.4583    2.7540 C   0  0  0  0  0  0  0  0  0  0  0  0
    9.8272   12.5084    3.7790 S   0  0  0  0  0  0  0  0  0  0  0  0
   12.0697   12.5277    2.1222 C   0  0  0  0  0  0  0  0  0  0  0  0
   11.9897   11.1506    2.7841 C   0  0  0  0  0  0  0  0  0  0  0  0
   13.4023   10.5976    2.9830 C   0  0  0  0  0  0  0  0  0  0  0  0
   13.9333   11.0349    4.3497 C   0  0  0  0  0  0  0  0  0  0  0  0
   15.0658   10.1300    4.7616 C   0  0  0  0  0  0  0  0  0  0  0  0
   15.7707    9.6181    3.9178 O   0  0  0  0  0  0  0  0  0  0  0  0
   15.2954    9.8896    6.0677 N   0  0  0  0  0  0  0  0  0  0  0  0
   16.5870   10.0357    6.5905 N   0  0  0  0  0  0  0  0  0  0  0  0
   16.7561   10.3962    7.8781 C   0  0  0  0  0  0  0  0  0  0  0  0
   15.7901   10.5939    8.5843 O   0  0  0  0  0  0  0  0  0  0  0  0
   18.1454   10.5535    8.4403 C   0  0  0  0  0  0  0  0  0  0  0  0
   19.1064   10.2685    7.4219 O   0  0  0  0  0  0  0  0  0  0  0  0
   18.6500   10.5834    6.0680 N   0  0  0  0  0  0  0  0  0  0  0  0
   10.0772   13.1752    0.5088 N   0  0  0  0  0  0  0  0  0  0  0  0
    8.8121   12.7979    0.2784 C   0  0  0  0  0  0  0  0  0  0  0  0
    8.4962   12.0574   -0.6328 O   0  0  0  0  0  0  0  0  0  0  0  0
    7.9268   13.3114    1.1435 N   0  0  0  0  0  0  0  0  0  0  0  0
    8.4097   14.4455    4.2706 H   0  0  0  0  0  0  0  0  0  0  0  0
    7.4462   13.0439    3.5700 H   0  0  0  0  0  0  0  0  0  0  0  0
    8.3145   15.2101    2.1311 H   0  0  0  0  0  0  0  0  0  0  0  0
   10.5089   15.0711    1.4832 H   0  0  0  0  0  0  0  0  0  0  0  0
   11.6178   14.2000    3.3173 H   0  0  0  0  0  0  0  0  0  0  0  0
   11.8662   12.4288    1.0457 H   0  0  0  0  0  0  0  0  0  0  0  0
   13.0765   12.9460    2.2683 H   0  0  0  0  0  0  0  0  0  0  0  0
   11.4912   11.2413    3.7604 H   0  0  0  0  0  0  0  0  0  0  0  0
   11.4160   10.4664    2.1416 H   0  0  0  0  0  0  0  0  0  0  0  0
   13.3763    9.4990    2.9348 H   0  0  0  0  0  0  0  0  0  0  0  0
   14.0631   10.9839    2.1930 H   0  0  0  0  0  0  0  0  0  0  0  0
   13.1263   10.9734    5.0947 H   0  0  0  0  0  0  0  0  0  0  0  0
   14.2968   12.0713    4.2875 H   0  0  0  0  0  0  0  0  0  0  0  0
   14.5213    9.5984    6.6816 H   0  0  0  0  0  0  0  0  0  0  0  0
   17.4073    9.8677    5.9907 H   0  0  0  0  0  0  0  0  0  0  0  0
   18.2829   11.5856    8.7949 H   0  0  0  0  0  0  0  0  0  0  0  0
   18.2836    9.8559    9.2795 H   0  0  0  0  0  0  0  0  0  0  0  0
   18.7348   11.6020    5.9407 H   0  0  0  0  0  0  0  0  0  0  0  0
   17.6536   10.3294    6.0092 H   0  0  0  0  0  0  0  0  0  0  0  0
   10.8972   12.8877   -0.0441 H   0  0  0  0  0  0  0  0  0  0  0  0
    6.9112   13.1401    1.1324 H   0  0  0  0  0  0  0  0  0  0  0  0
  1  5  1  0  0  0  0
  1  2  1  0  0  0  0
  1 23  1  0  0  0  0
  1 24  1  0  0  0  0
  2 22  1  0  0  0  0
  2  3  1  0  0  0  0
  2 25  1  0  0  0  0
  3  4  1  0  0  0  0
  3 19  1  0  0  0  0
  3 26  1  0  0  0  0
  4  5  1  0  0  0  0
  4  6  1  0  0  0  0
  4 27  1  0  0  0  0
  6  7  1  0  0  0  0
  6 28  1  0  0  0  0
  6 29  1  0  0  0  0
  7  8  1  0  0  0  0
  7 30  1  0  0  0  0
  7 31  1  0  0  0  0
  8  9  1  0  0  0  0
  8 32  1  0  0  0  0
  8 33  1  0  0  0  0
  9 10  1  0  0  0  0
  9 34  1  0  0  0  0
  9 35  1  0  0  0  0
 10 11  2  0  0  0  0
 10 12  1  0  0  0  0
 12 13  1  0  0  0  0
 12 36  1  0  0  0  0
 13 14  1  0  0  0  0
 13 37  1  0  0  0  0
 14 15  2  0  0  0  0
 14 16  1  0  0  0  0
 16 17  1  0  0  0  0
 16 38  1  0  0  0  0
 16 39  1  0  0  0  0
 17 18  1  0  0  0  0
 18 40  1  0  0  0  0
 18 41  1  0  0  0  0
 19 20  1  0  0  0  0
 19 42  1  0  0  0  0
 20 21  2  0  0  0  0
 20 22  1  0  0  0  0
 22 43  1  0  0  0  0
M  END
> <Name>
ZINC05192440

> <reference>
BDB5013

> <quality>
0.720

> <status>
decoy

> <atoms in reference ligand area>
19

> <score>
-32.8596

$$$$
ZINC20306535
      BALL 1.4.0 (Jan  4 2012, 23:22:29)

 33 33  0999  0  0  0  0  0  0999 V2000
    5.3417    8.0991    2.2392 C   0  0  0  0  0  0  0  0  0  0  0  0
    5.7312    9.4022    2.7477 O   0  0  0  0  0  0  0  0  0  0  0  0
    6.0992   10.3277    1.8406 C   0  0  0  0  0  0  0  0  0  0  0  0
    5.2695   10.8150    1.0993 O   0  0  0  0  0  0  0  0  0  0  0  0
    7.5118   10.7498    1.7474 C   0  0  0  0  0  0  0  0  0  0  0  0
    8.2068   11.1318    2.8966 C   0  0  0  0  0  0  0  0  0  0  0  0
    9.5258   11.5245    2.8024 C   0  0  0  0  0  0  0  0  0  0  0  0
   10.1602   11.5402    1.5729 C   0  0  0  0  0  0  0  0  0  0  0  0
    9.4758   11.1679    0.4294 C   0  0  0  0  0  0  0  0  0  0  0  0
    8.1581   10.7680    0.5098 C   0  0  0  0  0  0  0  0  0  0  0  0
   11.6013   11.9708    1.4778 C   0  0  0  0  0  0  0  0  0  0  0  0
   12.1266   12.6787    3.0632 S   0  0  0  0  0  0  0  0  0  0  0  0
   13.6777   11.8154    3.4368 C   0  0  0  0  0  0  0  0  0  0  0  0
   14.1068   12.1351    4.8701 C   0  0  0  0  0  0  0  0  0  0  0  0
   14.8732   10.9679    5.4371 C   0  0  0  0  0  0  0  0  0  0  0  0
   15.0573    9.9817    4.7638 O   0  0  0  0  0  0  0  0  0  0  0  0
   15.3514   11.0240    6.6901 O   0  5  0  0  0  0  0  0  0  0  0  0
   14.9623   13.3293    4.8704 N   0  3  0  0  0  0  0  0  0  0  0  0
    4.2892    8.1883    1.9319 H   0  0  0  0  0  0  0  0  0  0  0  0
    5.3871    7.4071    3.0930 H   0  0  0  0  0  0  0  0  0  0  0  0
    5.9789    7.7605    1.4089 H   0  0  0  0  0  0  0  0  0  0  0  0
    7.7038   11.1197    3.8747 H   0  0  0  0  0  0  0  0  0  0  0  0
   10.0746   11.8258    3.7069 H   0  0  0  0  0  0  0  0  0  0  0  0
    9.9838   11.1909   -0.5461 H   0  0  0  0  0  0  0  0  0  0  0  0
    7.6178   10.4643   -0.3990 H   0  0  0  0  0  0  0  0  0  0  0  0
   12.2295   11.0998    1.2397 H   0  0  0  0  0  0  0  0  0  0  0  0
   11.7077   12.7272    0.6862 H   0  0  0  0  0  0  0  0  0  0  0  0
   13.5280   10.7306    3.3328 H   0  0  0  0  0  0  0  0  0  0  0  0
   14.4602   12.1463    2.7381 H   0  0  0  0  0  0  0  0  0  0  0  0
   13.2153   12.3226    5.4865 H   0  0  0  0  0  0  0  0  0  0  0  0
   15.2518   13.5451    5.8350 H   0  0  0  0  0  0  0  0  0  0  0  0
   14.4393   14.1275    4.4827 H   0  0  0  0  0  0  0  0  0  0  0  0
   15.7973   13.1544    4.2933 H   0  0  0  0  0  0  0  0  0  0  0  0
  1  2  1  0  0  0  0
  1 19  1  0  0  0  0
  1 20  1  0  0  0  0
  1 21  1  0  0  0  0
  2  3  1  0  0  0  0
  3  4  2  0  0  0  0
  3  5  1  0  0  0  0
  5 10  2  0  0  0  0
  5  6  1  0  0  0  0
  6  7  2  0  0  0  0
  6 22  1  0  0  0  0
  7  8  1  0  0  0  0
  7 23  1  0  0  0  0
  8  9  2  0  0  0  0
  8 11  1  0  0  0  0
  9 10  1  0  0  0  0
  9 24  1  0  0  0  0
 10 25  1  0  0  0  0
 11 12  1  0  0  0  0
 11 26  1  0  0  0  0
 11 27  1  0  0  0  0
 12 13  1  0  0  0  0
 13 14  1  0  0  0  0
 13 28  1  0  0  0  0
 13 29  1  0  0  0  0
 14 15  1  0  0  0  0
 14 18  1  0  0  0  0
 14 30  1  0  0  0  0
 15 16  2  0  0  0  0
 15 17  1  0  0  0  0
 18 31  1  0  0  0  0
 18 32  1  0  0  0  0
 18 33  1  0  0  0  0
M  END
> <Name>
ZINC20306535

> <reference>
BDB4995

> <quality>
0.764

> <status>
decoy

> <atoms in reference ligand area>
15

> <score>
-32.8529

$$$$
ZINC01591785
      BALL 1.4.0 (Jan  4 2012, 23:22:29)

 37 37  0999  0  0  0  0  0  0999 V2000
    9.0889   13.6321   -3.2182 C   0  0  0  0  0  0  0  0  0  0  0  0
    9.2675   14.9397   -3.6035 N   0  0  0  0  0  0  0  0  0  0  0  0
    9.0094   13.3135   -1.8831 N   0  0  0  0  0  0  0  0  0  0  0  0
    9.4733   12.0057   -1.4134 C   0  0  0  0  0  0  0  0  0  0  0  0
    9.0570   11.8109    0.0459 C   0  0  0  0  0  0  0  0  0  0  0  0
    7.6779   11.1503    0.0991 C   0  0  0  0  0  0  0  0  0  0  0  0
    7.2618   10.9555    1.5585 C   0  0  0  0  0  0  0  0  0  0  0  0
    5.8546   10.4188    1.6121 C   0  0  0  0  0  0  0  0  0  0  0  0
    5.5141    9.7065    2.5268 O   0  0  0  0  0  0  0  0  0  0  0  0
    8.1717   10.0054    2.2032 N   0  0  0  0  0  0  0  0  0  0  0  0
    8.2670    9.9747    3.4925 C   0  0  0  0  0  0  0  0  0  0  0  0
    9.1838    9.0173    4.1422 C   0  0  0  0  0  0  0  0  0  0  0  0
    9.4526    9.1206    5.5085 C   0  0  0  0  0  0  0  0  0  0  0  0
   10.3062    8.2193    6.1103 C   0  0  0  0  0  0  0  0  0  0  0  0
   10.9043    7.2217    5.3608 C   0  0  0  0  0  0  0  0  0  0  0  0
   10.6465    7.1169    4.0056 C   0  0  0  0  0  0  0  0  0  0  0  0
    9.7905    8.0080    3.3921 C   0  0  0  0  0  0  0  0  0  0  0  0
    8.9859   12.6337   -4.0835 N   0  3  0  0  0  0  0  0  0  0  0  0
    4.9794   10.7321    0.6437 O   0  5  0  0  0  0  0  0  0  0  0  0
    9.7703   15.1554   -4.4762 H   0  0  0  0  0  0  0  0  0  0  0  0
    8.8985   15.7037   -3.0194 H   0  0  0  0  0  0  0  0  0  0  0  0
    8.6236   13.9942   -1.2133 H   0  0  0  0  0  0  0  0  0  0  0  0
    9.0246   11.2137   -2.0310 H   0  0  0  0  0  0  0  0  0  0  0  0
   10.5694   11.9546   -1.4911 H   0  0  0  0  0  0  0  0  0  0  0  0
    9.7908   11.1679    0.5540 H   0  0  0  0  0  0  0  0  0  0  0  0
    9.0145   12.7877    0.5498 H   0  0  0  0  0  0  0  0  0  0  0  0
    7.7187   10.1727   -0.4034 H   0  0  0  0  0  0  0  0  0  0  0  0
    6.9435   11.7931   -0.4083 H   0  0  0  0  0  0  0  0  0  0  0  0
    7.3065   11.9205    2.0845 H   0  0  0  0  0  0  0  0  0  0  0  0
    7.6650   10.6620    4.1050 H   0  0  0  0  0  0  0  0  0  0  0  0
    8.9848    9.9187    6.1036 H   0  0  0  0  0  0  0  0  0  0  0  0
   10.5118    8.2939    7.1883 H   0  0  0  0  0  0  0  0  0  0  0  0
   11.5879    6.5085    5.8448 H   0  0  0  0  0  0  0  0  0  0  0  0
   11.1251    6.3212    3.4159 H   0  0  0  0  0  0  0  0  0  0  0  0
    9.5864    7.9235    2.3145 H   0  0  0  0  0  0  0  0  0  0  0  0
    9.0437   12.8588   -5.0869 H   0  0  0  0  0  0  0  0  0  0  0  0
    8.8523   11.6614   -3.7708 H   0  0  0  0  0  0  0  0  0  0  0  0
  1  2  1  0  0  0  0
  1  3  1  0  0  0  0
  1 18  2  0  0  0  0
  2 20  1  0  0  0  0
  2 21  1  0  0  0  0
  3  4  1  0  0  0  0
  3 22  1  0  0  0  0
  4  5  1  0  0  0  0
  4 23  1  0  0  0  0
  4 24  1  0  0  0  0
  5  6  1  0  0  0  0
  5 25  1  0  0  0  0
  5 26  1  0  0  0  0
  6  7  1  0  0  0  0
  6 27  1  0  0  0  0
  6 28  1  0  0  0  0
  7  8  1  0  0  0  0
  7 10  1  0  0  0  0
  7 29  1  0  0  0  0
  8  9  2  0  0  0  0
  8 19  1  0  0  0  0
 10 11  2  0  0  0  0
 11 12  1  0  0  0  0
 11 30  1  0  0  0  0
 12 17  2  0  0  0  0
 12 13  1  0  0  0  0
 13 14  2  0  0  0  0
 13 31  1  0  0  0  0
 14 15  1  0  0  0  0
 14 32  1  0  0  0  0
 15 16  2  0  0  0  0
 15 33  1  0  0  0  0
 16 17  1  0  0  0  0
 16 34  1  0  0  0  0
 17 35  1  0  0  0  0
 18 36  1  0  0  0  0
 18 37  1  0  0  0  0
M  END
> <Name>
ZINC01591785

> <reference>
BDB4986

> <quality>
0.745

> <status>
decoy

> <atoms in reference ligand area>
18

> <score>
-32.8228

$$$$
ZINC28090587
      BALL 1.4.0 (Jan  4 2012, 23:22:29)

 52 52  0999  0  0  0  0  0  0999 V2000
    9.5212   16.6019    2.8788 C   0  0  0  0  0  0  0  0  0  0  0  0
   10.2225   15.5972    1.9623 C   0  0  0  0  0  0  0  0  0  0  0  0
    9.9674   14.1775    2.4719 C   0  0  0  0  0  0  0  0  0  0  0  0
   10.1644   14.1369    3.9886 C   0  0  0  0  0  0  0  0  0  0  0  0
    8.5340   13.7636    2.1326 C   0  0  0  0  0  0  0  0  0  0  0  0
    8.3569   12.2929    2.4096 C   0  0  0  0  0  0  0  0  0  0  0  0
    9.2156   11.6817    3.0001 O   0  0  0  0  0  0  0  0  0  0  0  0
    7.2450   11.6619    2.0004 O   0  0  0  0  0  0  0  0  0  0  0  0
    7.2351   10.2133    2.0987 C   0  0  0  0  0  0  0  0  0  0  0  0
    5.8213    9.6937    1.8295 C   0  0  0  0  0  0  0  0  0  0  0  0
    5.7653    9.1021    0.4904 N   0  0  0  0  0  0  0  0  0  0  0  0
    6.4848    7.9973    0.2111 C   0  0  0  0  0  0  0  0  0  0  0  0
    7.3134    7.5974    1.0014 O   0  0  0  0  0  0  0  0  0  0  0  0
    6.2643    7.2624   -1.0860 C   0  0  0  0  0  0  0  0  0  0  0  0
    7.3477    6.2311   -1.2694 C   0  0  0  0  0  0  0  0  0  0  0  0
    7.1728    4.9517   -0.7755 C   0  0  0  0  0  0  0  0  0  0  0  0
    8.1613    4.0004   -0.9462 C   0  0  0  0  0  0  0  0  0  0  0  0
    9.3353    4.3315   -1.6035 C   0  0  0  0  0  0  0  0  0  0  0  0
    9.5137    5.6208   -2.0955 C   0  0  0  0  0  0  0  0  0  0  0  0
    8.5166    6.5680   -1.9261 C   0  0  0  0  0  0  0  0  0  0  0  0
   10.6640    5.9505   -2.7417 O   0  0  0  0  0  0  0  0  0  0  0  0
   10.3109    3.3983   -1.7677 O   0  0  0  0  0  0  0  0  0  0  0  0
   10.8378    3.2359   -3.0860 C   0  0  0  0  0  0  0  0  0  0  0  0
    4.9550    9.6911   -0.5104 O   0  0  0  0  0  0  0  0  0  0  0  0
    7.5937   14.5340    2.9573 N   0  3  0  0  0  0  0  0  0  0  0  0
    9.2308   17.4895    2.2975 H   0  0  0  0  0  0  0  0  0  0  0  0
   10.2045   16.9012    3.6874 H   0  0  0  0  0  0  0  0  0  0  0  0
    8.6226   16.1386    3.3123 H   0  0  0  0  0  0  0  0  0  0  0  0
   11.3044   15.7958    1.9585 H   0  0  0  0  0  0  0  0  0  0  0  0
    9.8280   15.6957    0.9402 H   0  0  0  0  0  0  0  0  0  0  0  0
   10.6729   13.4833    1.9918 H   0  0  0  0  0  0  0  0  0  0  0  0
   11.2321   14.2580    4.2241 H   0  0  0  0  0  0  0  0  0  0  0  0
    9.8104   13.1716    4.3797 H   0  0  0  0  0  0  0  0  0  0  0  0
    9.5923   14.9523    4.4553 H   0  0  0  0  0  0  0  0  0  0  0  0
    8.3369   13.9626    1.0689 H   0  0  0  0  0  0  0  0  0  0  0  0
    7.5500    9.9111    3.1084 H   0  0  0  0  0  0  0  0  0  0  0  0
    7.9281    9.7905    1.3564 H   0  0  0  0  0  0  0  0  0  0  0  0
    5.1053   10.5264    1.8919 H   0  0  0  0  0  0  0  0  0  0  0  0
    5.5624    8.9304    2.5781 H   0  0  0  0  0  0  0  0  0  0  0  0
    6.2931    7.9761   -1.9226 H   0  0  0  0  0  0  0  0  0  0  0  0
    5.2841    6.7636   -1.0629 H   0  0  0  0  0  0  0  0  0  0  0  0
    6.2450    4.6901   -0.2456 H   0  0  0  0  0  0  0  0  0  0  0  0
    8.0158    2.9807   -0.5601 H   0  0  0  0  0  0  0  0  0  0  0  0
    8.6551    7.5879   -2.3140 H   0  0  0  0  0  0  0  0  0  0  0  0
   10.3897    6.6066   -3.4305 H   0  0  0  0  0  0  0  0  0  0  0  0
   11.0506    4.2479   -3.4609 H   0  0  0  0  0  0  0  0  0  0  0  0
   10.0240    2.8149   -3.6946 H   0  0  0  0  0  0  0  0  0  0  0  0
   11.7337    2.5981   -3.1106 H   0  0  0  0  0  0  0  0  0  0  0  0
    4.0292    9.6030   -0.1709 H   0  0  0  0  0  0  0  0  0  0  0  0
    7.0840   15.2038    2.3636 H   0  0  0  0  0  0  0  0  0  0  0  0
    8.1132   15.0464    3.6842 H   0  0  0  0  0  0  0  0  0  0  0  0
    6.9227   13.8927    3.4039 H   0  0  0  0  0  0  0  0  0  0  0  0
  1  2  1  0  0  0  0
  1 26  1  0  0  0  0
  1 27  1  0  0  0  0
  1 28  1  0  0  0  0
  2  3  1  0  0  0  0
  2 29  1  0  0  0  0
  2 30  1  0  0  0  0
  3  4  1  0  0  0  0
  3  5  1  0  0  0  0
  3 31  1  0  0  0  0
  4 32  1  0  0  0  0
  4 33  1  0  0  0  0
  4 34  1  0  0  0  0
  5  6  1  0  0  0  0
  5 25  1  0  0  0  0
  5 35  1  0  0  0  0
  6  7  2  0  0  0  0
  6  8  1  0  0  0  0
  8  9  1  0  0  0  0
  9 10  1  0  0  0  0
  9 36  1  0  0  0  0
  9 37  1  0  0  0  0
 10 11  1  0  0  0  0
 10 38  1  0  0  0  0
 10 39  1  0  0  0  0
 11 12  1  0  0  0  0
 11 24  1  0  0  0  0
 12 13  2  0  0  0  0
 12 14  1  0  0  0  0
 14 15  1  0  0  0  0
 14 40  1  0  0  0  0
 14 41  1  0  0  0  0
 15 20  2  0  0  0  0
 15 16  1  0  0  0  0
 16 17  2  0  0  0  0
 16 42  1  0  0  0  0
 17 18  1  0  0  0  0
 17 43  1  0  0  0  0
 18 19  2  0  0  0  0
 18 22  1  0  0  0  0
 19 20  1  0  0  0  0
 19 21  1  0  0  0  0
 20 44  1  0  0  0  0
 21 45  1  0  0  0  0
 22 23  1  0  0  0  0
 23 46  1  0  0  0  0
 23 47  1  0  0  0  0
 23 48  1  0  0  0  0
 24 49  1  0  0  0  0
 25 50  1  0  0  0  0
 25 51  1  0  0  0  0
 25 52  1  0  0  0  0
M  END
> <Name>
ZINC28090587

> <reference>
BDB4997

> <quality>
0.660

> <status>
decoy

> <atoms in reference ligand area>
13

> <score>
-32.7847

$$$$
ZINC32036344
      BALL 1.4.0 (Jan  4 2012, 23:22:29)

 41 43  0999  0  0  0  0  0  0999 V2000
   10.0107    8.6270    2.3392 C   0  0  0  0  0  0  0  0  0  0  0  0
    9.8722    9.8728    2.6870 N   0  0  0  0  0  0  0  0  0  0  0  0
    8.6334   10.3026    2.3420 C   0  0  0  0  0  0  0  0  0  0  0  0
    7.9738    9.2207    1.7355 C   0  0  0  0  0  0  0  0  0  0  0  0
    8.8659    8.1786    1.7475 N   0  0  0  0  0  0  0  0  0  0  0  0
    8.6325    6.8314    1.2210 C   0  0  0  0  0  0  0  0  0  0  0  0
    7.1802    6.7106    0.7551 C   0  0  0  0  0  0  0  0  0  0  0  0
    7.1311    5.9640   -0.4624 O   0  0  0  0  0  0  0  0  0  0  0  0
    5.8103    5.5981   -0.8670 C   0  0  0  0  0  0  0  0  0  0  0  0
    5.0611    6.9688   -1.8068 P   0  0  0  0  0  0  0  0  0  0  0  0
    5.9983    7.4135   -2.8624 O   0  0  0  0  0  0  0  0  0  0  0  0
    3.6887    6.4683   -2.4837 O   0  5  0  0  0  0  0  0  0  0  0  0
    4.7523    8.1962   -0.8116 O   0  0  0  0  0  0  0  0  0  0  0  0
    6.7281    9.3828    1.3010 N   0  0  0  0  0  0  0  0  0  0  0  0
    6.1140   10.5469    1.4364 C   0  0  0  0  0  0  0  0  0  0  0  0
    6.6990   11.5946    2.0028 N   0  0  0  0  0  0  0  0  0  0  0  0
    7.9424   11.5203    2.4646 C   0  0  0  0  0  0  0  0  0  0  0  0
    8.5461   12.6198    3.0487 N   0  0  0  0  0  0  0  0  0  0  0  0
    9.9523   12.7602    2.5915 C   0  0  0  0  0  0  0  0  0  0  0  0
   10.2758   14.2456    2.8910 C   0  0  0  0  0  0  0  0  0  0  0  0
    8.9481   14.9629    2.5557 C   0  0  0  0  0  0  0  0  0  0  0  0
    7.8659   13.8715    2.6511 C   0  0  0  0  0  0  0  0  0  0  0  0
    4.8160   10.6766    0.9705 N   0  0  0  0  0  0  0  0  0  0  0  0
   10.9169    8.0241    2.4985 H   0  0  0  0  0  0  0  0  0  0  0  0
    9.3061    6.6480    0.3709 H   0  0  0  0  0  0  0  0  0  0  0  0
    8.8267    6.0896    2.0096 H   0  0  0  0  0  0  0  0  0  0  0  0
    6.5896    6.1936    1.5257 H   0  0  0  0  0  0  0  0  0  0  0  0
    6.7635    7.7145    0.5858 H   0  0  0  0  0  0  0  0  0  0  0  0
    5.8565    4.7011   -1.5020 H   0  0  0  0  0  0  0  0  0  0  0  0
    5.1984    5.3869    0.0223 H   0  0  0  0  0  0  0  0  0  0  0  0
    4.4977    8.9942   -1.3393 H   0  0  0  0  0  0  0  0  0  0  0  0
   10.6120   12.1033    3.1773 H   0  0  0  0  0  0  0  0  0  0  0  0
   10.0249   12.5675    1.5109 H   0  0  0  0  0  0  0  0  0  0  0  0
   11.0786   14.6026    2.2293 H   0  0  0  0  0  0  0  0  0  0  0  0
   10.5198   14.3751    3.9557 H   0  0  0  0  0  0  0  0  0  0  0  0
    8.9851   15.3672    1.5333 H   0  0  0  0  0  0  0  0  0  0  0  0
    8.7506   15.7540    3.2941 H   0  0  0  0  0  0  0  0  0  0  0  0
    7.1226   14.1513    3.4121 H   0  0  0  0  0  0  0  0  0  0  0  0
    7.3842   13.7393    1.6710 H   0  0  0  0  0  0  0  0  0  0  0  0
    4.0929    9.9888    1.2256 H   0  0  0  0  0  0  0  0  0  0  0  0
    4.5732   11.4711    0.3617 H   0  0  0  0  0  0  0  0  0  0  0  0
  1  5  1  0  0  0  0
  1  2  2  0  0  0  0
  1 24  1  0  0  0  0
  2  3  1  0  0  0  0
  3 17  2  0  0  0  0
  3  4  1  0  0  0  0
  4  5  1  0  0  0  0
  4 14  2  0  0  0  0
  5  6  1  0  0  0  0
  6  7  1  0  0  0  0
  6 25  1  0  0  0  0
  6 26  1  0  0  0  0
  7  8  1  0  0  0  0
  7 27  1  0  0  0  0
  7 28  1  0  0  0  0
  8  9  1  0  0  0  0
  9 10  1  0  0  0  0
  9 29  1  0  0  0  0
  9 30  1  0  0  0  0
 10 11  2  0  0  0  0
 10 12  1  0  0  0  0
 10 13  1  0  0  0  0
 13 31  1  0  0  0  0
 14 15  1  0  0  0  0
 15 16  2  0  0  0  0
 15 23  1  0  0  0  0
 16 17  1  0  0  0  0
 17 18  1  0  0  0  0
 18 22  1  0  0  0  0
 18 19  1  0  0  0  0
 19 20  1  0  0  0  0
 19 32  1  0  0  0  0
 19 33  1  0  0  0  0
 20 21  1  0  0  0  0
 20 34  1  0  0  0  0
 20 35  1  0  0  0  0
 21 22  1  0  0  0  0
 21 36  1  0  0  0  0
 21 37  1  0  0  0  0
 22 38  1  0  0  0  0
 22 39  1  0  0  0  0
 23 40  1  0  0  0  0
 23 41  1  0  0  0  0
M  END
> <Name>
ZINC32036344

> <reference>
BDB4942

> <quality>
0.650

> <status>
decoy

> <atoms in reference ligand area>
15

> <score>
-32.7778

$$$$
ZINC29823259
      BALL 1.4.0 (Jan  4 2012, 23:22:29)

 42 43  0999  0  0  0  0  0  0999 V2000
    9.3217   15.4945    1.3693 C   0  0  0  0  0  0  0  0  0  0  0  0
    9.6111   15.3223   -0.0564 N   0  0  0  0  0  0  0  0  0  0  0  0
   10.4660   16.0729   -0.8052 C   0  0  0  0  0  0  0  0  0  0  0  0
   10.4548   15.6227   -2.0289 N   0  0  0  0  0  0  0  0  0  0  0  0
    9.6119   14.5813   -2.1132 C   0  0  0  0  0  0  0  0  0  0  0  0
    9.0749   14.3742   -0.8874 C   0  0  0  0  0  0  0  0  0  0  0  0
    8.1495   13.3891   -0.5393 N   0  0  0  0  0  0  0  0  0  0  0  0
    7.9097   12.4716   -1.6621 C   0  0  0  0  0  0  0  0  0  0  0  0
    6.8335   11.4573   -1.2676 C   0  0  0  0  0  0  0  0  0  0  0  0
    7.2721   10.7209   -0.0739 N   0  0  0  0  0  0  0  0  0  0  0  0
    7.5119   11.6384    1.0487 C   0  0  0  0  0  0  0  0  0  0  0  0
    8.5881   12.6526    0.6543 C   0  0  0  0  0  0  0  0  0  0  0  0
    6.2981    9.6840    0.2924 C   0  0  0  0  0  0  0  0  0  0  0  0
    5.8868    8.9058   -0.9591 C   0  0  0  0  0  0  0  0  0  0  0  0
    4.8876    7.8421   -0.5834 C   0  0  0  0  0  0  0  0  0  0  0  0
    5.0305    7.2113    0.4420 O   0  0  0  0  0  0  0  0  0  0  0  0
    3.8350    7.5921   -1.3872 N   0  0  0  0  0  0  0  0  0  0  0  0
    2.9415    6.6407   -1.0512 C   0  0  0  0  0  0  0  0  0  0  0  0
    3.3248    5.5316   -0.7350 O   0  0  0  0  0  0  0  0  0  0  0  0
    1.6230    6.9194   -1.0657 N   0  0  0  0  0  0  0  0  0  0  0  0
    9.3208   13.7952   -3.3340 N   0  0  0  0  0  0  0  0  0  0  0  0
    9.9479   12.7773   -3.5667 O   0  0  0  0  0  0  0  0  0  0  0  0
    8.4546   14.1667   -4.1054 O   0  0  0  0  0  0  0  0  0  0  0  0
    8.5235   14.7566    1.5373 H   0  0  0  0  0  0  0  0  0  0  0  0
    8.8275   16.4770    1.3913 H   0  0  0  0  0  0  0  0  0  0  0  0
   10.1703   15.4035    2.0633 H   0  0  0  0  0  0  0  0  0  0  0  0
   11.0664   16.9185   -0.4385 H   0  0  0  0  0  0  0  0  0  0  0  0
    7.5703   13.0441   -2.5379 H   0  0  0  0  0  0  0  0  0  0  0  0
    8.8409   11.9403   -1.9086 H   0  0  0  0  0  0  0  0  0  0  0  0
    6.6727   10.7508   -2.0952 H   0  0  0  0  0  0  0  0  0  0  0  0
    5.8942   11.9857   -1.0477 H   0  0  0  0  0  0  0  0  0  0  0  0
    7.8511   11.0668    1.9252 H   0  0  0  0  0  0  0  0  0  0  0  0
    6.5804   12.1694    1.2943 H   0  0  0  0  0  0  0  0  0  0  0  0
    8.7483   13.3575    1.4835 H   0  0  0  0  0  0  0  0  0  0  0  0
    9.5272   12.1237    0.4349 H   0  0  0  0  0  0  0  0  0  0  0  0
    6.7521    8.9946    1.0195 H   0  0  0  0  0  0  0  0  0  0  0  0
    5.4099   10.1550    0.7388 H   0  0  0  0  0  0  0  0  0  0  0  0
    6.7737    8.4332   -1.4062 H   0  0  0  0  0  0  0  0  0  0  0  0
    5.4323    9.5946   -1.6864 H   0  0  0  0  0  0  0  0  0  0  0  0
    3.7135    8.1282   -2.2583 H   0  0  0  0  0  0  0  0  0  0  0  0
    0.9529    6.2212   -1.4182 H   0  0  0  0  0  0  0  0  0  0  0  0
    1.2854    7.8306   -0.7242 H   0  0  0  0  0  0  0  0  0  0  0  0
  1  2  1  0  0  0  0
  1 24  1  0  0  0  0
  1 25  1  0  0  0  0
  1 26  1  0  0  0  0
  2  6  1  0  0  0  0
  2  3  1  0  0  0  0
  3  4  2  0  0  0  0
  3 27  1  0  0  0  0
  4  5  1  0  0  0  0
  5  6  2  0  0  0  0
  5 21  1  0  0  0  0
  6  7  1  0  0  0  0
  7 12  1  0  0  0  0
  7  8  1  0  0  0  0
  8  9  1  0  0  0  0
  8 28  1  0  0  0  0
  8 29  1  0  0  0  0
  9 10  1  0  0  0  0
  9 30  1  0  0  0  0
  9 31  1  0  0  0  0
 10 11  1  0  0  0  0
 10 13  1  0  0  0  0
 11 12  1  0  0  0  0
 11 32  1  0  0  0  0
 11 33  1  0  0  0  0
 12 34  1  0  0  0  0
 12 35  1  0  0  0  0
 13 14  1  0  0  0  0
 13 36  1  0  0  0  0
 13 37  1  0  0  0  0
 14 15  1  0  0  0  0
 14 38  1  0  0  0  0
 14 39  1  0  0  0  0
 15 16  2  0  0  0  0
 15 17  1  0  0  0  0
 17 18  1  0  0  0  0
 17 40  1  0  0  0  0
 18 19  2  0  0  0  0
 18 20  1  0  0  0  0
 20 41  1  0  0  0  0
 20 42  1  0  0  0  0
 21 22  2  0  0  0  0
 21 23  2  0  0  0  0
M  END
> <Name>
ZINC29823259

> <reference>
BDB4932

> <quality>
0.687

> <status>
decoy

> <atoms in reference ligand area>
20

> <score>
-32.6075

$$$$
ZINC02441083
      BALL 1.4.0 (Jan  4 2012, 23:22:29)

 61 64  0999  0  0  0  0  0  0999 V2000
   16.3894   10.4747    8.9760 C   0  0  0  0  0  0  0  0  0  0  0  0
   15.6861    9.1218    8.8490 C   0  0  0  0  0  0  0  0  0  0  0  0
   15.6363    8.7158    7.3986 C   0  0  0  0  0  0  0  0  0  0  0  0
   15.8536    7.3975    7.0431 C   0  0  0  0  0  0  0  0  0  0  0  0
   15.8085    7.0227    5.7142 C   0  0  0  0  0  0  0  0  0  0  0  0
   15.5447    7.9704    4.7361 C   0  0  0  0  0  0  0  0  0  0  0  0
   15.3327    9.2936    5.0948 C   0  0  0  0  0  0  0  0  0  0  0  0
   15.3737    9.6624    6.4255 C   0  0  0  0  0  0  0  0  0  0  0  0
   15.4998    7.6042    3.4281 O   0  0  0  0  0  0  0  0  0  0  0  0
   15.2231    8.6329    2.4755 C   0  0  0  0  0  0  0  0  0  0  0  0
   13.7407    8.9016    2.4427 C   0  0  0  0  0  0  0  0  0  0  0  0
   12.8957    7.9967    2.9002 C   0  0  0  0  0  0  0  0  0  0  0  0
   13.2634   10.1016    1.9309 N   0  3  0  0  0  0  0  0  0  0  0  0
   11.8911   10.2705    1.7051 N   0  0  0  0  0  0  0  0  0  0  0  0
   11.4365   11.3728    1.0098 C   0  0  0  0  0  0  0  0  0  0  0  0
   12.1965   12.3197    0.5183 N   0  0  0  0  0  0  0  0  0  0  0  0
   11.4202   13.2444   -0.1008 C   0  0  0  0  0  0  0  0  0  0  0  0
   11.6741   14.4427   -0.7877 C   0  0  0  0  0  0  0  0  0  0  0  0
   10.6434   15.1200   -1.2830 N   0  0  0  0  0  0  0  0  0  0  0  0
    9.4056   14.6836   -1.1375 C   0  0  0  0  0  0  0  0  0  0  0  0
    9.1209   13.5662   -0.5018 N   0  0  0  0  0  0  0  0  0  0  0  0
   10.0869   12.8229    0.0268 C   0  0  0  0  0  0  0  0  0  0  0  0
   10.1248   11.6410    0.7306 N   0  0  0  0  0  0  0  0  0  0  0  0
    8.9720   10.8211    1.1113 C   0  0  0  0  0  0  0  0  0  0  0  0
    8.2687   11.4140    2.3588 C   0  0  0  0  0  0  0  0  0  0  0  0
    7.5668   10.1705    2.9570 C   0  0  0  0  0  0  0  0  0  0  0  0
    8.3404    8.9777    2.3624 C   0  0  0  0  0  0  0  0  0  0  0  0
    9.4009    9.5158    1.5549 O   0  0  0  0  0  0  0  0  0  0  0  0
    8.9262    8.1239    3.4889 C   0  0  0  0  0  0  0  0  0  0  0  0
    8.6615    8.7483    4.7467 O   0  0  0  0  0  0  0  0  0  0  0  0
    6.1955   10.1264    2.5577 O   0  0  0  0  0  0  0  0  0  0  0  0
    7.3128   12.4070    1.9816 O   0  0  0  0  0  0  0  0  0  0  0  0
   12.9696   14.9084   -0.9454 N   0  0  0  0  0  0  0  0  0  0  0  0
   16.7461   10.6082   10.0079 H   0  0  0  0  0  0  0  0  0  0  0  0
   15.6841   11.2807    8.7253 H   0  0  0  0  0  0  0  0  0  0  0  0
   17.2452   10.5100    8.2859 H   0  0  0  0  0  0  0  0  0  0  0  0
   16.2411    8.3647    9.4222 H   0  0  0  0  0  0  0  0  0  0  0  0
   14.6619    9.2015    9.2420 H   0  0  0  0  0  0  0  0  0  0  0  0
   16.0626    6.6464    7.8191 H   0  0  0  0  0  0  0  0  0  0  0  0
   15.9815    5.9737    5.4320 H   0  0  0  0  0  0  0  0  0  0  0  0
   15.1320   10.0485    4.3204 H   0  0  0  0  0  0  0  0  0  0  0  0
   15.1973   10.7099    6.7112 H   0  0  0  0  0  0  0  0  0  0  0  0
   15.5588    8.3110    1.4786 H   0  0  0  0  0  0  0  0  0  0  0  0
   15.7554    9.5516    2.7627 H   0  0  0  0  0  0  0  0  0  0  0  0
   13.2735    7.0465    3.3055 H   0  0  0  0  0  0  0  0  0  0  0  0
   11.8136    8.1929    2.8762 H   0  0  0  0  0  0  0  0  0  0  0  0
   13.5720   10.8554    2.5613 H   0  0  0  0  0  0  0  0  0  0  0  0
   13.7510   10.2793    1.0411 H   0  0  0  0  0  0  0  0  0  0  0  0
   11.2214    9.5721    2.0581 H   0  0  0  0  0  0  0  0  0  0  0  0
    8.5818   15.2755   -1.5630 H   0  0  0  0  0  0  0  0  0  0  0  0
    8.3184   10.7815    0.2275 H   0  0  0  0  0  0  0  0  0  0  0  0
    8.9534   11.9167    3.0577 H   0  0  0  0  0  0  0  0  0  0  0  0
    7.5714   10.1723    4.0570 H   0  0  0  0  0  0  0  0  0  0  0  0
    7.6748    8.3424    1.7596 H   0  0  0  0  0  0  0  0  0  0  0  0
   10.0131    8.0272    3.3499 H   0  0  0  0  0  0  0  0  0  0  0  0
    8.4640    7.1259    3.4711 H   0  0  0  0  0  0  0  0  0  0  0  0
    7.7960    8.4242    5.1013 H   0  0  0  0  0  0  0  0  0  0  0  0
    5.7020   10.8503    3.0186 H   0  0  0  0  0  0  0  0  0  0  0  0
    6.5761   12.4098    2.6428 H   0  0  0  0  0  0  0  0  0  0  0  0
   13.5660   14.5060   -1.6825 H   0  0  0  0  0  0  0  0  0  0  0  0
   13.3348   15.6505   -0.3316 H   0  0  0  0  0  0  0  0  0  0  0  0
  1  2  1  0  0  0  0
  1 34  1  0  0  0  0
  1 35  1  0  0  0  0
  1 36  1  0  0  0  0
  2  3  1  0  0  0  0
  2 37  1  0  0  0  0
  2 38  1  0  0  0  0
  3  8  2  0  0  0  0
  3  4  1  0  0  0  0
  4  5  2  0  0  0  0
  4 39  1  0  0  0  0
  5  6  1  0  0  0  0
  5 40  1  0  0  0  0
  6  7  2  0  0  0  0
  6  9  1  0  0  0  0
  7  8  1  0  0  0  0
  7 41  1  0  0  0  0
  8 42  1  0  0  0  0
  9 10  1  0  0  0  0
 10 11  1  0  0  0  0
 10 43  1  0  0  0  0
 10 44  1  0  0  0  0
 11 12  2  0  0  0  0
 11 13  1  0  0  0  0
 12 45  1  0  0  0  0
 12 46  1  0  0  0  0
 13 14  1  0  0  0  0
 13 47  1  0  0  0  0
 13 48  1  0  0  0  0
 14 15  1  0  0  0  0
 14 49  1  0  0  0  0
 15 23  1  0  0  0  0
 15 16  2  0  0  0  0
 16 17  1  0  0  0  0
 17 22  1  0  0  0  0
 17 18  2  0  0  0  0
 18 19  1  0  0  0  0
 18 33  1  0  0  0  0
 19 20  2  0  0  0  0
 20 21  1  0  0  0  0
 20 50  1  0  0  0  0
 21 22  2  0  0  0  0
 22 23  1  0  0  0  0
 23 24  1  0  0  0  0
 24 28  1  0  0  0  0
 24 25  1  0  0  0  0
 24 51  1  0  0  0  0
 25 26  1  0  0  0  0
 25 32  1  0  0  0  0
 25 52  1  0  0  0  0
 26 27  1  0  0  0  0
 26 31  1  0  0  0  0
 26 53  1  0  0  0  0
 27 28  1  0  0  0  0
 27 29  1  0  0  0  0
 27 54  1  0  0  0  0
 29 30  1  0  0  0  0
 29 55  1  0  0  0  0
 29 56  1  0  0  0  0
 30 57  1  0  0  0  0
 31 58  1  0  0  0  0
 32 59  1  0  0  0  0
 33 60  1  0  0  0  0
 33 61  1  0  0  0  0
M  END
> <Name>
ZINC02441083

> <reference>
BDB4972

> <quality>
0.685

> <status>
decoy

> <atoms in reference ligand area>
15

> <score>
-32.5715

$$$$
ZINC30924904
      BALL 1.4.0 (Jan  4 2012, 23:22:29)

 52 53  0999  0  0  0  0  0  0999 V2000
    4.2163    6.8518   -1.5151 C   0  0  0  0  0  0  0  0  0  0  0  0
    3.4220    6.1442   -0.4477 C   0  0  0  0  0  0  0  0  0  0  0  0
    4.0380    5.7506    0.7255 C   0  0  0  0  0  0  0  0  0  0  0  0
    3.3094    5.1016    1.7047 C   0  0  0  0  0  0  0  0  0  0  0  0
    1.9646    4.8470    1.5110 C   0  0  0  0  0  0  0  0  0  0  0  0
    1.3497    5.2362    0.3358 C   0  0  0  0  0  0  0  0  0  0  0  0
    2.0773    5.8892   -0.6416 C   0  0  0  0  0  0  0  0  0  0  0  0
    1.0359    4.0196    2.7591 S   0  0  0  0  0  0  0  0  0  0  0  0
    1.9199    3.0946    3.3770 O   0  0  0  0  0  0  0  0  0  0  0  0
   -0.1871    3.6188    2.1567 O   0  0  0  0  0  0  0  0  0  0  0  0
    0.6498    5.1463    3.9098 N   0  0  0  0  0  0  0  0  0  0  0  0
    0.7890    6.5741    3.6127 C   0  0  0  0  0  0  0  0  0  0  0  0
    1.8542    7.1697    4.4969 C   0  0  0  0  0  0  0  0  0  0  0  0
    1.6960    8.2711    4.9790 O   0  0  0  0  0  0  0  0  0  0  0  0
    2.9826    6.4781    4.7516 N   0  0  0  0  0  0  0  0  0  0  0  0
    4.0181    7.0570    5.6110 C   0  0  0  0  0  0  0  0  0  0  0  0
    4.8424    8.0357    4.8148 C   0  0  0  0  0  0  0  0  0  0  0  0
    5.1995    9.0793    5.3194 O   0  0  0  0  0  0  0  0  0  0  0  0
    5.1829    7.7513    3.5422 N   0  0  0  0  0  0  0  0  0  0  0  0
    5.8646    8.6997    2.7717 C   0  0  0  0  0  0  0  0  0  0  0  0
    5.4722    8.9437    1.4616 C   0  0  0  0  0  0  0  0  0  0  0  0
    6.1418    9.8838    0.7028 C   0  0  0  0  0  0  0  0  0  0  0  0
    7.2101   10.5762    1.2409 C   0  0  0  0  0  0  0  0  0  0  0  0
    7.6101   10.3325    2.5471 C   0  0  0  0  0  0  0  0  0  0  0  0
    6.9372    9.3937    3.3134 C   0  0  0  0  0  0  0  0  0  0  0  0
    8.6613   11.0135    3.0745 O   0  0  0  0  0  0  0  0  0  0  0  0
    9.3078   11.9659    2.2278 C   0  0  0  0  0  0  0  0  0  0  0  0
   10.0833   12.9439    3.0723 C   0  0  0  0  0  0  0  0  0  0  0  0
   11.2398   12.7152    3.3573 O   0  0  0  0  0  0  0  0  0  0  0  0
    9.4917   14.0726    3.5111 N   0  0  0  0  0  0  0  0  0  0  0  0
    5.0681    7.3032   -0.9855 H   0  0  0  0  0  0  0  0  0  0  0  0
    3.5703    7.6754   -1.8534 H   0  0  0  0  0  0  0  0  0  0  0  0
    4.5326    6.1981   -2.3414 H   0  0  0  0  0  0  0  0  0  0  0  0
    5.1080    5.9539    0.8800 H   0  0  0  0  0  0  0  0  0  0  0  0
    3.7998    4.7876    2.6379 H   0  0  0  0  0  0  0  0  0  0  0  0
    0.2814    5.0265    0.1783 H   0  0  0  0  0  0  0  0  0  0  0  0
    1.5862    6.2059   -1.5736 H   0  0  0  0  0  0  0  0  0  0  0  0
    0.3118    4.8432    4.8342 H   0  0  0  0  0  0  0  0  0  0  0  0
   -0.1681    7.0835    3.7989 H   0  0  0  0  0  0  0  0  0  0  0  0
    1.0740    6.7033    2.5581 H   0  0  0  0  0  0  0  0  0  0  0  0
    3.1170    5.5427    4.3420 H   0  0  0  0  0  0  0  0  0  0  0  0
    4.6687    6.2566    5.9933 H   0  0  0  0  0  0  0  0  0  0  0  0
    3.5444    7.5791    6.4554 H   0  0  0  0  0  0  0  0  0  0  0  0
    4.9412    6.8359    3.1367 H   0  0  0  0  0  0  0  0  0  0  0  0
    4.6276    8.3880    1.0283 H   0  0  0  0  0  0  0  0  0  0  0  0
    5.8242   10.0817   -0.3316 H   0  0  0  0  0  0  0  0  0  0  0  0
    7.7439   11.3215    0.6329 H   0  0  0  0  0  0  0  0  0  0  0  0
    7.2528    9.1991    4.3491 H   0  0  0  0  0  0  0  0  0  0  0  0
    8.5524   12.5083    1.6403 H   0  0  0  0  0  0  0  0  0  0  0  0
    9.9963   11.4436    1.5471 H   0  0  0  0  0  0  0  0  0  0  0  0
    9.6741   14.4118    4.4664 H   0  0  0  0  0  0  0  0  0  0  0  0
    8.8573   14.5961    2.8910 H   0  0  0  0  0  0  0  0  0  0  0  0
  1  2  1  0  0  0  0
  1 31  1  0  0  0  0
  1 32  1  0  0  0  0
  1 33  1  0  0  0  0
  2  7  2  0  0  0  0
  2  3  1  0  0  0  0
  3  4  2  0  0  0  0
  3 34  1  0  0  0  0
  4  5  1  0  0  0  0
  4 35  1  0  0  0  0
  5  6  2  0  0  0  0
  5  8  1  0  0  0  0
  6  7  1  0  0  0  0
  6 36  1  0  0  0  0
  7 37  1  0  0  0  0
  8  9  2  0  0  0  0
  8 10  2  0  0  0  0
  8 11  1  0  0  0  0
 11 12  1  0  0  0  0
 11 38  1  0  0  0  0
 12 13  1  0  0  0  0
 12 39  1  0  0  0  0
 12 40  1  0  0  0  0
 13 14  2  0  0  0  0
 13 15  1  0  0  0  0
 15 16  1  0  0  0  0
 15 41  1  0  0  0  0
 16 17  1  0  0  0  0
 16 42  1  0  0  0  0
 16 43  1  0  0  0  0
 17 18  2  0  0  0  0
 17 19  1  0  0  0  0
 19 20  1  0  0  0  0
 19 44  1  0  0  0  0
 20 25  2  0  0  0  0
 20 21  1  0  0  0  0
 21 22  2  0  0  0  0
 21 45  1  0  0  0  0
 22 23  1  0  0  0  0
 22 46  1  0  0  0  0
 23 24  2  0  0  0  0
 23 47  1  0  0  0  0
 24 25  1  0  0  0  0
 24 26  1  0  0  0  0
 25 48  1  0  0  0  0
 26 27  1  0  0  0  0
 27 28  1  0  0  0  0
 27 49  1  0  0  0  0
 27 50  1  0  0  0  0
 28 29  2  0  0  0  0
 28 30  1  0  0  0  0
 30 51  1  0  0  0  0
 30 52  1  0  0  0  0
M  END
> <Name>
ZINC30924904

> <reference>
BDB4946

> <quality>
0.757

> <status>
decoy

> <atoms in reference ligand area>
12

> <score>
-32.512

$$$$
ZINC27654081
      BALL 1.4.0 (Jan  4 2012, 23:22:29)

 38 39  0999  0  0  0  0  0  0999 V2000
    7.3706   11.8252    0.7011 C   0  0  0  0  0  0  0  0  0  0  0  0
    7.9443   12.9835    0.5554 N   0  0  0  0  0  0  0  0  0  0  0  0
    8.7957   13.1989    1.5888 C   0  0  0  0  0  0  0  0  0  0  0  0
    8.7247   12.0713    2.4251 C   0  0  0  0  0  0  0  0  0  0  0  0
    7.8188   11.2229    1.8403 N   0  0  0  0  0  0  0  0  0  0  0  0
    7.4082    9.9107    2.3463 C   0  0  0  0  0  0  0  0  0  0  0  0
    6.0022    9.7442    2.1524 O   0  0  0  0  0  0  0  0  0  0  0  0
    5.4565    8.5990    2.8102 C   0  0  0  0  0  0  0  0  0  0  0  0
    5.2870    7.4628    1.7994 C   0  0  0  0  0  0  0  0  0  0  0  0
    5.3897    7.9944    0.4522 O   0  0  0  0  0  0  0  0  0  0  0  0
    5.4701    7.1045   -0.5495 C   0  0  0  0  0  0  0  0  0  0  0  0
    6.1376    6.1059   -0.4183 O   0  0  0  0  0  0  0  0  0  0  0  0
    4.7277    7.3507   -1.8377 C   0  0  0  0  0  0  0  0  0  0  0  0
    5.6045    6.9322   -3.0196 C   0  0  0  0  0  0  0  0  0  0  0  0
    6.2315    8.1223   -3.6098 N   0  3  0  0  0  0  0  0  0  0  0  0
    9.4721   12.0315    3.5226 N   0  0  0  0  0  0  0  0  0  0  0  0
   10.2680   13.0426    3.8310 C   0  0  0  0  0  0  0  0  0  0  0  0
   10.3647   14.1250    3.0693 N   0  0  0  0  0  0  0  0  0  0  0  0
    9.6567   14.2450    1.9539 C   0  0  0  0  0  0  0  0  0  0  0  0
    9.7631   15.3539    1.1831 O   0  0  0  0  0  0  0  0  0  0  0  0
   11.0258   12.9689    4.9881 N   0  0  0  0  0  0  0  0  0  0  0  0
    6.6327   11.3948    0.0080 H   0  0  0  0  0  0  0  0  0  0  0  0
    7.9488    9.1222    1.8022 H   0  0  0  0  0  0  0  0  0  0  0  0
    7.6404    9.8412    3.4192 H   0  0  0  0  0  0  0  0  0  0  0  0
    4.4773    8.8543    3.2413 H   0  0  0  0  0  0  0  0  0  0  0  0
    6.1375    8.2772    3.6119 H   0  0  0  0  0  0  0  0  0  0  0  0
    6.0741    6.7108    1.9574 H   0  0  0  0  0  0  0  0  0  0  0  0
    4.3006    6.9949    1.9340 H   0  0  0  0  0  0  0  0  0  0  0  0
    3.7988    6.7616   -1.8442 H   0  0  0  0  0  0  0  0  0  0  0  0
    4.4844    8.4200   -1.9233 H   0  0  0  0  0  0  0  0  0  0  0  0
    6.3862    6.2418   -2.6701 H   0  0  0  0  0  0  0  0  0  0  0  0
    4.9848    6.4311   -3.7778 H   0  0  0  0  0  0  0  0  0  0  0  0
    6.3835    7.9679   -4.6167 H   0  0  0  0  0  0  0  0  0  0  0  0
    7.1359    8.2989   -3.1497 H   0  0  0  0  0  0  0  0  0  0  0  0
    5.6153    8.9371   -3.4776 H   0  0  0  0  0  0  0  0  0  0  0  0
   11.0007   14.8853    3.3490 H   0  0  0  0  0  0  0  0  0  0  0  0
   11.5990   12.1375    5.1909 H   0  0  0  0  0  0  0  0  0  0  0  0
   11.0145   13.7561    5.6522 H   0  0  0  0  0  0  0  0  0  0  0  0
  1  5  1  0  0  0  0
  1  2  2  0  0  0  0
  1 22  1  0  0  0  0
  2  3  1  0  0  0  0
  3  4  2  0  0  0  0
  3 19  1  0  0  0  0
  4  5  1  0  0  0  0
  4 16  1  0  0  0  0
  5  6  1  0  0  0  0
  6  7  1  0  0  0  0
  6 23  1  0  0  0  0
  6 24  1  0  0  0  0
  7  8  1  0  0  0  0
  8  9  1  0  0  0  0
  8 25  1  0  0  0  0
  8 26  1  0  0  0  0
  9 10  1  0  0  0  0
  9 27  1  0  0  0  0
  9 28  1  0  0  0  0
 10 11  1  0  0  0  0
 11 12  2  0  0  0  0
 11 13  1  0  0  0  0
 13 14  1  0  0  0  0
 13 29  1  0  0  0  0
 13 30  1  0  0  0  0
 14 15  1  0  0  0  0
 14 31  1  0  0  0  0
 14 32  1  0  0  0  0
 15 33  1  0  0  0  0
 15 34  1  0  0  0  0
 15 35  1  0  0  0  0
 16 17  2  0  0  0  0
 17 18  1  0  0  0  0
 17 21  1  0  0  0  0
 18 19  1  0  0  0  0
 18 36  1  0  0  0  0
 19 20  2  0  0  0  0
 21 37  1  0  0  0  0
 21 38  1  0  0  0  0
M  END
> <Name>
ZINC27654081

> <reference>
BDB5009

> <quality>
0.832

> <status>
decoy

> <atoms in reference ligand area>
10

> <score>
-32.4006

$$$$
ZINC17218773
      BALL 1.4.0 (Jan  4 2012, 23:22:29)

 33 34  0999  0  0  0  0  0  0999 V2000
    8.1981   13.8148    3.4498 C   0  0  0  0  0  0  0  0  0  0  0  0
    9.4939   13.2135    3.4118 O   0  0  0  0  0  0  0  0  0  0  0  0
    9.6061   12.0373    4.1922 N   0  0  0  0  0  0  0  0  0  0  0  0
    9.1603   10.9011    3.7284 C   0  0  0  0  0  0  0  0  0  0  0  0
    8.3592   10.8735    2.4925 C   0  0  0  0  0  0  0  0  0  0  0  0
    8.9679   10.9100    1.2848 C   0  0  0  0  0  0  0  0  0  0  0  0
    7.5806   10.8518    0.1625 S   0  0  0  0  0  0  0  0  0  0  0  0
    6.2759   10.7923    1.3802 C   0  0  0  0  0  0  0  0  0  0  0  0
    4.9805   10.7398    1.2012 N   0  0  0  0  0  0  0  0  0  0  0  0
    6.9910   10.8166    2.5573 N   0  0  0  0  0  0  0  0  0  0  0  0
    9.4601    9.6396    4.4451 C   0  0  0  0  0  0  0  0  0  0  0  0
    9.9508    8.7024    3.8466 O   0  0  0  0  0  0  0  0  0  0  0  0
    9.1889    9.5313    5.7608 N   0  0  0  0  0  0  0  0  0  0  0  0
    9.4714    8.3423    6.4363 C   0  0  0  0  0  0  0  0  0  0  0  0
    9.4536    8.0739    7.7746 C   0  0  0  0  0  0  0  0  0  0  0  0
    9.7633    6.8556    8.1681 N   0  3  0  0  0  0  0  0  0  0  0  0
   10.0870    5.9184    7.3087 C   0  0  0  0  0  0  0  0  0  0  0  0
    9.9563    6.7486    5.7892 S   0  0  0  0  0  0  0  0  0  0  0  0
    9.7517    6.5412    9.5990 C   0  0  0  0  0  0  0  0  0  0  0  0
    8.5968    5.6219    9.9020 C   0  0  0  0  0  0  0  0  0  0  0  0
    8.0651    5.6570   10.9863 O   0  0  0  0  0  0  0  0  0  0  0  0
    8.1589    4.7639    8.9672 O   0  5  0  0  0  0  0  0  0  0  0  0
    7.7491   13.6988    2.4523 H   0  0  0  0  0  0  0  0  0  0  0  0
    8.3361   14.8882    3.6467 H   0  0  0  0  0  0  0  0  0  0  0  0
    7.5620   13.3549    4.2204 H   0  0  0  0  0  0  0  0  0  0  0  0
   10.0421   10.9621    1.0535 H   0  0  0  0  0  0  0  0  0  0  0  0
    4.7245   10.7340    0.2036 H   0  0  0  0  0  0  0  0  0  0  0  0
    6.5079   10.7925    3.4668 H   0  0  0  0  0  0  0  0  0  0  0  0
    8.7732   10.3255    6.2681 H   0  0  0  0  0  0  0  0  0  0  0  0
    9.1881    8.8533    8.5040 H   0  0  0  0  0  0  0  0  0  0  0  0
   10.3693    4.8729    7.5017 H   0  0  0  0  0  0  0  0  0  0  0  0
    9.6422    7.4697   10.1786 H   0  0  0  0  0  0  0  0  0  0  0  0
   10.6952    6.0467    9.8735 H   0  0  0  0  0  0  0  0  0  0  0  0
  1  2  1  0  0  0  0
  1 23  1  0  0  0  0
  1 24  1  0  0  0  0
  1 25  1  0  0  0  0
  2  3  1  0  0  0  0
  3  4  2  0  0  0  0
  4  5  1  0  0  0  0
  4 11  1  0  0  0  0
  5 10  1  0  0  0  0
  5  6  2  0  0  0  0
  6  7  1  0  0  0  0
  6 26  1  0  0  0  0
  7  8  1  0  0  0  0
  8  9  2  0  0  0  0
  8 10  1  0  0  0  0
  9 27  1  0  0  0  0
 10 28  1  0  0  0  0
 11 12  2  0  0  0  0
 11 13  1  0  0  0  0
 13 14  1  0  0  0  0
 13 29  1  0  0  0  0
 14 18  1  0  0  0  0
 14 15  2  0  0  0  0
 15 16  1  0  0  0  0
 15 30  1  0  0  0  0
 16 17  2  0  0  0  0
 16 19  1  0  0  0  0
 17 18  1  0  0  0  0
 17 31  1  0  0  0  0
 19 20  1  0  0  0  0
 19 32  1  0  0  0  0
 19 33  1  0  0  0  0
 20 21  2  0  0  0  0
 20 22  1  0  0  0  0
M  END
> <Name>
ZINC17218773

> <reference>
BDB5244

> <quality>
0.706

> <status>
decoy

> <atoms in reference ligand area>
14

> <score>
-32.3641

$$$$
ZINC05426335
      BALL 1.4.0 (Jan  4 2012, 23:22:29)

 30 32  0999  0  0  0  0  0  0999 V2000
    9.9619   12.4668   -2.8744 C   0  0  0  0  0  0  0  0  0  0  0  0
   10.8973   13.6434   -3.2446 C   0  0  0  0  0  0  0  0  0  0  0  0
   10.2666   14.8200   -2.4570 C   0  0  0  0  0  0  0  0  0  0  0  0
    9.8298   14.2053   -1.2257 O   0  0  0  0  0  0  0  0  0  0  0  0
    9.2811   12.9219   -1.5689 C   0  0  0  0  0  0  0  0  0  0  0  0
    9.5563   11.9573   -0.5011 N   0  0  0  0  0  0  0  0  0  0  0  0
    8.6581   11.4517    0.4014 C   0  0  0  0  0  0  0  0  0  0  0  0
    7.3744   11.5918    0.6545 N   0  0  0  0  0  0  0  0  0  0  0  0
    6.7878   10.9266    1.6465 C   0  0  0  0  0  0  0  0  0  0  0  0
    7.4156   10.0867    2.4494 N   0  0  0  0  0  0  0  0  0  0  0  0
    8.7251    9.8303    2.3164 C   0  0  0  0  0  0  0  0  0  0  0  0
    9.2992    9.0538    3.0632 O   0  0  0  0  0  0  0  0  0  0  0  0
    9.4454   10.5334    1.2417 C   0  0  0  0  0  0  0  0  0  0  0  0
   10.6796   10.5688    0.8044 N   0  0  0  0  0  0  0  0  0  0  0  0
   10.7945   11.3712   -0.1944 N   0  5  0  0  0  0  0  0  0  0  0  0
    5.4416   11.1268    1.8487 N   0  0  0  0  0  0  0  0  0  0  0  0
   11.3108   15.9028   -2.1779 C   0  0  0  0  0  0  0  0  0  0  0  0
   10.8636   16.7297   -1.1017 O   0  0  0  0  0  0  0  0  0  0  0  0
   12.2328   13.3917   -2.8025 O   0  0  0  0  0  0  0  0  0  0  0  0
   10.5526   11.5562   -2.6960 H   0  0  0  0  0  0  0  0  0  0  0  0
    9.2098   12.3196   -3.6634 H   0  0  0  0  0  0  0  0  0  0  0  0
   10.9758   13.8248   -4.3267 H   0  0  0  0  0  0  0  0  0  0  0  0
    9.4504   15.3148   -3.0037 H   0  0  0  0  0  0  0  0  0  0  0  0
    8.1907   12.9874   -1.6987 H   0  0  0  0  0  0  0  0  0  0  0  0
    4.8120   10.3480    2.0896 H   0  0  0  0  0  0  0  0  0  0  0  0
    5.0588   12.0785    1.7562 H   0  0  0  0  0  0  0  0  0  0  0  0
   11.4518   16.5186   -3.0783 H   0  0  0  0  0  0  0  0  0  0  0  0
   12.2654   15.4298   -1.9039 H   0  0  0  0  0  0  0  0  0  0  0  0
   10.4784   17.5662   -1.4651 H   0  0  0  0  0  0  0  0  0  0  0  0
   12.8641   13.6942   -3.5025 H   0  0  0  0  0  0  0  0  0  0  0  0
  1  5  1  0  0  0  0
  1  2  1  0  0  0  0
  1 20  1  0  0  0  0
  1 21  1  0  0  0  0
  2  3  1  0  0  0  0
  2 19  1  0  0  0  0
  2 22  1  0  0  0  0
  3  4  1  0  0  0  0
  3 17  1  0  0  0  0
  3 23  1  0  0  0  0
  4  5  1  0  0  0  0
  5  6  1  0  0  0  0
  5 24  1  0  0  0  0
  6 15  1  0  0  0  0
  6  7  1  0  0  0  0
  7 13  1  0  0  0  0
  7  8  2  0  0  0  0
  8  9  1  0  0  0  0
  9 10  2  0  0  0  0
  9 16  1  0  0  0  0
 10 11  1  0  0  0  0
 11 12  2  0  0  0  0
 11 13  1  0  0  0  0
 13 14  2  0  0  0  0
 14 15  1  0  0  0  0
 16 25  1  0  0  0  0
 16 26  1  0  0  0  0
 17 18  1  0  0  0  0
 17 27  1  0  0  0  0
 17 28  1  0  0  0  0
 18 29  1  0  0  0  0
 19 30  1  0  0  0  0
M  END
> <Name>
ZINC05426335

> <reference>
BDB5257

> <quality>
0.780

> <status>
decoy

> <atoms in reference ligand area>
19

> <score>
-32.2165

$$$$
ZINC05838514
      BALL 1.4.0 (Jan  4 2012, 23:22:29)

 46 48  0999  0  0  0  0  0  0999 V2000
   12.2584   13.3101    4.1214 C   0  0  0  0  0  0  0  0  0  0  0  0
   12.2788   13.0698    2.6105 C   0  0  0  0  0  0  0  0  0  0  0  0
   12.2143   11.5666    2.3323 C   0  0  0  0  0  0  0  0  0  0  0  0
   11.5088   11.3252    0.9963 C   0  0  0  0  0  0  0  0  0  0  0  0
    9.3098   11.4229   -0.0125 C   0  0  0  0  0  0  0  0  0  0  0  0
    9.9228   12.6088   -0.7905 C   0  0  0  0  0  0  0  0  0  0  0  0
    8.7840   13.6513   -0.8439 C   0  0  0  0  0  0  0  0  0  0  0  0
    7.5714   12.8813   -0.6930 O   0  0  0  0  0  0  0  0  0  0  0  0
    7.8734   11.8892    0.3121 C   0  0  0  0  0  0  0  0  0  0  0  0
    6.9385   10.7653    0.2163 N   0  0  0  0  0  0  0  0  0  0  0  0
    6.3305   10.3163   -0.9181 C   0  0  0  0  0  0  0  0  0  0  0  0
    5.5648    9.3014   -0.6403 N   0  0  0  0  0  0  0  0  0  0  0  0
    5.6325    9.0352    0.6863 C   0  0  0  0  0  0  0  0  0  0  0  0
    6.5147    9.9714    1.2520 C   0  0  0  0  0  0  0  0  0  0  0  0
    6.7563    9.9242    2.5578 N   0  0  0  0  0  0  0  0  0  0  0  0
    6.1793    9.0145    3.3145 C   0  0  0  0  0  0  0  0  0  0  0  0
    5.3441    8.1145    2.8286 N   0  0  0  0  0  0  0  0  0  0  0  0
    5.0449    8.0811    1.5341 C   0  0  0  0  0  0  0  0  0  0  0  0
    4.1733    7.1300    1.0331 N   0  0  0  0  0  0  0  0  0  0  0  0
    8.7895   14.3776   -2.1905 C   0  0  0  0  0  0  0  0  0  0  0  0
    7.5514   15.0698   -2.3634 O   0  0  0  0  0  0  0  0  0  0  0  0
   10.2962   12.2033   -2.1089 O   0  0  0  0  0  0  0  0  0  0  0  0
   10.0603   11.1795    1.2339 N   0  3  0  0  0  0  0  0  0  0  0  0
   11.2981   13.7629    4.4088 H   0  0  0  0  0  0  0  0  0  0  0  0
   13.0798   13.9878    4.3971 H   0  0  0  0  0  0  0  0  0  0  0  0
   12.3829   12.3521    4.6474 H   0  0  0  0  0  0  0  0  0  0  0  0
   11.4121   13.5652    2.1485 H   0  0  0  0  0  0  0  0  0  0  0  0
   13.2061   13.4811    2.1851 H   0  0  0  0  0  0  0  0  0  0  0  0
   13.2345   11.1579    2.2867 H   0  0  0  0  0  0  0  0  0  0  0  0
   11.6548   11.0673    3.1370 H   0  0  0  0  0  0  0  0  0  0  0  0
   11.6869   12.1796    0.3268 H   0  0  0  0  0  0  0  0  0  0  0  0
   11.8990   10.4063    0.5342 H   0  0  0  0  0  0  0  0  0  0  0  0
    9.3353   10.4840   -0.5850 H   0  0  0  0  0  0  0  0  0  0  0  0
   10.8342   13.0021   -0.3167 H   0  0  0  0  0  0  0  0  0  0  0  0
    8.8877   14.4215   -0.0654 H   0  0  0  0  0  0  0  0  0  0  0  0
    7.7866   12.2905    1.3326 H   0  0  0  0  0  0  0  0  0  0  0  0
    6.4670   10.7482   -1.9205 H   0  0  0  0  0  0  0  0  0  0  0  0
    6.4011    9.0038    4.3918 H   0  0  0  0  0  0  0  0  0  0  0  0
    3.2408    7.4205    0.7060 H   0  0  0  0  0  0  0  0  0  0  0  0
    4.4529    6.1398    0.9871 H   0  0  0  0  0  0  0  0  0  0  0  0
    9.6191   15.0996   -2.2144 H   0  0  0  0  0  0  0  0  0  0  0  0
    8.9164   13.6463   -3.0023 H   0  0  0  0  0  0  0  0  0  0  0  0
    7.7255   16.0391   -2.4653 H   0  0  0  0  0  0  0  0  0  0  0  0
    9.9386   11.2964   -2.2816 H   0  0  0  0  0  0  0  0  0  0  0  0
    9.7609   11.8572    1.9495 H   0  0  0  0  0  0  0  0  0  0  0  0
    9.8635   10.2258    1.5695 H   0  0  0  0  0  0  0  0  0  0  0  0
  1  2  1  0  0  0  0
  1 24  1  0  0  0  0
  1 25  1  0  0  0  0
  1 26  1  0  0  0  0
  2  3  1  0  0  0  0
  2 27  1  0  0  0  0
  2 28  1  0  0  0  0
  3  4  1  0  0  0  0
  3 29  1  0  0  0  0
  3 30  1  0  0  0  0
  4 23  1  0  0  0  0
  4 31  1  0  0  0  0
  4 32  1  0  0  0  0
  5  9  1  0  0  0  0
  5  6  1  0  0  0  0
  5 23  1  0  0  0  0
  5 33  1  0  0  0  0
  6  7  1  0  0  0  0
  6 22  1  0  0  0  0
  6 34  1  0  0  0  0
  7  8  1  0  0  0  0
  7 20  1  0  0  0  0
  7 35  1  0  0  0  0
  8  9  1  0  0  0  0
  9 10  1  0  0  0  0
  9 36  1  0  0  0  0
 10 14  1  0  0  0  0
 10 11  1  0  0  0  0
 11 12  2  0  0  0  0
 11 37  1  0  0  0  0
 12 13  1  0  0  0  0
 13 18  2  0  0  0  0
 13 14  1  0  0  0  0
 14 15  2  0  0  0  0
 15 16  1  0  0  0  0
 16 17  2  0  0  0  0
 16 38  1  0  0  0  0
 17 18  1  0  0  0  0
 18 19  1  0  0  0  0
 19 39  1  0  0  0  0
 19 40  1  0  0  0  0
 20 21  1  0  0  0  0
 20 41  1  0  0  0  0
 20 42  1  0  0  0  0
 21 43  1  0  0  0  0
 22 44  1  0  0  0  0
 23 45  1  0  0  0  0
 23 46  1  0  0  0  0
M  END
> <Name>
ZINC05838514

> <reference>
BDB5198

> <quality>
0.779

> <status>
decoy

> <atoms in reference ligand area>
25

> <score>
-32.2153

$$$$
ZINC19731960
      BALL 1.4.0 (Jan  4 2012, 23:22:29)

 42 43  0999  0  0  0  0  0  0999 V2000
    9.5650    9.9063    1.4148 C   0  0  0  0  0  0  0  0  0  0  0  0
    8.6503   10.9338    1.9302 N   0  0  0  0  0  0  0  0  0  0  0  0
    8.6734   10.9704    3.3986 C   0  0  0  0  0  0  0  0  0  0  0  0
    9.9507   11.6674    3.8714 C   0  0  0  0  0  0  0  0  0  0  0  0
   10.3820   12.7026    2.8306 C   0  0  0  0  0  0  0  0  0  0  0  0
    9.7745   13.9610    3.1302 O   0  0  0  0  0  0  0  0  0  0  0  0
    9.8828   14.9374    2.1913 C   0  0  0  0  0  0  0  0  0  0  0  0
   10.5603   14.6886    1.0056 C   0  0  0  0  0  0  0  0  0  0  0  0
   10.6713   15.6804    0.0498 C   0  0  0  0  0  0  0  0  0  0  0  0
   10.1085   16.9226    0.2709 C   0  0  0  0  0  0  0  0  0  0  0  0
    9.4346   17.1793    1.4585 C   0  0  0  0  0  0  0  0  0  0  0  0
    9.3172   16.1821    2.4173 C   0  0  0  0  0  0  0  0  0  0  0  0
    8.8710   18.4370    1.6848 N   0  0  0  0  0  0  0  0  0  0  0  0
    7.2854   10.7222    1.4302 C   0  0  0  0  0  0  0  0  0  0  0  0
    6.7046    9.4333    2.0353 C   0  0  0  0  0  0  0  0  0  0  0  0
    5.4135    9.0319    1.2822 C   0  0  0  0  0  0  0  0  0  0  0  0
    5.6918    9.7292   -0.3968 S   0  0  0  0  0  0  0  0  0  0  0  0
    4.7034   10.7163   -0.6571 O   0  0  0  0  0  0  0  0  0  0  0  0
    5.8740    8.6614   -1.3164 O   0  0  0  0  0  0  0  0  0  0  0  0
    7.3114   10.5619   -0.1168 C   0  0  0  0  0  0  0  0  0  0  0  0
    9.2663    9.6470    0.3884 H   0  0  0  0  0  0  0  0  0  0  0  0
    9.4876    9.0110    2.0492 H   0  0  0  0  0  0  0  0  0  0  0  0
   10.5991   10.2812    1.4205 H   0  0  0  0  0  0  0  0  0  0  0  0
    7.7967   11.5245    3.7655 H   0  0  0  0  0  0  0  0  0  0  0  0
    8.6495    9.9437    3.7926 H   0  0  0  0  0  0  0  0  0  0  0  0
    9.7604   12.1704    4.8310 H   0  0  0  0  0  0  0  0  0  0  0  0
   10.7501   10.9227    3.9998 H   0  0  0  0  0  0  0  0  0  0  0  0
   11.4765   12.8100    2.8519 H   0  0  0  0  0  0  0  0  0  0  0  0
   10.0653   12.3723    1.8302 H   0  0  0  0  0  0  0  0  0  0  0  0
   11.0095   13.7006    0.8265 H   0  0  0  0  0  0  0  0  0  0  0  0
   11.2088   15.4805   -0.8890 H   0  0  0  0  0  0  0  0  0  0  0  0
   10.1940   17.7089   -0.4936 H   0  0  0  0  0  0  0  0  0  0  0  0
    8.7764   16.3797    3.3545 H   0  0  0  0  0  0  0  0  0  0  0  0
    8.8182   19.1227    0.9181 H   0  0  0  0  0  0  0  0  0  0  0  0
    8.5082   18.6787    2.6180 H   0  0  0  0  0  0  0  0  0  0  0  0
    6.6684   11.5878    1.7134 H   0  0  0  0  0  0  0  0  0  0  0  0
    6.4707    9.5999    3.0972 H   0  0  0  0  0  0  0  0  0  0  0  0
    7.4440    8.6235    1.9493 H   0  0  0  0  0  0  0  0  0  0  0  0
    5.3259    7.9371    1.2222 H   0  0  0  0  0  0  0  0  0  0  0  0
    4.5338    9.5058    1.7421 H   0  0  0  0  0  0  0  0  0  0  0  0
    7.3188   11.5442   -0.6117 H   0  0  0  0  0  0  0  0  0  0  0  0
    8.1324    9.8996   -0.4286 H   0  0  0  0  0  0  0  0  0  0  0  0
  1  2  1  0  0  0  0
  1 21  1  0  0  0  0
  1 22  1  0  0  0  0
  1 23  1  0  0  0  0
  2  3  1  0  0  0  0
  2 14  1  0  0  0  0
  3  4  1  0  0  0  0
  3 24  1  0  0  0  0
  3 25  1  0  0  0  0
  4  5  1  0  0  0  0
  4 26  1  0  0  0  0
  4 27  1  0  0  0  0
  5  6  1  0  0  0  0
  5 28  1  0  0  0  0
  5 29  1  0  0  0  0
  6  7  1  0  0  0  0
  7 12  2  0  0  0  0
  7  8  1  0  0  0  0
  8  9  2  0  0  0  0
  8 30  1  0  0  0  0
  9 10  1  0  0  0  0
  9 31  1  0  0  0  0
 10 11  2  0  0  0  0
 10 32  1  0  0  0  0
 11 12  1  0  0  0  0
 11 13  1  0  0  0  0
 12 33  1  0  0  0  0
 13 34  1  0  0  0  0
 13 35  1  0  0  0  0
 14 20  1  0  0  0  0
 14 15  1  0  0  0  0
 14 36  1  0  0  0  0
 15 16  1  0  0  0  0
 15 37  1  0  0  0  0
 15 38  1  0  0  0  0
 16 17  1  0  0  0  0
 16 39  1  0  0  0  0
 16 40  1  0  0  0  0
 17 18  2  0  0  0  0
 17 19  2  0  0  0  0
 17 20  1  0  0  0  0
 20 41  1  0  0  0  0
 20 42  1  0  0  0  0
M  END
> <Name>
ZINC19731960

> <reference>
BDB5015

> <quality>
0.707

> <status>
decoy

> <atoms in reference ligand area>
15

> <score>
-32.0803

$$$$
ZINC21264479
      BALL 1.4.0 (Jan  4 2012, 23:22:29)

 35 35  0999  0  0  0  0  0  0999 V2000
    9.6396   14.6306   -3.0212 C   0  0  0  0  0  0  0  0  0  0  0  0
    9.5530   14.7505   -1.4984 C   0  0  0  0  0  0  0  0  0  0  0  0
    8.9485   13.4927   -0.9291 C   0  0  0  0  0  0  0  0  0  0  0  0
    8.0770   12.6580   -1.4590 N   0  0  0  0  0  0  0  0  0  0  0  0
    7.6852   11.6440   -0.8175 N   0  0  0  0  0  0  0  0  0  0  0  0
    8.1246   11.3749    0.4000 C   0  0  0  0  0  0  0  0  0  0  0  0
    9.2163   12.7048    0.6545 S   0  0  0  0  0  0  0  0  0  0  0  0
    7.8062   10.3158    1.2434 N   0  0  0  0  0  0  0  0  0  0  0  0
    6.5818   10.2440    1.8022 C   0  0  0  0  0  0  0  0  0  0  0  0
    5.7577   11.1030    1.5695 O   0  5  0  0  0  0  0  0  0  0  0  0
    6.2366    9.0965    2.7160 C   0  0  0  0  0  0  0  0  0  0  0  0
    4.9528    9.3660    3.3770 N   0  3  0  0  0  0  0  0  0  0  0  0
    4.5833    8.2660    4.2778 C   0  0  0  0  0  0  0  0  0  0  0  0
    4.7015    6.9350    3.5325 C   0  0  0  0  0  0  0  0  0  0  0  0
    5.5218    8.2591    5.4861 C   0  0  0  0  0  0  0  0  0  0  0  0
    3.1416    8.4581    4.7529 C   0  0  0  0  0  0  0  0  0  0  0  0
    3.1206    8.5713    6.1773 O   0  0  0  0  0  0  0  0  0  0  0  0
    9.2400   13.6556   -3.3367 H   0  0  0  0  0  0  0  0  0  0  0  0
   10.6898   14.7155   -3.3376 H   0  0  0  0  0  0  0  0  0  0  0  0
    9.0513   15.4349   -3.4870 H   0  0  0  0  0  0  0  0  0  0  0  0
   10.5619   14.8921   -1.0837 H   0  0  0  0  0  0  0  0  0  0  0  0
    8.9229   15.6121   -1.2325 H   0  0  0  0  0  0  0  0  0  0  0  0
    6.1583    8.1701    2.1280 H   0  0  0  0  0  0  0  0  0  0  0  0
    7.0230    8.9827    3.4766 H   0  0  0  0  0  0  0  0  0  0  0  0
    5.0266   10.2384    3.9196 H   0  0  0  0  0  0  0  0  0  0  0  0
    4.2193    9.4802    2.6629 H   0  0  0  0  0  0  0  0  0  0  0  0
    3.8615    6.2817    3.8110 H   0  0  0  0  0  0  0  0  0  0  0  0
    5.6498    6.4463    3.8009 H   0  0  0  0  0  0  0  0  0  0  0  0
    4.6786    7.1179    2.4481 H   0  0  0  0  0  0  0  0  0  0  0  0
    5.7152    9.2932    5.8073 H   0  0  0  0  0  0  0  0  0  0  0  0
    6.4718    7.7776    5.2110 H   0  0  0  0  0  0  0  0  0  0  0  0
    5.0546    7.7013    6.3110 H   0  0  0  0  0  0  0  0  0  0  0  0
    2.5348    7.5936    4.4455 H   0  0  0  0  0  0  0  0  0  0  0  0
    2.7274    9.3743    4.3067 H   0  0  0  0  0  0  0  0  0  0  0  0
    3.0525    9.5254    6.4325 H   0  0  0  0  0  0  0  0  0  0  0  0
  1  2  1  0  0  0  0
  1 18  1  0  0  0  0
  1 19  1  0  0  0  0
  1 20  1  0  0  0  0
  2  3  1  0  0  0  0
  2 21  1  0  0  0  0
  2 22  1  0  0  0  0
  3  7  1  0  0  0  0
  3  4  2  0  0  0  0
  4  5  1  0  0  0  0
  5  6  2  0  0  0  0
  6  7  1  0  0  0  0
  6  8  1  0  0  0  0
  8  9  2  0  0  0  0
  9 10  1  0  0  0  0
  9 11  1  0  0  0  0
 11 12  1  0  0  0  0
 11 23  1  0  0  0  0
 11 24  1  0  0  0  0
 12 13  1  0  0  0  0
 12 25  1  0  0  0  0
 12 26  1  0  0  0  0
 13 14  1  0  0  0  0
 13 15  1  0  0  0  0
 13 16  1  0  0  0  0
 14 27  1  0  0  0  0
 14 28  1  0  0  0  0
 14 29  1  0  0  0  0
 15 30  1  0  0  0  0
 15 31  1  0  0  0  0
 15 32  1  0  0  0  0
 16 17  1  0  0  0  0
 16 33  1  0  0  0  0
 16 34  1  0  0  0  0
 17 35  1  0  0  0  0
M  END
> <Name>
ZINC21264479

> <reference>
BDB4995

> <quality>
0.774

> <status>
decoy

> <atoms in reference ligand area>
11

> <score>
-31.9914

$$$$
ZINC31217234
      BALL 1.4.0 (Jan  4 2012, 23:22:29)

 48 49  0999  0  0  0  0  0  0999 V2000
    4.7802    6.6828    5.9151 C   0  0  0  0  0  0  0  0  0  0  0  0
    3.6746    7.9954    5.3269 S   0  0  0  0  0  0  0  0  0  0  0  0
    4.4276    9.0267    4.7036 O   0  0  0  0  0  0  0  0  0  0  0  0
    2.7086    8.3040    6.3222 O   0  0  0  0  0  0  0  0  0  0  0  0
    2.8082    7.3026    4.0974 N   0  0  0  0  0  0  0  0  0  0  0  0
    3.4889    6.8717    2.8738 C   0  0  0  0  0  0  0  0  0  0  0  0
    4.6317    7.8390    2.5584 C   0  0  0  0  0  0  0  0  0  0  0  0
    5.6308    7.1592    1.6200 C   0  0  0  0  0  0  0  0  0  0  0  0
    6.8352    7.9856    1.5075 N   0  0  0  0  0  0  0  0  0  0  0  0
    6.7875    9.2935    1.8289 C   0  0  0  0  0  0  0  0  0  0  0  0
    5.7451    9.7876    2.2121 O   0  0  0  0  0  0  0  0  0  0  0  0
    8.0030   10.1276    1.7154 C   0  0  0  0  0  0  0  0  0  0  0  0
    9.2637    9.5292    1.6890 C   0  0  0  0  0  0  0  0  0  0  0  0
   10.3939   10.3133    1.5825 C   0  0  0  0  0  0  0  0  0  0  0  0
   10.2796   11.6897    1.5016 C   0  0  0  0  0  0  0  0  0  0  0  0
    9.0331   12.2895    1.5326 C   0  0  0  0  0  0  0  0  0  0  0  0
    7.8947   11.5168    1.6339 C   0  0  0  0  0  0  0  0  0  0  0  0
   11.7281   12.6837    1.3658 S   0  0  0  0  0  0  0  0  0  0  0  0
   12.8282   11.8448    1.6903 O   0  0  0  0  0  0  0  0  0  0  0  0
   11.4588   13.8913    2.0645 O   0  0  0  0  0  0  0  0  0  0  0  0
   11.8963   13.0883   -0.2312 N   0  0  0  0  0  0  0  0  0  0  0  0
   12.6843   14.2153   -0.7512 C   0  0  0  0  0  0  0  0  0  0  0  0
   12.5277   14.2143   -2.2864 C   0  0  0  0  0  0  0  0  0  0  0  0
   11.2013   13.4376   -2.4978 C   0  0  0  0  0  0  0  0  0  0  0  0
   11.2755   12.3819   -1.3665 C   0  0  0  0  0  0  0  0  0  0  0  0
    5.6883    7.1365    6.3390 H   0  0  0  0  0  0  0  0  0  0  0  0
    5.0572    6.0361    5.0696 H   0  0  0  0  0  0  0  0  0  0  0  0
    4.2706    6.0859    6.6858 H   0  0  0  0  0  0  0  0  0  0  0  0
    1.7906    7.1748    4.1929 H   0  0  0  0  0  0  0  0  0  0  0  0
    3.8951    5.8595    3.0171 H   0  0  0  0  0  0  0  0  0  0  0  0
    2.7739    6.8651    2.0379 H   0  0  0  0  0  0  0  0  0  0  0  0
    4.2268    8.7390    2.0725 H   0  0  0  0  0  0  0  0  0  0  0  0
    5.1409    8.1234    3.4911 H   0  0  0  0  0  0  0  0  0  0  0  0
    5.9004    6.1723    2.0240 H   0  0  0  0  0  0  0  0  0  0  0  0
    5.1767    7.0369    0.6256 H   0  0  0  0  0  0  0  0  0  0  0  0
    7.7185    7.5670    1.1828 H   0  0  0  0  0  0  0  0  0  0  0  0
    9.3559    8.4350    1.7528 H   0  0  0  0  0  0  0  0  0  0  0  0
   11.3881    9.8430    1.5620 H   0  0  0  0  0  0  0  0  0  0  0  0
    8.9496   13.3850    1.4764 H   0  0  0  0  0  0  0  0  0  0  0  0
    6.9039   11.9944    1.6503 H   0  0  0  0  0  0  0  0  0  0  0  0
   13.7439   14.0839   -0.4866 H   0  0  0  0  0  0  0  0  0  0  0  0
   12.2997   15.1602   -0.3397 H   0  0  0  0  0  0  0  0  0  0  0  0
   12.4292   15.2441   -2.6604 H   0  0  0  0  0  0  0  0  0  0  0  0
   13.3633   13.6744   -2.7556 H   0  0  0  0  0  0  0  0  0  0  0  0
   11.1968   12.9450   -3.4813 H   0  0  0  0  0  0  0  0  0  0  0  0
   10.3388   14.1030   -2.3447 H   0  0  0  0  0  0  0  0  0  0  0  0
   10.2625   12.0477   -1.0977 H   0  0  0  0  0  0  0  0  0  0  0  0
   11.9089   11.5390   -1.6802 H   0  0  0  0  0  0  0  0  0  0  0  0
  1  2  1  0  0  0  0
  1 26  1  0  0  0  0
  1 27  1  0  0  0  0
  1 28  1  0  0  0  0
  2  3  2  0  0  0  0
  2  4  2  0  0  0  0
  2  5  1  0  0  0  0
  5  6  1  0  0  0  0
  5 29  1  0  0  0  0
  6  7  1  0  0  0  0
  6 30  1  0  0  0  0
  6 31  1  0  0  0  0
  7  8  1  0  0  0  0
  7 32  1  0  0  0  0
  7 33  1  0  0  0  0
  8  9  1  0  0  0  0
  8 34  1  0  0  0  0
  8 35  1  0  0  0  0
  9 10  1  0  0  0  0
  9 36  1  0  0  0  0
 10 11  2  0  0  0  0
 10 12  1  0  0  0  0
 12 17  2  0  0  0  0
 12 13  1  0  0  0  0
 13 14  2  0  0  0  0
 13 37  1  0  0  0  0
 14 15  1  0  0  0  0
 14 38  1  0  0  0  0
 15 16  2  0  0  0  0
 15 18  1  0  0  0  0
 16 17  1  0  0  0  0
 16 39  1  0  0  0  0
 17 40  1  0  0  0  0
 18 19  2  0  0  0  0
 18 20  2  0  0  0  0
 18 21  1  0  0  0  0
 21 25  1  0  0  0  0
 21 22  1  0  0  0  0
 22 23  1  0  0  0  0
 22 41  1  0  0  0  0
 22 42  1  0  0  0  0
 23 24  1  0  0  0  0
 23 43  1  0  0  0  0
 23 44  1  0  0  0  0
 24 25  1  0  0  0  0
 24 45  1  0  0  0  0
 24 46  1  0  0  0  0
 25 47  1  0  0  0  0
 25 48  1  0  0  0  0
M  END
> <Name>
ZINC31217234

> <reference>
BDB4945

> <quality>
0.747

> <status>
decoy

> <atoms in reference ligand area>
15

> <score>
-31.9327

$$$$
ZINC20744634
      BALL 1.4.0 (Jan  4 2012, 23:22:29)

 47 49  0999  0  0  0  0  0  0999 V2000
    7.5270    9.3750    4.4241 C   0  0  0  0  0  0  0  0  0  0  0  0
    7.4154    9.9784    3.0939 N   0  0  0  0  0  0  0  0  0  0  0  0
    8.4313   10.5529    2.3894 C   0  0  0  0  0  0  0  0  0  0  0  0
    7.8761   10.9965    1.1734 C   0  0  0  0  0  0  0  0  0  0  0  0
    6.5041   10.6645    1.2002 C   0  0  0  0  0  0  0  0  0  0  0  0
    6.2448   10.0716    2.3306 N   0  0  0  0  0  0  0  0  0  0  0  0
    8.7220   11.6315    0.2427 C   0  0  0  0  0  0  0  0  0  0  0  0
   10.0039   11.7834    0.5528 N   0  0  0  0  0  0  0  0  0  0  0  0
   10.4860   11.3497    1.7115 C   0  0  0  0  0  0  0  0  0  0  0  0
    9.7294   10.7492    2.6142 N   0  0  0  0  0  0  0  0  0  0  0  0
   11.8300   11.5340    1.9847 N   0  0  0  0  0  0  0  0  0  0  0  0
   12.2799   12.7547    2.6585 C   0  0  0  0  0  0  0  0  0  0  0  0
   11.3570   13.8926    2.3054 C   0  0  0  0  0  0  0  0  0  0  0  0
   11.3639   14.4151    1.0253 C   0  0  0  0  0  0  0  0  0  0  0  0
   10.5150   15.4544    0.6976 C   0  0  0  0  0  0  0  0  0  0  0  0
    9.6630   15.9814    1.6573 C   0  0  0  0  0  0  0  0  0  0  0  0
    9.6619   15.4591    2.9425 C   0  0  0  0  0  0  0  0  0  0  0  0
   10.5087   14.4161    3.2637 C   0  0  0  0  0  0  0  0  0  0  0  0
    8.8304   17.0072    1.3387 O   0  0  0  0  0  0  0  0  0  0  0  0
    9.4124   18.1351    0.6822 C   0  0  0  0  0  0  0  0  0  0  0  0
    8.2291   12.0851   -0.9648 N   0  0  0  0  0  0  0  0  0  0  0  0
    7.9108   13.5044   -1.1394 C   0  0  0  0  0  0  0  0  0  0  0  0
    7.6264   13.7853   -2.6162 C   0  0  0  0  0  0  0  0  0  0  0  0
    8.9259   13.6736   -3.4161 C   0  0  0  0  0  0  0  0  0  0  0  0
    8.7119   14.1589   -4.7429 O   0  0  0  0  0  0  0  0  0  0  0  0
    6.5177    8.9684    4.5856 H   0  0  0  0  0  0  0  0  0  0  0  0
    7.6010   10.2559    5.0787 H   0  0  0  0  0  0  0  0  0  0  0  0
    8.3334    8.6410    4.5693 H   0  0  0  0  0  0  0  0  0  0  0  0
    5.7769   10.8716    0.4012 H   0  0  0  0  0  0  0  0  0  0  0  0
   12.5140   10.8130    1.7145 H   0  0  0  0  0  0  0  0  0  0  0  0
   13.3022   12.9986    2.3339 H   0  0  0  0  0  0  0  0  0  0  0  0
   12.2683   12.5983    3.7472 H   0  0  0  0  0  0  0  0  0  0  0  0
   12.0460   14.0028    0.2671 H   0  0  0  0  0  0  0  0  0  0  0  0
   10.5145   15.8638   -0.3234 H   0  0  0  0  0  0  0  0  0  0  0  0
    8.9872   15.8752    3.7052 H   0  0  0  0  0  0  0  0  0  0  0  0
   10.5083   14.0016    4.2826 H   0  0  0  0  0  0  0  0  0  0  0  0
    9.0731   18.0934   -0.3633 H   0  0  0  0  0  0  0  0  0  0  0  0
   10.5000   17.9707    0.6909 H   0  0  0  0  0  0  0  0  0  0  0  0
    9.1432   19.0898    1.1577 H   0  0  0  0  0  0  0  0  0  0  0  0
    8.0851   11.4255   -1.7427 H   0  0  0  0  0  0  0  0  0  0  0  0
    7.0233   13.7577   -0.5410 H   0  0  0  0  0  0  0  0  0  0  0  0
    8.7631   14.1159   -0.8081 H   0  0  0  0  0  0  0  0  0  0  0  0
    6.8989   13.0526   -2.9955 H   0  0  0  0  0  0  0  0  0  0  0  0
    7.2158   14.7999   -2.7252 H   0  0  0  0  0  0  0  0  0  0  0  0
    9.2426   12.6209   -3.4581 H   0  0  0  0  0  0  0  0  0  0  0  0
    9.7092   14.2729   -2.9289 H   0  0  0  0  0  0  0  0  0  0  0  0
    7.9041   13.7327   -5.1249 H   0  0  0  0  0  0  0  0  0  0  0  0
  1  2  1  0  0  0  0
  1 26  1  0  0  0  0
  1 27  1  0  0  0  0
  1 28  1  0  0  0  0
  2  6  1  0  0  0  0
  2  3  1  0  0  0  0
  3 10  2  0  0  0  0
  3  4  1  0  0  0  0
  4  5  1  0  0  0  0
  4  7  2  0  0  0  0
  5  6  2  0  0  0  0
  5 29  1  0  0  0  0
  7  8  1  0  0  0  0
  7 21  1  0  0  0  0
  8  9  2  0  0  0  0
  9 10  1  0  0  0  0
  9 11  1  0  0  0  0
 11 12  1  0  0  0  0
 11 30  1  0  0  0  0
 12 13  1  0  0  0  0
 12 31  1  0  0  0  0
 12 32  1  0  0  0  0
 13 18  2  0  0  0  0
 13 14  1  0  0  0  0
 14 15  2  0  0  0  0
 14 33  1  0  0  0  0
 15 16  1  0  0  0  0
 15 34  1  0  0  0  0
 16 17  2  0  0  0  0
 16 19  1  0  0  0  0
 17 18  1  0  0  0  0
 17 35  1  0  0  0  0
 18 36  1  0  0  0  0
 19 20  1  0  0  0  0
 20 37  1  0  0  0  0
 20 38  1  0  0  0  0
 20 39  1  0  0  0  0
 21 22  1  0  0  0  0
 21 40  1  0  0  0  0
 22 23  1  0  0  0  0
 22 41  1  0  0  0  0
 22 42  1  0  0  0  0
 23 24  1  0  0  0  0
 23 43  1  0  0  0  0
 23 44  1  0  0  0  0
 24 25  1  0  0  0  0
 24 45  1  0  0  0  0
 24 46  1  0  0  0  0
 25 47  1  0  0  0  0
M  END
> <Name>
ZINC20744634

> <reference>
BDB5003

> <quality>
0.685

> <status>
decoy

> <atoms in reference ligand area>
26

> <score>
-31.8947

$$$$
ZINC04777692
      BALL 1.4.0 (Jan  4 2012, 23:22:29)

 41 42  0999  0  0  0  0  0  0999 V2000
   10.7499   12.6320    3.5854 C   0  0  0  0  0  0  0  0  0  0  0  0
    9.9708   13.2120    2.4751 C   0  0  0  0  0  0  0  0  0  0  0  0
    8.6193   13.2074    2.1539 C   0  0  0  0  0  0  0  0  0  0  0  0
    8.4618   13.8894    1.0455 N   0  0  0  0  0  0  0  0  0  0  0  0
    9.7096   14.3618    0.6056 N   0  0  0  0  0  0  0  0  0  0  0  0
   10.6480   13.9470    1.4770 C   0  0  0  0  0  0  0  0  0  0  0  0
   11.9845   14.1061    1.5361 N   0  0  0  0  0  0  0  0  0  0  0  0
   12.6674   13.4570    2.4442 C   0  0  0  0  0  0  0  0  0  0  0  0
   12.1159   12.5500    3.2997 N   0  0  0  0  0  0  0  0  0  0  0  0
   12.9421   11.5053    3.9098 C   0  0  0  0  0  0  0  0  0  0  0  0
   13.7545   10.7981    2.8232 C   0  0  0  0  0  0  0  0  0  0  0  0
   14.3205    9.4899    3.3796 C   0  0  0  0  0  0  0  0  0  0  0  0
   15.1328    8.7827    2.2929 C   0  0  0  0  0  0  0  0  0  0  0  0
   15.6987    7.4745    2.8494 C   0  0  0  0  0  0  0  0  0  0  0  0
   16.5111    6.7673    1.7628 C   0  0  0  0  0  0  0  0  0  0  0  0
   15.7857    6.7948    0.5319 O   0  0  0  0  0  0  0  0  0  0  0  0
   16.5429    7.7580    3.9670 O   0  0  0  0  0  0  0  0  0  0  0  0
   14.2886    8.4993    1.1755 O   0  0  0  0  0  0  0  0  0  0  0  0
   15.1647    9.7734    4.4971 O   0  0  0  0  0  0  0  0  0  0  0  0
   12.9103   10.5147    1.7057 O   0  0  0  0  0  0  0  0  0  0  0  0
    9.9483   15.1675   -0.5944 C   0  0  0  0  0  0  0  0  0  0  0  0
   10.2726   12.2123    4.7563 N   0  0  0  0  0  0  0  0  0  0  0  0
    7.8204   12.7170    2.7294 H   0  0  0  0  0  0  0  0  0  0  0  0
   13.7467   13.6542    2.5217 H   0  0  0  0  0  0  0  0  0  0  0  0
   12.2953   10.7744    4.4172 H   0  0  0  0  0  0  0  0  0  0  0  0
   13.6265   11.9595    4.6414 H   0  0  0  0  0  0  0  0  0  0  0  0
   14.5817   11.4483    2.5022 H   0  0  0  0  0  0  0  0  0  0  0  0
   13.4933    8.8397    3.7007 H   0  0  0  0  0  0  0  0  0  0  0  0
   15.9600    9.4328    1.9719 H   0  0  0  0  0  0  0  0  0  0  0  0
   14.8715    6.8243    3.1704 H   0  0  0  0  0  0  0  0  0  0  0  0
   17.4744    7.2820    1.6316 H   0  0  0  0  0  0  0  0  0  0  0  0
   16.6905    5.7231    2.0586 H   0  0  0  0  0  0  0  0  0  0  0  0
   15.7638    7.7204    0.1812 H   0  0  0  0  0  0  0  0  0  0  0  0
   16.6970    8.7342    4.0262 H   0  0  0  0  0  0  0  0  0  0  0  0
   14.5449    9.0758    0.4125 H   0  0  0  0  0  0  0  0  0  0  0  0
   15.4500   10.7208    4.4645 H   0  0  0  0  0  0  0  0  0  0  0  0
   13.4479   10.5224    0.8743 H   0  0  0  0  0  0  0  0  0  0  0  0
    9.0448   15.7929   -0.6432 H   0  0  0  0  0  0  0  0  0  0  0  0
    9.8413   14.4277   -1.4014 H   0  0  0  0  0  0  0  0  0  0  0  0
   10.8890   15.7366   -0.6309 H   0  0  0  0  0  0  0  0  0  0  0  0
   10.9198   11.8236    5.4569 H   0  0  0  0  0  0  0  0  0  0  0  0
  1  9  1  0  0  0  0
  1  2  1  0  0  0  0
  1 22  2  0  0  0  0
  2  6  2  0  0  0  0
  2  3  1  0  0  0  0
  3  4  2  0  0  0  0
  3 23  1  0  0  0  0
  4  5  1  0  0  0  0
  5  6  1  0  0  0  0
  5 21  1  0  0  0  0
  6  7  1  0  0  0  0
  7  8  2  0  0  0  0
  8  9  1  0  0  0  0
  8 24  1  0  0  0  0
  9 10  1  0  0  0  0
 10 11  1  0  0  0  0
 10 25  1  0  0  0  0
 10 26  1  0  0  0  0
 11 12  1  0  0  0  0
 11 20  1  0  0  0  0
 11 27  1  0  0  0  0
 12 13  1  0  0  0  0
 12 19  1  0  0  0  0
 12 28  1  0  0  0  0
 13 14  1  0  0  0  0
 13 18  1  0  0  0  0
 13 29  1  0  0  0  0
 14 15  1  0  0  0  0
 14 17  1  0  0  0  0
 14 30  1  0  0  0  0
 15 16  1  0  0  0  0
 15 31  1  0  0  0  0
 15 32  1  0  0  0  0
 16 33  1  0  0  0  0
 17 34  1  0  0  0  0
 18 35  1  0  0  0  0
 19 36  1  0  0  0  0
 20 37  1  0  0  0  0
 21 38  1  0  0  0  0
 21 39  1  0  0  0  0
 21 40  1  0  0  0  0
 22 41  1  0  0  0  0
M  END
> <Name>
ZINC04777692

> <reference>
BDB4934

> <quality>
0.663

> <status>
decoy

> <atoms in reference ligand area>
10

> <score>
-31.1537

$$$$
ZINC02861235
      BALL 1.4.0 (Jan  4 2012, 23:22:29)

 53 54  0999  0  0  0  0  0  0999 V2000
   -1.0276    5.8168    5.0116 C   0  0  0  0  0  0  0  0  0  0  0  0
   -0.1346    6.3733    6.1224 C   0  0  0  0  0  0  0  0  0  0  0  0
    0.8125    5.2764    6.6130 C   0  0  0  0  0  0  0  0  0  0  0  0
    1.7785    4.9925    5.5991 O   0  0  0  0  0  0  0  0  0  0  0  0
    2.8318    5.8449    5.4945 C   0  0  0  0  0  0  0  0  0  0  0  0
    2.6369    7.2111    5.6368 C   0  0  0  0  0  0  0  0  0  0  0  0
    3.7091    8.0754    5.5296 C   0  0  0  0  0  0  0  0  0  0  0  0
    4.9757    7.5801    5.2803 C   0  0  0  0  0  0  0  0  0  0  0  0
    5.1717    6.2195    5.1324 C   0  0  0  0  0  0  0  0  0  0  0  0
    4.1037    5.3504    5.2448 C   0  0  0  0  0  0  0  0  0  0  0  0
    6.1435    8.5254    5.1634 C   0  0  0  0  0  0  0  0  0  0  0  0
    6.5402    8.6665    3.6924 C   0  0  0  0  0  0  0  0  0  0  0  0
    7.0124   10.0973    3.4265 C   0  0  0  0  0  0  0  0  0  0  0  0
    8.4215   11.1867    1.7863 C   0  0  0  0  0  0  0  0  0  0  0  0
    8.0611   10.7151    0.3762 C   0  0  0  0  0  0  0  0  0  0  0  0
    6.5710   10.5114    0.2803 C   0  0  0  0  0  0  0  0  0  0  0  0
    6.1018    9.9175   -0.6616 O   0  0  0  0  0  0  0  0  0  0  0  0
    9.8378   11.7017    1.7970 C   0  0  0  0  0  0  0  0  0  0  0  0
   10.8942   10.8221    1.6522 C   0  0  0  0  0  0  0  0  0  0  0  0
   12.1933   11.2947    1.6617 C   0  0  0  0  0  0  0  0  0  0  0  0
   12.4358   12.6469    1.8154 C   0  0  0  0  0  0  0  0  0  0  0  0
   11.3793   13.5265    1.9601 C   0  0  0  0  0  0  0  0  0  0  0  0
   10.0802   13.0540    1.9506 C   0  0  0  0  0  0  0  0  0  0  0  0
    7.2494    8.0106    5.9076 O   0  0  0  0  0  0  0  0  0  0  0  0
    8.3104   10.0558    2.7268 N   0  3  0  0  0  0  0  0  0  0  0  0
    5.7650   10.9897    1.2412 O   0  5  0  0  0  0  0  0  0  0  0  0
   -0.5415    5.9713    4.0369 H   0  0  0  0  0  0  0  0  0  0  0  0
   -1.9968    6.3370    5.0237 H   0  0  0  0  0  0  0  0  0  0  0  0
   -1.1881    4.7408    5.1736 H   0  0  0  0  0  0  0  0  0  0  0  0
    0.4534    7.2171    5.7322 H   0  0  0  0  0  0  0  0  0  0  0  0
   -0.7600    6.7180    6.9591 H   0  0  0  0  0  0  0  0  0  0  0  0
    1.3269    5.6164    7.5239 H   0  0  0  0  0  0  0  0  0  0  0  0
    0.2367    4.3658    6.8353 H   0  0  0  0  0  0  0  0  0  0  0  0
    1.6294    7.6056    5.8349 H   0  0  0  0  0  0  0  0  0  0  0  0
    3.5551    9.1587    5.6428 H   0  0  0  0  0  0  0  0  0  0  0  0
    6.1787    5.8287    4.9250 H   0  0  0  0  0  0  0  0  0  0  0  0
    4.2618    4.2672    5.1365 H   0  0  0  0  0  0  0  0  0  0  0  0
    5.8594    9.5103    5.5627 H   0  0  0  0  0  0  0  0  0  0  0  0
    7.3546    7.9636    3.4631 H   0  0  0  0  0  0  0  0  0  0  0  0
    5.6724    8.4430    3.0544 H   0  0  0  0  0  0  0  0  0  0  0  0
    7.1274   10.6309    4.3815 H   0  0  0  0  0  0  0  0  0  0  0  0
    6.2737   10.6175    2.7991 H   0  0  0  0  0  0  0  0  0  0  0  0
    7.7332   11.9893    2.0895 H   0  0  0  0  0  0  0  0  0  0  0  0
    8.3747   11.4739   -0.3557 H   0  0  0  0  0  0  0  0  0  0  0  0
    8.5746    9.7659    0.1633 H   0  0  0  0  0  0  0  0  0  0  0  0
   10.7012    9.7461    1.5296 H   0  0  0  0  0  0  0  0  0  0  0  0
   13.0340   10.5947    1.5469 H   0  0  0  0  0  0  0  0  0  0  0  0
   13.4695   13.0230    1.8225 H   0  0  0  0  0  0  0  0  0  0  0  0
   11.5723   14.6025    2.0829 H   0  0  0  0  0  0  0  0  0  0  0  0
    9.2395   13.7540    2.0653 H   0  0  0  0  0  0  0  0  0  0  0  0
    6.9936    7.9187    6.8595 H   0  0  0  0  0  0  0  0  0  0  0  0
    9.0725   10.1107    3.4174 H   0  0  0  0  0  0  0  0  0  0  0  0
    8.3905    9.1706    2.2062 H   0  0  0  0  0  0  0  0  0  0  0  0
  1  2  1  0  0  0  0
  1 27  1  0  0  0  0
  1 28  1  0  0  0  0
  1 29  1  0  0  0  0
  2  3  1  0  0  0  0
  2 30  1  0  0  0  0
  2 31  1  0  0  0  0
  3  4  1  0  0  0  0
  3 32  1  0  0  0  0
  3 33  1  0  0  0  0
  4  5  1  0  0  0  0
  5 10  2  0  0  0  0
  5  6  1  0  0  0  0
  6  7  2  0  0  0  0
  6 34  1  0  0  0  0
  7  8  1  0  0  0  0
  7 35  1  0  0  0  0
  8  9  2  0  0  0  0
  8 11  1  0  0  0  0
  9 10  1  0  0  0  0
  9 36  1  0  0  0  0
 10 37  1  0  0  0  0
 11 12  1  0  0  0  0
 11 24  1  0  0  0  0
 11 38  1  0  0  0  0
 12 13  1  0  0  0  0
 12 39  1  0  0  0  0
 12 40  1  0  0  0  0
 13 25  1  0  0  0  0
 13 41  1  0  0  0  0
 13 42  1  0  0  0  0
 14 15  1  0  0  0  0
 14 18  1  0  0  0  0
 14 25  1  0  0  0  0
 14 43  1  0  0  0  0
 15 16  1  0  0  0  0
 15 44  1  0  0  0  0
 15 45  1  0  0  0  0
 16 17  2  0  0  0  0
 16 26  1  0  0  0  0
 18 23  2  0  0  0  0
 18 19  1  0  0  0  0
 19 20  2  0  0  0  0
 19 46  1  0  0  0  0
 20 21  1  0  0  0  0
 20 47  1  0  0  0  0
 21 22  2  0  0  0  0
 21 48  1  0  0  0  0
 22 23  1  0  0  0  0
 22 49  1  0  0  0  0
 23 50  1  0  0  0  0
 24 51  1  0  0  0  0
 25 52  1  0  0  0  0
 25 53  1  0  0  0  0
M  END
> <Name>
ZINC02861235

> <reference>
BDB4997

> <quality>
0.669

> <status>
decoy

> <atoms in reference ligand area>
15

> <score>
-30.9998

$$$$
ZINC20636295
      BALL 1.4.0 (Jan  4 2012, 23:22:29)

 36 37  0999  0  0  0  0  0  0999 V2000
    9.2122   14.4761   -2.4308 C   0  0  0  0  0  0  0  0  0  0  0  0
   10.4013   13.7714   -2.4485 C   0  0  0  0  0  0  0  0  0  0  0  0
   10.5896   12.7117   -1.5810 C   0  0  0  0  0  0  0  0  0  0  0  0
    9.5886   12.3564   -0.6963 C   0  0  0  0  0  0  0  0  0  0  0  0
    8.3974   13.0575   -0.6826 C   0  0  0  0  0  0  0  0  0  0  0  0
    8.2112   14.1208   -1.5461 C   0  0  0  0  0  0  0  0  0  0  0  0
    9.7937   11.2008    0.2491 C   0  0  0  0  0  0  0  0  0  0  0  0
   11.1957   10.7778    0.2062 N   0  0  0  0  0  0  0  0  0  0  0  0
   11.7139   10.0589    1.2217 C   0  0  0  0  0  0  0  0  0  0  0  0
   11.0198    9.7623    2.1709 O   0  0  0  0  0  0  0  0  0  0  0  0
   13.1561    9.6238    1.1776 C   0  0  0  0  0  0  0  0  0  0  0  0
   13.4878    8.8287    2.4420 C   0  5  0  0  0  0  0  0  0  0  0  0
   14.9932    8.6820    2.6285 C   0  0  0  0  0  0  0  0  0  0  0  0
   15.7042    8.0965    1.8351 O   0  0  0  0  0  0  0  0  0  0  0  0
   15.4523    9.2417    3.7173 N   0  0  0  0  0  0  0  0  0  0  0  0
   14.7026    9.8842    4.5968 C   0  0  0  0  0  0  0  0  0  0  0  0
   13.0905    9.7850    3.9595 S   0  0  0  0  0  0  0  0  0  0  0  0
   15.1080   10.4931    5.7541 N   0  0  0  0  0  0  0  0  0  0  0  0
   16.3763   11.0306    5.8437 C   0  0  0  0  0  0  0  0  0  0  0  0
   16.5948   12.0592    6.6116 N   0  3  0  0  0  0  0  0  0  0  0  0
   17.4086   10.4799    5.1222 N   0  0  0  0  0  0  0  0  0  0  0  0
    9.0625   15.3196   -3.1208 H   0  0  0  0  0  0  0  0  0  0  0  0
   11.1977   14.0538   -3.1527 H   0  0  0  0  0  0  0  0  0  0  0  0
   11.5359   12.1512   -1.5947 H   0  0  0  0  0  0  0  0  0  0  0  0
    7.5976   12.7692    0.0154 H   0  0  0  0  0  0  0  0  0  0  0  0
    7.2666   14.6842   -1.5291 H   0  0  0  0  0  0  0  0  0  0  0  0
    9.5368   11.5135    1.2719 H   0  0  0  0  0  0  0  0  0  0  0  0
    9.1490   10.3615   -0.0506 H   0  0  0  0  0  0  0  0  0  0  0  0
   11.7852   11.0298   -0.5999 H   0  0  0  0  0  0  0  0  0  0  0  0
   13.3214    8.9909    0.2933 H   0  0  0  0  0  0  0  0  0  0  0  0
   13.8059   10.5095    1.1214 H   0  0  0  0  0  0  0  0  0  0  0  0
   14.4665   10.5502    6.5580 H   0  0  0  0  0  0  0  0  0  0  0  0
   15.8213   12.4718    7.1522 H   0  0  0  0  0  0  0  0  0  0  0  0
   17.5412   12.4602    6.6784 H   0  0  0  0  0  0  0  0  0  0  0  0
   18.1882   11.0731    4.8037 H   0  0  0  0  0  0  0  0  0  0  0  0
   17.4027    9.4742    4.9001 H   0  0  0  0  0  0  0  0  0  0  0  0
  1  6  2  0  0  0  0
  1  2  1  0  0  0  0
  1 22  1  0  0  0  0
  2  3  2  0  0  0  0
  2 23  1  0  0  0  0
  3  4  1  0  0  0  0
  3 24  1  0  0  0  0
  4  5  2  0  0  0  0
  4  7  1  0  0  0  0
  5  6  1  0  0  0  0
  5 25  1  0  0  0  0
  6 26  1  0  0  0  0
  7  8  1  0  0  0  0
  7 27  1  0  0  0  0
  7 28  1  0  0  0  0
  8  9  1  0  0  0  0
  8 29  1  0  0  0  0
  9 10  2  0  0  0  0
  9 11  1  0  0  0  0
 11 12  1  0  0  0  0
 11 30  1  0  0  0  0
 11 31  1  0  0  0  0
 12 17  1  0  0  0  0
 12 13  1  0  0  0  0
 13 14  2  0  0  0  0
 13 15  1  0  0  0  0
 15 16  2  0  0  0  0
 16 17  1  0  0  0  0
 16 18  1  0  0  0  0
 18 19  1  0  0  0  0
 18 32  1  0  0  0  0
 19 20  2  0  0  0  0
 19 21  1  0  0  0  0
 20 33  1  0  0  0  0
 20 34  1  0  0  0  0
 21 35  1  0  0  0  0
 21 36  1  0  0  0  0
M  END
> <Name>
ZINC20636295

> <reference>
BDB5200

> <quality>
0.830

> <status>
decoy

> <atoms in reference ligand area>
15

> <score>
-30.5402

$$$$
ZINC15636405
      BALL 1.4.0 (Jan  4 2012, 23:22:29)

 56 59  0999  0  0  0  0  0  0999 V2000
    9.2377    8.9112    5.7981 C   0  0  0  0  0  0  0  0  0  0  0  0
   10.1078    9.8699    5.3098 C   0  0  0  0  0  0  0  0  0  0  0  0
   10.1539   10.1396    3.9579 C   0  0  0  0  0  0  0  0  0  0  0  0
    9.3193    9.4423    3.0811 C   0  0  0  0  0  0  0  0  0  0  0  0
    8.4390    8.4801    3.5819 C   0  0  0  0  0  0  0  0  0  0  0  0
    8.4081    8.2166    4.9356 C   0  0  0  0  0  0  0  0  0  0  0  0
    9.3630    9.7249    1.6344 C   0  0  0  0  0  0  0  0  0  0  0  0
    8.4671    9.2144    0.8463 N   0  0  0  0  0  0  0  0  0  0  0  0
    7.5387    8.2917    1.3457 N   0  0  0  0  0  0  0  0  0  0  0  0
    6.3419    8.7169    1.7969 C   0  0  0  0  0  0  0  0  0  0  0  0
    6.2348    9.8258    2.2839 O   0  0  0  0  0  0  0  0  0  0  0  0
    5.1599    7.8351    1.6998 C   0  0  0  0  0  0  0  0  0  0  0  0
    4.6012    7.2817    2.8534 C   0  0  0  0  0  0  0  0  0  0  0  0
    3.4951    6.4633    2.7560 C   0  0  0  0  0  0  0  0  0  0  0  0
    2.9460    6.1816    1.5174 C   0  0  0  0  0  0  0  0  0  0  0  0
    3.4943    6.7270    0.3704 C   0  0  0  0  0  0  0  0  0  0  0  0
    4.5975    7.5514    0.4541 C   0  0  0  0  0  0  0  0  0  0  0  0
    2.8965    6.4251   -0.9496 N   0  0  0  0  0  0  0  0  0  0  0  0
    1.8062    6.8817   -1.2431 O   0  0  0  0  0  0  0  0  0  0  0  0
    3.4950    5.7201   -1.7423 O   0  0  0  0  0  0  0  0  0  0  0  0
   10.4477   10.6065    1.0713 C   0  0  0  0  0  0  0  0  0  0  0  0
   10.1491   12.0666    1.4171 C   0  0  0  0  0  0  0  0  0  0  0  0
   11.1652   12.9585    0.7513 C   0  0  0  0  0  0  0  0  0  0  0  0
   11.8835   13.9283    1.3294 C   0  0  0  0  0  0  0  0  0  0  0  0
   12.0197   14.4236   -0.8662 C   0  0  0  0  0  0  0  0  0  0  0  0
   11.5768   12.9322   -0.6849 C   0  0  0  0  0  0  0  0  0  0  0  0
   10.5675   12.6714   -1.7479 C   0  0  0  0  0  0  0  0  0  0  0  0
   10.9114   13.1187   -2.9739 C   0  0  0  0  0  0  0  0  0  0  0  0
   12.2132   13.7893   -3.1701 C   0  0  0  0  0  0  0  0  0  0  0  0
   12.7796   14.4832   -2.1471 C   0  0  0  0  0  0  0  0  0  0  0  0
    8.7692   12.4263    0.9298 C   0  0  0  0  0  0  0  0  0  0  0  0
    8.5523   12.5200   -0.2551 O   0  0  0  0  0  0  0  0  0  0  0  0
   12.6898   14.5609    0.3955 N   0  3  0  0  0  0  0  0  0  0  0  0
    7.7810   12.6424    1.8122 O   0  5  0  0  0  0  0  0  0  0  0  0
    9.2055    8.7002    6.8772 H   0  0  0  0  0  0  0  0  0  0  0  0
   10.7642   10.4183    6.0014 H   0  0  0  0  0  0  0  0  0  0  0  0
   10.8462   10.9018    3.5711 H   0  0  0  0  0  0  0  0  0  0  0  0
    7.7721    7.9340    2.8985 H   0  0  0  0  0  0  0  0  0  0  0  0
    7.7223    7.4525    5.3303 H   0  0  0  0  0  0  0  0  0  0  0  0
    7.7706    7.2884    1.3680 H   0  0  0  0  0  0  0  0  0  0  0  0
    5.0421    7.4978    3.8378 H   0  0  0  0  0  0  0  0  0  0  0  0
    3.0485    6.0337    3.6649 H   0  0  0  0  0  0  0  0  0  0  0  0
    2.0695    5.5210    1.4446 H   0  0  0  0  0  0  0  0  0  0  0  0
    5.0329    7.9841   -0.4586 H   0  0  0  0  0  0  0  0  0  0  0  0
   10.4860   10.4898   -0.0219 H   0  0  0  0  0  0  0  0  0  0  0  0
   11.4167   10.3183    1.5049 H   0  0  0  0  0  0  0  0  0  0  0  0
   10.2001   12.2029    2.5075 H   0  0  0  0  0  0  0  0  0  0  0  0
   11.8402   14.1876    2.3975 H   0  0  0  0  0  0  0  0  0  0  0  0
   11.3129   15.2552   -1.0042 H   0  0  0  0  0  0  0  0  0  0  0  0
   12.2805   12.0982   -0.8228 H   0  0  0  0  0  0  0  0  0  0  0  0
    9.6168   12.1549   -1.5497 H   0  0  0  0  0  0  0  0  0  0  0  0
   10.2254   12.9847   -3.8233 H   0  0  0  0  0  0  0  0  0  0  0  0
   12.7236   13.7272   -4.1426 H   0  0  0  0  0  0  0  0  0  0  0  0
   13.7206   15.0423   -2.2557 H   0  0  0  0  0  0  0  0  0  0  0  0
   12.7880   15.5583    0.6332 H   0  0  0  0  0  0  0  0  0  0  0  0
   13.6105   14.1009    0.3548 H   0  0  0  0  0  0  0  0  0  0  0  0
  1  6  2  0  0  0  0
  1  2  1  0  0  0  0
  1 35  1  0  0  0  0
  2  3  2  0  0  0  0
  2 36  1  0  0  0  0
  3  4  1  0  0  0  0
  3 37  1  0  0  0  0
  4  5  2  0  0  0  0
  4  7  1  0  0  0  0
  5  6  1  0  0  0  0
  5 38  1  0  0  0  0
  6 39  1  0  0  0  0
  7  8  2  0  0  0  0
  7 21  1  0  0  0  0
  8  9  1  0  0  0  0
  9 10  1  0  0  0  0
  9 40  1  0  0  0  0
 10 11  2  0  0  0  0
 10 12  1  0  0  0  0
 12 17  2  0  0  0  0
 12 13  1  0  0  0  0
 13 14  2  0  0  0  0
 13 41  1  0  0  0  0
 14 15  1  0  0  0  0
 14 42  1  0  0  0  0
 15 16  2  0  0  0  0
 15 43  1  0  0  0  0
 16 17  1  0  0  0  0
 16 18  1  0  0  0  0
 17 44  1  0  0  0  0
 18 19  2  0  0  0  0
 18 20  2  0  0  0  0
 21 22  1  0  0  0  0
 21 45  1  0  0  0  0
 21 46  1  0  0  0  0
 22 23  1  0  0  0  0
 22 31  1  0  0  0  0
 22 47  1  0  0  0  0
 23 26  1  0  0  0  0
 23 24  2  0  0  0  0
 24 33  1  0  0  0  0
 24 48  1  0  0  0  0
 25 30  1  0  0  0  0
 25 26  1  0  0  0  0
 25 33  1  0  0  0  0
 25 49  1  0  0  0  0
 26 27  1  0  0  0  0
 26 50  1  0  0  0  0
 27 28  2  0  0  0  0
 27 51  1  0  0  0  0
 28 29  1  0  0  0  0
 28 52  1  0  0  0  0
 29 30  2  0  0  0  0
 29 53  1  0  0  0  0
 30 54  1  0  0  0  0
 31 32  2  0  0  0  0
 31 34  1  0  0  0  0
 33 55  1  0  0  0  0
 33 56  1  0  0  0  0
M  END
> <Name>
ZINC15636405

> <reference>
BDB4968

> <quality>
0.817

> <status>
decoy

> <atoms in reference ligand area>
19

> <score>
-30.4138

$$$$
ZINC05114471
      BALL 1.4.0 (Jan  4 2012, 23:22:29)

 41 41  0999  0  0  0  0  0  0999 V2000
    8.7922   14.4600   -3.3493 C   0  0  0  0  0  0  0  0  0  0  0  0
    9.5777   13.6197   -2.3404 C   0  0  0  0  0  0  0  0  0  0  0  0
   10.5989   12.7550   -3.0822 C   0  0  0  0  0  0  0  0  0  0  0  0
    8.6132   12.7189   -1.5662 C   0  0  0  0  0  0  0  0  0  0  0  0
    8.7948   12.9488   -0.0646 C   0  0  0  0  0  0  0  0  0  0  0  0
    8.3232   11.7328    0.6904 C   0  0  0  0  0  0  0  0  0  0  0  0
    9.0996   10.8351    0.9399 O   0  0  0  0  0  0  0  0  0  0  0  0
    7.0387   11.6428    1.0883 N   0  0  0  0  0  0  0  0  0  0  0  0
   10.3993   13.6464    1.6093 C   0  0  0  0  0  0  0  0  0  0  0  0
   11.8179   13.3113    2.0743 C   0  0  0  0  0  0  0  0  0  0  0  0
   11.9160   11.8357    2.3641 C   0  0  0  0  0  0  0  0  0  0  0  0
   11.4162   11.1932    3.4369 C   0  0  0  0  0  0  0  0  0  0  0  0
   11.7165    9.8914    3.3181 N   0  0  0  0  0  0  0  0  0  0  0  0
   12.3835    9.7027    2.2124 C   0  0  0  0  0  0  0  0  0  0  0  0
   12.5254   10.8899    1.5844 N   0  0  0  0  0  0  0  0  0  0  0  0
   10.1889   15.1373    1.6726 C   0  0  0  0  0  0  0  0  0  0  0  0
   10.0539   15.7722    0.6535 O   0  0  0  0  0  0  0  0  0  0  0  0
   10.2231   13.1827    0.2200 N   0  0  0  0  0  0  0  0  0  0  0  0
   10.1515   15.7599    2.8612 O   0  5  0  0  0  0  0  0  0  0  0  0
    7.2187   13.0237   -1.9320 N   0  3  0  0  0  0  0  0  0  0  0  0
    9.3061   15.4195   -3.5078 H   0  0  0  0  0  0  0  0  0  0  0  0
    7.7794   14.6467   -2.9628 H   0  0  0  0  0  0  0  0  0  0  0  0
    8.7249   13.9190   -4.3047 H   0  0  0  0  0  0  0  0  0  0  0  0
   10.1017   14.2848   -1.6383 H   0  0  0  0  0  0  0  0  0  0  0  0
   10.7698   11.8246   -2.5208 H   0  0  0  0  0  0  0  0  0  0  0  0
   11.5468   13.3050   -3.1767 H   0  0  0  0  0  0  0  0  0  0  0  0
   10.2157   12.5120   -4.0842 H   0  0  0  0  0  0  0  0  0  0  0  0
    8.8318   11.6706   -1.8181 H   0  0  0  0  0  0  0  0  0  0  0  0
    8.2070   13.8236    0.2504 H   0  0  0  0  0  0  0  0  0  0  0  0
    6.7506   10.8926    1.7326 H   0  0  0  0  0  0  0  0  0  0  0  0
    6.3452   12.3241    0.7481 H   0  0  0  0  0  0  0  0  0  0  0  0
    9.6679   13.1471    2.2617 H   0  0  0  0  0  0  0  0  0  0  0  0
   12.5354   13.5778    1.2844 H   0  0  0  0  0  0  0  0  0  0  0  0
   12.0495   13.8797    2.9872 H   0  0  0  0  0  0  0  0  0  0  0  0
   10.8592   11.6550    4.2654 H   0  0  0  0  0  0  0  0  0  0  0  0
   12.7667    8.7368    1.8517 H   0  0  0  0  0  0  0  0  0  0  0  0
   13.0029   11.0531    0.6865 H   0  0  0  0  0  0  0  0  0  0  0  0
   10.5885   13.8965   -0.4263 H   0  0  0  0  0  0  0  0  0  0  0  0
    7.1468   14.0194   -2.1856 H   0  0  0  0  0  0  0  0  0  0  0  0
    6.6094   12.8349   -1.1234 H   0  0  0  0  0  0  0  0  0  0  0  0
    6.9289   12.4400   -2.7297 H   0  0  0  0  0  0  0  0  0  0  0  0
  1  2  1  0  0  0  0
  1 21  1  0  0  0  0
  1 22  1  0  0  0  0
  1 23  1  0  0  0  0
  2  3  1  0  0  0  0
  2  4  1  0  0  0  0
  2 24  1  0  0  0  0
  3 25  1  0  0  0  0
  3 26  1  0  0  0  0
  3 27  1  0  0  0  0
  4  5  1  0  0  0  0
  4 20  1  0  0  0  0
  4 28  1  0  0  0  0
  5  6  1  0  0  0  0
  5 18  1  0  0  0  0
  5 29  1  0  0  0  0
  6  7  2  0  0  0  0
  6  8  1  0  0  0  0
  8 30  1  0  0  0  0
  8 31  1  0  0  0  0
  9 10  1  0  0  0  0
  9 16  1  0  0  0  0
  9 18  1  0  0  0  0
  9 32  1  0  0  0  0
 10 11  1  0  0  0  0
 10 33  1  0  0  0  0
 10 34  1  0  0  0  0
 11 15  1  0  0  0  0
 11 12  2  0  0  0  0
 12 13  1  0  0  0  0
 12 35  1  0  0  0  0
 13 14  2  0  0  0  0
 14 15  1  0  0  0  0
 14 36  1  0  0  0  0
 15 37  1  0  0  0  0
 16 17  2  0  0  0  0
 16 19  1  0  0  0  0
 18 38  1  0  0  0  0
 20 39  1  0  0  0  0
 20 40  1  0  0  0  0
 20 41  1  0  0  0  0
M  END
> <Name>
ZINC05114471

> <reference>
BDB5021

> <quality>
0.683

> <status>
decoy

> <atoms in reference ligand area>
31

> <score>
-30.2488

$$$$
ZINC06413685
      BALL 1.4.0 (Jan  4 2012, 23:22:29)

 35 36  0999  0  0  0  0  0  0999 V2000
    7.4514   13.3497    2.3034 C   0  0  0  0  0  0  0  0  0  0  0  0
    8.0731   12.0232    2.3199 N   0  0  0  0  0  0  0  0  0  0  0  0
    9.4091   11.8889    2.6625 C   0  0  0  0  0  0  0  0  0  0  0  0
    9.9746   10.6180    2.6696 C   0  0  0  0  0  0  0  0  0  0  0  0
    9.1780    9.5105    2.3305 C   0  0  0  0  0  0  0  0  0  0  0  0
    9.6524    8.3879    2.3297 O   0  0  0  0  0  0  0  0  0  0  0  0
    7.8828    9.7033    2.0055 N   0  0  0  0  0  0  0  0  0  0  0  0
    7.3475   10.9361    1.9964 C   0  0  0  0  0  0  0  0  0  0  0  0
    6.1778   11.0726    1.6930 O   0  0  0  0  0  0  0  0  0  0  0  0
    7.0489    8.5520    1.6515 C   0  0  0  0  0  0  0  0  0  0  0  0
   11.3019   10.7824    3.0433 N   0  5  0  0  0  0  0  0  0  0  0  0
   11.4895   12.1148    3.2445 C   0  0  0  0  0  0  0  0  0  0  0  0
   10.3600   12.7549    3.0150 N   0  0  0  0  0  0  0  0  0  0  0  0
   13.0054   12.8674    3.7349 S   0  0  0  0  0  0  0  0  0  0  0  0
   13.8566   11.4320    4.4357 C   0  0  0  0  0  0  0  0  0  0  0  0
   15.1025   11.8869    5.1513 C   0  0  0  0  0  0  0  0  0  0  0  0
   15.7909   12.7632    4.6729 O   0  0  0  0  0  0  0  0  0  0  0  0
   15.4516   11.3198    6.3231 N   0  0  0  0  0  0  0  0  0  0  0  0
   16.6626   11.7619    7.0188 C   0  0  0  0  0  0  0  0  0  0  0  0
   17.5088   10.5437    7.3941 C   0  0  0  0  0  0  0  0  0  0  0  0
   18.4915   10.9253    8.3588 O   0  0  0  0  0  0  0  0  0  0  0  0
    6.5961   13.2571    1.6180 H   0  0  0  0  0  0  0  0  0  0  0  0
    8.1887   14.0062    1.8183 H   0  0  0  0  0  0  0  0  0  0  0  0
    7.1546   13.7148    3.2978 H   0  0  0  0  0  0  0  0  0  0  0  0
    6.0922    8.9785    1.3157 H   0  0  0  0  0  0  0  0  0  0  0  0
    6.8596    8.0278    2.5999 H   0  0  0  0  0  0  0  0  0  0  0  0
    7.5014    7.8946    0.8944 H   0  0  0  0  0  0  0  0  0  0  0  0
   14.1313   10.7371    3.6285 H   0  0  0  0  0  0  0  0  0  0  0  0
   13.1908   10.9224    5.1478 H   0  0  0  0  0  0  0  0  0  0  0  0
   14.8669   10.5755    6.7294 H   0  0  0  0  0  0  0  0  0  0  0  0
   16.3835   12.3088    7.9315 H   0  0  0  0  0  0  0  0  0  0  0  0
   17.2443   12.4224    6.3590 H   0  0  0  0  0  0  0  0  0  0  0  0
   16.8605    9.7641    7.8205 H   0  0  0  0  0  0  0  0  0  0  0  0
   18.0099   10.1532    6.4961 H   0  0  0  0  0  0  0  0  0  0  0  0
   18.7398   11.8737    8.2210 H   0  0  0  0  0  0  0  0  0  0  0  0
  1  2  1  0  0  0  0
  1 22  1  0  0  0  0
  1 23  1  0  0  0  0
  1 24  1  0  0  0  0
  2  8  1  0  0  0  0
  2  3  1  0  0  0  0
  3 13  1  0  0  0  0
  3  4  2  0  0  0  0
  4  5  1  0  0  0  0
  4 11  1  0  0  0  0
  5  6  2  0  0  0  0
  5  7  1  0  0  0  0
  7  8  1  0  0  0  0
  7 10  1  0  0  0  0
  8  9  2  0  0  0  0
 10 25  1  0  0  0  0
 10 26  1  0  0  0  0
 10 27  1  0  0  0  0
 11 12  1  0  0  0  0
 12 13  2  0  0  0  0
 12 14  1  0  0  0  0
 14 15  1  0  0  0  0
 15 16  1  0  0  0  0
 15 28  1  0  0  0  0
 15 29  1  0  0  0  0
 16 17  2  0  0  0  0
 16 18  1  0  0  0  0
 18 19  1  0  0  0  0
 18 30  1  0  0  0  0
 19 20  1  0  0  0  0
 19 31  1  0  0  0  0
 19 32  1  0  0  0  0
 20 21  1  0  0  0  0
 20 33  1  0  0  0  0
 20 34  1  0  0  0  0
 21 35  1  0  0  0  0
M  END
> <Name>
ZINC06413685

> <reference>
BDB4932

> <quality>
0.694

> <status>
decoy

> <atoms in reference ligand area>
12

> <score>
-30.2167

$$$$
ZINC30969187
      BALL 1.4.0 (Jan  4 2012, 23:22:29)

 60 61  0999  0  0  0  0  0  0999 V2000
   10.9860   13.2927   -3.2192 C   0  0  0  0  0  0  0  0  0  0  0  0
   10.9489   12.7092   -1.8054 C   0  0  0  0  0  0  0  0  0  0  0  0
   11.9166   13.4838   -0.9084 C   0  0  0  0  0  0  0  0  0  0  0  0
   11.5394   13.2643    0.5580 C   0  0  0  0  0  0  0  0  0  0  0  0
   12.5607   12.4383    1.2067 N   0  0  0  0  0  0  0  0  0  0  0  0
   12.6752   12.4394    2.5496 C   0  0  0  0  0  0  0  0  0  0  0  0
   11.9328   13.1242    3.2210 O   0  0  0  0  0  0  0  0  0  0  0  0
   13.7258   11.5896    3.2169 C   0  0  0  0  0  0  0  0  0  0  0  0
   13.0520   10.4334    3.9610 C   0  0  0  0  0  0  0  0  0  0  0  0
   14.1185    9.6097    4.6865 C   0  0  0  0  0  0  0  0  0  0  0  0
   14.8425   10.4685    5.6324 N   0  0  0  0  0  0  0  0  0  0  0  0
   15.5368   11.5588    4.9354 C   0  0  0  0  0  0  0  0  0  0  0  0
   14.5126   12.4406    4.2174 C   0  0  0  0  0  0  0  0  0  0  0  0
   15.7800    9.6824    6.4456 C   0  0  0  0  0  0  0  0  0  0  0  0
   16.4382   10.5799    7.4617 C   0  0  0  0  0  0  0  0  0  0  0  0
   16.7155   11.7242    7.1708 O   0  0  0  0  0  0  0  0  0  0  0  0
   16.7184   10.1109    8.6938 N   0  0  0  0  0  0  0  0  0  0  0  0
   18.0198    9.6970    9.0065 N   0  0  0  0  0  0  0  0  0  0  0  0
   18.6223   10.1530   10.1224 C   0  0  0  0  0  0  0  0  0  0  0  0
   18.1182   11.0544   10.7585 O   0  0  0  0  0  0  0  0  0  0  0  0
   19.9223    9.5433   10.5800 C   0  0  0  0  0  0  0  0  0  0  0  0
   21.0564   10.5506   10.3800 C   0  0  0  0  0  0  0  0  0  0  0  0
   21.0842   11.0028    8.9106 C   0  0  0  0  0  0  0  0  0  0  0  0
   22.0213   12.2396    8.8022 C   0  0  0  0  0  0  0  0  0  0  0  0
   21.5495   13.1549   10.3300 S   0  0  0  0  0  0  0  0  0  0  0  0
   20.5212   14.0833   10.0139 O   0  0  0  0  0  0  0  0  0  0  0  0
   22.7288   13.6108   10.9786 O   0  0  0  0  0  0  0  0  0  0  0  0
   20.8279   11.7714   11.3036 C   0  0  0  0  0  0  0  0  0  0  0  0
   10.2348   14.0914   -3.3072 H   0  0  0  0  0  0  0  0  0  0  0  0
   10.7653   12.5005   -3.9498 H   0  0  0  0  0  0  0  0  0  0  0  0
   11.9851   13.7068   -3.4197 H   0  0  0  0  0  0  0  0  0  0  0  0
    9.9292   12.7919   -1.4011 H   0  0  0  0  0  0  0  0  0  0  0  0
   11.2464   11.6507   -1.8365 H   0  0  0  0  0  0  0  0  0  0  0  0
   12.9423   13.1256   -1.0802 H   0  0  0  0  0  0  0  0  0  0  0  0
   11.8584   14.5565   -1.1447 H   0  0  0  0  0  0  0  0  0  0  0  0
   11.4751   14.2360    1.0695 H   0  0  0  0  0  0  0  0  0  0  0  0
   10.5661   12.7549    0.6151 H   0  0  0  0  0  0  0  0  0  0  0  0
   13.1911   11.8567    0.6365 H   0  0  0  0  0  0  0  0  0  0  0  0
   14.4091   11.1899    2.4531 H   0  0  0  0  0  0  0  0  0  0  0  0
   12.5204    9.7927    3.2420 H   0  0  0  0  0  0  0  0  0  0  0  0
   12.3375   10.8354    4.6945 H   0  0  0  0  0  0  0  0  0  0  0  0
   13.6363    8.7868    5.2344 H   0  0  0  0  0  0  0  0  0  0  0  0
   14.8259    9.1961    3.9526 H   0  0  0  0  0  0  0  0  0  0  0  0
   16.0937   12.1646    5.6653 H   0  0  0  0  0  0  0  0  0  0  0  0
   16.2369   11.1374    4.1990 H   0  0  0  0  0  0  0  0  0  0  0  0
   15.0348   13.2476    3.6824 H   0  0  0  0  0  0  0  0  0  0  0  0
   13.8218   12.8747    4.9550 H   0  0  0  0  0  0  0  0  0  0  0  0
   15.2330    8.8813    6.9643 H   0  0  0  0  0  0  0  0  0  0  0  0
   16.5491    9.2398    5.7956 H   0  0  0  0  0  0  0  0  0  0  0  0
   15.9758   10.0568    9.4055 H   0  0  0  0  0  0  0  0  0  0  0  0
   18.5162    9.0440    8.3835 H   0  0  0  0  0  0  0  0  0  0  0  0
   19.8494    9.2809   11.6458 H   0  0  0  0  0  0  0  0  0  0  0  0
   20.1302    8.6368    9.9926 H   0  0  0  0  0  0  0  0  0  0  0  0
   22.0188   10.0814   10.6322 H   0  0  0  0  0  0  0  0  0  0  0  0
   21.4723   10.1891    8.2802 H   0  0  0  0  0  0  0  0  0  0  0  0
   20.0695   11.2793    8.5882 H   0  0  0  0  0  0  0  0  0  0  0  0
   23.0772   11.9363    8.8575 H   0  0  0  0  0  0  0  0  0  0  0  0
   21.7762   12.8407    7.9141 H   0  0  0  0  0  0  0  0  0  0  0  0
   21.3798   11.6513   12.2475 H   0  0  0  0  0  0  0  0  0  0  0  0
   19.7523   11.9436   11.4570 H   0  0  0  0  0  0  0  0  0  0  0  0
  1  2  1  0  0  0  0
  1 29  1  0  0  0  0
  1 30  1  0  0  0  0
  1 31  1  0  0  0  0
  2  3  1  0  0  0  0
  2 32  1  0  0  0  0
  2 33  1  0  0  0  0
  3  4  1  0  0  0  0
  3 34  1  0  0  0  0
  3 35  1  0  0  0  0
  4  5  1  0  0  0  0
  4 36  1  0  0  0  0
  4 37  1  0  0  0  0
  5  6  1  0  0  0  0
  5 38  1  0  0  0  0
  6  7  2  0  0  0  0
  6  8  1  0  0  0  0
  8 13  1  0  0  0  0
  8  9  1  0  0  0  0
  8 39  1  0  0  0  0
  9 10  1  0  0  0  0
  9 40  1  0  0  0  0
  9 41  1  0  0  0  0
 10 11  1  0  0  0  0
 10 42  1  0  0  0  0
 10 43  1  0  0  0  0
 11 12  1  0  0  0  0
 11 14  1  0  0  0  0
 12 13  1  0  0  0  0
 12 44  1  0  0  0  0
 12 45  1  0  0  0  0
 13 46  1  0  0  0  0
 13 47  1  0  0  0  0
 14 15  1  0  0  0  0
 14 48  1  0  0  0  0
 14 49  1  0  0  0  0
 15 16  2  0  0  0  0
 15 17  1  0  0  0  0
 17 18  1  0  0  0  0
 17 50  1  0  0  0  0
 18 19  1  0  0  0  0
 18 51  1  0  0  0  0
 19 20  2  0  0  0  0
 19 21  1  0  0  0  0
 21 22  1  0  0  0  0
 21 52  1  0  0  0  0
 21 53  1  0  0  0  0
 22 28  1  0  0  0  0
 22 23  1  0  0  0  0
 22 54  1  0  0  0  0
 23 24  1  0  0  0  0
 23 55  1  0  0  0  0
 23 56  1  0  0  0  0
 24 25  1  0  0  0  0
 24 57  1  0  0  0  0
 24 58  1  0  0  0  0
 25 26  2  0  0  0  0
 25 27  2  0  0  0  0
 25 28  1  0  0  0  0
 28 59  1  0  0  0  0
 28 60  1  0  0  0  0
M  END
> <Name>
ZINC30969187

> <reference>
BDB4965

> <quality>
0.662

> <status>
decoy

> <atoms in reference ligand area>
13

> <score>
-30.0111

$$$$
ZINC26140662
      BALL 1.4.0 (Jan  4 2012, 23:22:29)

 39 41  0999  0  0  0  0  0  0999 V2000
    8.0593   13.0710    1.9207 C   0  0  0  0  0  0  0  0  0  0  0  0
    8.4220   13.8816    3.0160 C   0  0  0  0  0  0  0  0  0  0  0  0
    9.6566   13.8075    3.5432 C   0  0  0  0  0  0  0  0  0  0  0  0
   10.5861   12.9331    3.0322 N   0  0  0  0  0  0  0  0  0  0  0  0
   10.2583   12.1262    1.9586 C   0  0  0  0  0  0  0  0  0  0  0  0
    8.9593   12.2044    1.3956 C   0  0  0  0  0  0  0  0  0  0  0  0
   11.3040   11.3925    1.6563 N   0  0  0  0  0  0  0  0  0  0  0  0
   12.3345   11.7242    2.5467 N   0  0  0  0  0  0  0  0  0  0  0  0
   11.8627   12.6739    3.3802 C   0  0  0  0  0  0  0  0  0  0  0  0
   12.4808   13.2039    4.2872 O   0  0  0  0  0  0  0  0  0  0  0  0
   13.6796   11.1443    2.5684 C   0  0  0  0  0  0  0  0  0  0  0  0
   13.5788    9.6408    2.5518 C   0  0  0  0  0  0  0  0  0  0  0  0
   13.1598    9.0503    3.5248 O   0  0  0  0  0  0  0  0  0  0  0  0
   13.9541    8.9523    1.4556 N   0  0  0  0  0  0  0  0  0  0  0  0
   13.8561    7.4907    1.4395 C   0  0  0  0  0  0  0  0  0  0  0  0
   13.8511    6.9959   -0.0083 C   0  0  0  0  0  0  0  0  0  0  0  0
   12.6080    6.2664   -0.2708 N   0  0  0  0  0  0  0  0  0  0  0  0
   12.0802    6.2587   -1.5109 C   0  0  0  0  0  0  0  0  0  0  0  0
   12.6362    6.8575   -2.4126 O   0  0  0  0  0  0  0  0  0  0  0  0
   10.8358    5.5283   -1.7736 C   0  0  0  0  0  0  0  0  0  0  0  0
    9.6815    5.6237   -1.0503 C   0  0  0  0  0  0  0  0  0  0  0  0
    8.7558    4.7566   -1.6516 C   0  0  0  0  0  0  0  0  0  0  0  0
    9.3777    4.1773   -2.7021 C   0  0  0  0  0  0  0  0  0  0  0  0
   10.6291    4.6488   -2.7755 O   0  0  0  0  0  0  0  0  0  0  0  0
    7.0482   13.1418    1.4935 H   0  0  0  0  0  0  0  0  0  0  0  0
    7.6882   14.5811    3.4429 H   0  0  0  0  0  0  0  0  0  0  0  0
    9.9256   14.4532    4.3921 H   0  0  0  0  0  0  0  0  0  0  0  0
    8.6848   11.5681    0.5413 H   0  0  0  0  0  0  0  0  0  0  0  0
   14.2041   11.4658    3.4803 H   0  0  0  0  0  0  0  0  0  0  0  0
   14.2396   11.4835    1.6844 H   0  0  0  0  0  0  0  0  0  0  0  0
   14.3099    9.4538    0.6292 H   0  0  0  0  0  0  0  0  0  0  0  0
   14.7172    7.0594    1.9708 H   0  0  0  0  0  0  0  0  0  0  0  0
   12.9252    7.1790    1.9359 H   0  0  0  0  0  0  0  0  0  0  0  0
   13.9217    7.8561   -0.6902 H   0  0  0  0  0  0  0  0  0  0  0  0
   14.7092    6.3272   -0.1714 H   0  0  0  0  0  0  0  0  0  0  0  0
   12.1374    5.7594    0.4924 H   0  0  0  0  0  0  0  0  0  0  0  0
    9.5103    6.2573   -0.1676 H   0  0  0  0  0  0  0  0  0  0  0  0
    7.7190    4.5816   -1.3284 H   0  0  0  0  0  0  0  0  0  0  0  0
    8.9300    3.4399   -3.3845 H   0  0  0  0  0  0  0  0  0  0  0  0
  1  6  2  0  0  0  0
  1  2  1  0  0  0  0
  1 25  1  0  0  0  0
  2  3  2  0  0  0  0
  2 26  1  0  0  0  0
  3  4  1  0  0  0  0
  3 27  1  0  0  0  0
  4  9  1  0  0  0  0
  4  5  1  0  0  0  0
  5  6  1  0  0  0  0
  5  7  2  0  0  0  0
  6 28  1  0  0  0  0
  7  8  1  0  0  0  0
  8  9  1  0  0  0  0
  8 11  1  0  0  0  0
  9 10  2  0  0  0  0
 11 12  1  0  0  0  0
 11 29  1  0  0  0  0
 11 30  1  0  0  0  0
 12 13  2  0  0  0  0
 12 14  1  0  0  0  0
 14 15  1  0  0  0  0
 14 31  1  0  0  0  0
 15 16  1  0  0  0  0
 15 32  1  0  0  0  0
 15 33  1  0  0  0  0
 16 17  1  0  0  0  0
 16 34  1  0  0  0  0
 16 35  1  0  0  0  0
 17 18  1  0  0  0  0
 17 36  1  0  0  0  0
 18 19  2  0  0  0  0
 18 20  1  0  0  0  0
 20 24  1  0  0  0  0
 20 21  2  0  0  0  0
 21 22  1  0  0  0  0
 21 37  1  0  0  0  0
 22 23  2  0  0  0  0
 22 38  1  0  0  0  0
 23 24  1  0  0  0  0
 23 39  1  0  0  0  0
M  END
> <Name>
ZINC26140662

> <reference>
BDB5228

> <quality>
0.682

> <status>
decoy

> <atoms in reference ligand area>
12

> <score>
-29.8196

$$$$
ZINC31561356
      BALL 1.4.0 (Jan  4 2012, 23:22:29)

 37 37  0999  0  0  0  0  0  0999 V2000
   11.6940   15.9518   -0.5489 C   0  0  0  0  0  0  0  0  0  0  0  0
   10.2076   15.7997   -0.2083 C   0  0  0  0  0  0  0  0  0  0  0  0
    9.8967   14.3421    0.0076 C   0  0  0  0  0  0  0  0  0  0  0  0
    9.0014   14.0309    0.7635 O   0  0  0  0  0  0  0  0  0  0  0  0
   10.5909   13.3814   -0.6206 N   0  0  0  0  0  0  0  0  0  0  0  0
   11.6039   13.6517   -1.4573 C   0  0  0  0  0  0  0  0  0  0  0  0
   12.2013   12.7369   -1.9824 O   0  0  0  0  0  0  0  0  0  0  0  0
   12.0095   15.0697   -1.7615 C   0  0  0  0  0  0  0  0  0  0  0  0
   10.2324   11.9817   -0.3787 C   0  0  0  0  0  0  0  0  0  0  0  0
    8.7380   11.8848   -0.0652 C   0  0  0  0  0  0  0  0  0  0  0  0
    8.4532   10.5673    0.6587 C   0  0  0  0  0  0  0  0  0  0  0  0
    7.7003    9.6728   -0.2307 N   0  3  0  0  0  0  0  0  0  0  0  0
    7.4082    8.3949    0.4324 C   0  0  0  0  0  0  0  0  0  0  0  0
    5.9199    8.0724    0.2850 C   0  0  0  0  0  0  0  0  0  0  0  0
    5.4344    6.8662    1.5499 S   0  0  0  0  0  0  0  0  0  0  0  0
    5.3514    8.0028    3.3375 P   0  0  0  0  0  0  0  0  0  0  0  0
    6.4682    7.6084    4.2251 O   0  0  0  0  0  0  0  0  0  0  0  0
    5.4742    9.5687    2.9840 O   0  5  0  0  0  0  0  0  0  0  0  0
    3.9509    7.7292    4.0830 O   0  5  0  0  0  0  0  0  0  0  0  0
   11.9107   17.0031   -0.7896 H   0  0  0  0  0  0  0  0  0  0  0  0
   12.3031   15.6313    0.3091 H   0  0  0  0  0  0  0  0  0  0  0  0
    9.5979   16.1857   -1.0386 H   0  0  0  0  0  0  0  0  0  0  0  0
    9.9812   16.3629    0.7091 H   0  0  0  0  0  0  0  0  0  0  0  0
   13.0885   15.1054   -1.9727 H   0  0  0  0  0  0  0  0  0  0  0  0
   11.4492   15.4324   -2.6359 H   0  0  0  0  0  0  0  0  0  0  0  0
   10.4579   11.3852   -1.2749 H   0  0  0  0  0  0  0  0  0  0  0  0
   10.8108   11.5959    0.4738 H   0  0  0  0  0  0  0  0  0  0  0  0
    8.4427   12.7271    0.5776 H   0  0  0  0  0  0  0  0  0  0  0  0
    8.1627   11.9192   -1.0022 H   0  0  0  0  0  0  0  0  0  0  0  0
    9.4036   10.0899    0.9391 H   0  0  0  0  0  0  0  0  0  0  0  0
    7.8613   10.7658    1.5644 H   0  0  0  0  0  0  0  0  0  0  0  0
    6.8150   10.1261   -0.4984 H   0  0  0  0  0  0  0  0  0  0  0  0
    8.2526    9.4946   -1.0816 H   0  0  0  0  0  0  0  0  0  0  0  0
    8.0038    7.5956   -0.0328 H   0  0  0  0  0  0  0  0  0  0  0  0
    7.6627    8.4678    1.5000 H   0  0  0  0  0  0  0  0  0  0  0  0
    5.7319    7.6510   -0.7136 H   0  0  0  0  0  0  0  0  0  0  0  0
    5.3308    8.9927    0.4116 H   0  0  0  0  0  0  0  0  0  0  0  0
  1  8  1  0  0  0  0
  1  2  1  0  0  0  0
  1 20  1  0  0  0  0
  1 21  1  0  0  0  0
  2  3  1  0  0  0  0
  2 22  1  0  0  0  0
  2 23  1  0  0  0  0
  3  4  2  0  0  0  0
  3  5  1  0  0  0  0
  5  6  1  0  0  0  0
  5  9  1  0  0  0  0
  6  7  2  0  0  0  0
  6  8  1  0  0  0  0
  8 24  1  0  0  0  0
  8 25  1  0  0  0  0
  9 10  1  0  0  0  0
  9 26  1  0  0  0  0
  9 27  1  0  0  0  0
 10 11  1  0  0  0  0
 10 28  1  0  0  0  0
 10 29  1  0  0  0  0
 11 12  1  0  0  0  0
 11 30  1  0  0  0  0
 11 31  1  0  0  0  0
 12 13  1  0  0  0  0
 12 32  1  0  0  0  0
 12 33  1  0  0  0  0
 13 14  1  0  0  0  0
 13 34  1  0  0  0  0
 13 35  1  0  0  0  0
 14 15  1  0  0  0  0
 14 36  1  0  0  0  0
 14 37  1  0  0  0  0
 15 16  1  0  0  0  0
 16 17  2  0  0  0  0
 16 18  1  0  0  0  0
 16 19  1  0  0  0  0
M  END
> <Name>
ZINC31561356

> <reference>
BDB5013

> <quality>
0.694

> <status>
decoy

> <atoms in reference ligand area>
13

> <score>
-29.7366

$$$$
ZINC00547494
      BALL 1.4.0 (Jan  4 2012, 23:22:29)

 40 41  0999  0  0  0  0  0  0999 V2000
    8.5760   15.3922    3.0293 C   0  0  0  0  0  0  0  0  0  0  0  0
    9.6670   14.4946    3.2436 O   0  0  0  0  0  0  0  0  0  0  0  0
    9.5628   13.2544    2.6953 C   0  0  0  0  0  0  0  0  0  0  0  0
    8.9865   12.2259    3.4169 C   0  0  0  0  0  0  0  0  0  0  0  0
    8.8816   10.9529    2.8507 C   0  0  0  0  0  0  0  0  0  0  0  0
    9.3599   10.7257    1.5577 C   0  0  0  0  0  0  0  0  0  0  0  0
    9.9286   11.7580    0.8418 C   0  0  0  0  0  0  0  0  0  0  0  0
   10.0376   13.0204    1.4065 C   0  0  0  0  0  0  0  0  0  0  0  0
   10.6042   14.0332    0.6986 O   0  0  0  0  0  0  0  0  0  0  0  0
    9.8750   15.2600    0.6245 C   0  0  0  0  0  0  0  0  0  0  0  0
   10.6527   16.2578   -0.1944 C   0  0  0  0  0  0  0  0  0  0  0  0
   11.7255   15.9489   -0.6681 O   0  0  0  0  0  0  0  0  0  0  0  0
   10.1558   17.4936   -0.4006 N   0  0  0  0  0  0  0  0  0  0  0  0
    8.2673    9.8523    3.6153 C   0  0  0  0  0  0  0  0  0  0  0  0
    7.4829    9.0071    3.0198 N   0  0  0  0  0  0  0  0  0  0  0  0
    6.8992    7.9611    3.7464 N   0  0  0  0  0  0  0  0  0  0  0  0
    5.6226    8.0628    4.1667 C   0  0  0  0  0  0  0  0  0  0  0  0
    4.8703    8.8526    3.6358 O   0  0  0  0  0  0  0  0  0  0  0  0
    5.1298    7.1951    5.2961 C   0  0  0  0  0  0  0  0  0  0  0  0
    3.6739    7.3162    5.4053 N   0  0  0  0  0  0  0  0  0  0  0  0
    2.7588    6.4105    5.0188 C   0  0  0  0  0  0  0  0  0  0  0  0
    1.5723    6.8924    5.2865 N   0  0  0  0  0  0  0  0  0  0  0  0
    1.6889    8.0980    5.8417 C   0  0  0  0  0  0  0  0  0  0  0  0
    2.9571    8.3990    5.9403 N   0  0  0  0  0  0  0  0  0  0  0  0
    8.7281   16.2344    3.7204 H   0  0  0  0  0  0  0  0  0  0  0  0
    7.6684   14.8568    3.3448 H   0  0  0  0  0  0  0  0  0  0  0  0
    8.5035   15.7325    1.9858 H   0  0  0  0  0  0  0  0  0  0  0  0
    8.6113   12.4093    4.4346 H   0  0  0  0  0  0  0  0  0  0  0  0
    9.2829    9.7235    1.1108 H   0  0  0  0  0  0  0  0  0  0  0  0
   10.2966   11.5800   -0.1794 H   0  0  0  0  0  0  0  0  0  0  0  0
    9.7219   15.6586    1.6383 H   0  0  0  0  0  0  0  0  0  0  0  0
    8.8991   15.0786    0.1506 H   0  0  0  0  0  0  0  0  0  0  0  0
    9.8155   18.0513    0.3957 H   0  0  0  0  0  0  0  0  0  0  0  0
   10.1164   17.8804   -1.3544 H   0  0  0  0  0  0  0  0  0  0  0  0
    8.4738    9.7475    4.6907 H   0  0  0  0  0  0  0  0  0  0  0  0
    7.4456    7.1144    3.9595 H   0  0  0  0  0  0  0  0  0  0  0  0
    5.3960    6.1466    5.0962 H   0  0  0  0  0  0  0  0  0  0  0  0
    5.5957    7.5185    6.2386 H   0  0  0  0  0  0  0  0  0  0  0  0
    2.9706    5.4344    4.5580 H   0  0  0  0  0  0  0  0  0  0  0  0
    0.8534    8.7365    6.1647 H   0  0  0  0  0  0  0  0  0  0  0  0
  1  2  1  0  0  0  0
  1 25  1  0  0  0  0
  1 26  1  0  0  0  0
  1 27  1  0  0  0  0
  2  3  1  0  0  0  0
  3  8  2  0  0  0  0
  3  4  1  0  0  0  0
  4  5  2  0  0  0  0
  4 28  1  0  0  0  0
  5  6  1  0  0  0  0
  5 14  1  0  0  0  0
  6  7  2  0  0  0  0
  6 29  1  0  0  0  0
  7  8  1  0  0  0  0
  7 30  1  0  0  0  0
  8  9  1  0  0  0  0
  9 10  1  0  0  0  0
 10 11  1  0  0  0  0
 10 31  1  0  0  0  0
 10 32  1  0  0  0  0
 11 12  2  0  0  0  0
 11 13  1  0  0  0  0
 13 33  1  0  0  0  0
 13 34  1  0  0  0  0
 14 15  2  0  0  0  0
 14 35  1  0  0  0  0
 15 16  1  0  0  0  0
 16 17  1  0  0  0  0
 16 36  1  0  0  0  0
 17 18  2  0  0  0  0
 17 19  1  0  0  0  0
 19 20  1  0  0  0  0
 19 37  1  0  0  0  0
 19 38  1  0  0  0  0
 20 24  1  0  0  0  0
 20 21  1  0  0  0  0
 21 22  2  0  0  0  0
 21 39  1  0  0  0  0
 22 23  1  0  0  0  0
 23 24  2  0  0  0  0
 23 40  1  0  0  0  0
M  END
> <Name>
ZINC00547494

> <reference>
BDB5024

> <quality>
0.677

> <status>
decoy

> <atoms in reference ligand area>
10

> <score>
-29.7051

$$$$
ZINC06425106
      BALL 1.4.0 (Jan  4 2012, 23:22:29)

 32 31  0999  0  0  0  0  0  0999 V2000
   10.2266   12.7658   -3.3297 C   0  0  0  0  0  0  0  0  0  0  0  0
   10.9687   14.1418   -2.4177 S   0  0  0  0  0  0  0  0  0  0  0  0
   11.3158   13.3420   -0.8865 C   0  0  0  0  0  0  0  0  0  0  0  0
   10.4497   12.4897   -0.3772 N   0  0  0  0  0  0  0  0  0  0  0  0
   10.7257   11.8538    0.8403 N   0  0  0  0  0  0  0  0  0  0  0  0
   11.1761   10.6408    0.8492 C   0  0  0  0  0  0  0  0  0  0  0  0
   11.4731    9.9568    2.1587 C   0  0  0  0  0  0  0  0  0  0  0  0
   12.9860    9.7919    2.3165 C   0  0  0  0  0  0  0  0  0  0  0  0
   13.2873    9.0974    3.6461 C   0  0  0  0  0  0  0  0  0  0  0  0
   14.5158    9.7420    4.2913 C   0  0  0  0  0  0  0  0  0  0  0  0
   14.1041   11.0409    4.9870 C   0  0  0  0  0  0  0  0  0  0  0  0
   14.8844   11.2149    6.1714 O   0  0  0  0  0  0  0  0  0  0  0  0
   15.0758    8.8440    5.2515 O   0  0  0  0  0  0  0  0  0  0  0  0
   12.1644    9.2328    4.5194 O   0  0  0  0  0  0  0  0  0  0  0  0
   13.4937    9.0009    1.2402 O   0  0  0  0  0  0  0  0  0  0  0  0
   10.9653   10.7477    3.2352 O   0  0  0  0  0  0  0  0  0  0  0  0
   12.8212   13.6821   -0.0363 S   0  5  0  0  0  0  0  0  0  0  0  0
   10.7109   12.5570   -4.2951 H   0  0  0  0  0  0  0  0  0  0  0  0
    9.1338   12.8365   -3.4335 H   0  0  0  0  0  0  0  0  0  0  0  0
   10.4045   11.8718   -2.7139 H   0  0  0  0  0  0  0  0  0  0  0  0
   11.3423   10.1089   -0.0992 H   0  0  0  0  0  0  0  0  0  0  0  0
   10.9929    8.9672    2.1724 H   0  0  0  0  0  0  0  0  0  0  0  0
   13.4661   10.7815    2.3027 H   0  0  0  0  0  0  0  0  0  0  0  0
   13.4852    8.0304    3.4658 H   0  0  0  0  0  0  0  0  0  0  0  0
   15.2640    9.9627    3.5157 H   0  0  0  0  0  0  0  0  0  0  0  0
   14.2740   11.8901    4.3087 H   0  0  0  0  0  0  0  0  0  0  0  0
   13.0383   10.9929    5.2546 H   0  0  0  0  0  0  0  0  0  0  0  0
   14.3576   11.7146    6.8443 H   0  0  0  0  0  0  0  0  0  0  0  0
   15.8707    9.2603    5.6698 H   0  0  0  0  0  0  0  0  0  0  0  0
   12.4397    9.7126    5.3405 H   0  0  0  0  0  0  0  0  0  0  0  0
   14.0348    9.5704    0.6375 H   0  0  0  0  0  0  0  0  0  0  0  0
   11.4198   10.4920    4.0767 H   0  0  0  0  0  0  0  0  0  0  0  0
  1  2  1  0  0  0  0
  1 18  1  0  0  0  0
  1 19  1  0  0  0  0
  1 20  1  0  0  0  0
  2  3  1  0  0  0  0
  3  4  2  0  0  0  0
  3 17  1  0  0  0  0
  4  5  1  0  0  0  0
  5  6  2  0  0  0  0
  6  7  1  0  0  0  0
  6 21  1  0  0  0  0
  7  8  1  0  0  0  0
  7 16  1  0  0  0  0
  7 22  1  0  0  0  0
  8  9  1  0  0  0  0
  8 15  1  0  0  0  0
  8 23  1  0  0  0  0
  9 10  1  0  0  0  0
  9 14  1  0  0  0  0
  9 24  1  0  0  0  0
 10 11  1  0  0  0  0
 10 13  1  0  0  0  0
 10 25  1  0  0  0  0
 11 12  1  0  0  0  0
 11 26  1  0  0  0  0
 11 27  1  0  0  0  0
 12 28  1  0  0  0  0
 13 29  1  0  0  0  0
 14 30  1  0  0  0  0
 15 31  1  0  0  0  0
 16 32  1  0  0  0  0
M  END
> <Name>
ZINC06425106

> <reference>
BDB4986

> <quality>
0.721

> <status>
decoy

> <atoms in reference ligand area>
11

> <score>
-29.6445

$$$$
ZINC02090323
      BALL 1.4.0 (Jan  4 2012, 23:22:29)

 45 46  0999  0  0  0  0  0  0999 V2000
   13.5426   12.9972    2.3073 C   0  0  0  0  0  0  0  0  0  0  0  0
   12.0887   12.8176    2.3158 N   0  0  0  0  0  0  0  0  0  0  0  0
   11.1622   13.7869    2.4478 C   0  0  0  0  0  0  0  0  0  0  0  0
    9.9645   13.2606    2.4112 N   0  0  0  0  0  0  0  0  0  0  0  0
   10.0563   11.9375    2.2551 C   0  0  0  0  0  0  0  0  0  0  0  0
   11.4079   11.6232    2.1906 C   0  0  0  0  0  0  0  0  0  0  0  0
   11.7936   10.2754    2.0262 C   0  0  0  0  0  0  0  0  0  0  0  0
   12.9722    9.9746    1.9665 O   0  0  0  0  0  0  0  0  0  0  0  0
   10.8409    9.3239    1.9357 N   0  0  0  0  0  0  0  0  0  0  0  0
    9.5366    9.6429    1.9942 C   0  0  0  0  0  0  0  0  0  0  0  0
    8.7058    8.7594    1.9040 O   0  0  0  0  0  0  0  0  0  0  0  0
    9.1264   10.9152    2.1551 N   0  0  0  0  0  0  0  0  0  0  0  0
    7.6949   11.2196    2.2196 C   0  0  0  0  0  0  0  0  0  0  0  0
   11.2343    7.9232    1.7650 C   0  0  0  0  0  0  0  0  0  0  0  0
   11.3416    7.6017    0.2731 C   0  0  0  0  0  0  0  0  0  0  0  0
   13.0748    6.3482   -0.8615 C   0  0  0  0  0  0  0  0  0  0  0  0
   12.5868    7.0520   -2.1294 C   0  0  0  0  0  0  0  0  0  0  0  0
   12.9345    6.2685   -3.2729 O   0  0  0  0  0  0  0  0  0  0  0  0
   14.2368    7.1374   -0.2552 C   0  0  0  0  0  0  0  0  0  0  0  0
   13.7224    8.1778    0.5783 O   0  0  0  0  0  0  0  0  0  0  0  0
   13.5457    4.9352   -1.2117 C   0  0  0  0  0  0  0  0  0  0  0  0
   14.0466    4.9180   -2.5499 O   0  0  0  0  0  0  0  0  0  0  0  0
   11.9656    6.2752    0.1081 N   0  3  0  0  0  0  0  0  0  0  0  0
   13.6474   14.0362    1.9618 H   0  0  0  0  0  0  0  0  0  0  0  0
   13.8503   12.3702    1.4575 H   0  0  0  0  0  0  0  0  0  0  0  0
   14.0773   12.7789    3.2435 H   0  0  0  0  0  0  0  0  0  0  0  0
   11.3796   14.8584    2.5682 H   0  0  0  0  0  0  0  0  0  0  0  0
    7.6305   12.1757    2.7598 H   0  0  0  0  0  0  0  0  0  0  0  0
    7.2680   10.4468    2.8757 H   0  0  0  0  0  0  0  0  0  0  0  0
    7.2005   11.2575    1.2377 H   0  0  0  0  0  0  0  0  0  0  0  0
   12.2087    7.7545    2.2468 H   0  0  0  0  0  0  0  0  0  0  0  0
   10.4791    7.2701    2.2267 H   0  0  0  0  0  0  0  0  0  0  0  0
   10.3367    7.5928   -0.1743 H   0  0  0  0  0  0  0  0  0  0  0  0
   11.9607    8.3627   -0.2243 H   0  0  0  0  0  0  0  0  0  0  0  0
   13.0606    8.0417   -2.2063 H   0  0  0  0  0  0  0  0  0  0  0  0
   11.4942    7.1709   -2.0855 H   0  0  0  0  0  0  0  0  0  0  0  0
   12.4841    6.6350   -4.0747 H   0  0  0  0  0  0  0  0  0  0  0  0
   14.8414    7.5793   -1.0611 H   0  0  0  0  0  0  0  0  0  0  0  0
   14.8641    6.4629    0.3461 H   0  0  0  0  0  0  0  0  0  0  0  0
   14.0276    9.0559    0.2380 H   0  0  0  0  0  0  0  0  0  0  0  0
   14.3439    4.6322   -0.5181 H   0  0  0  0  0  0  0  0  0  0  0  0
   12.7016    4.2349   -1.1278 H   0  0  0  0  0  0  0  0  0  0  0  0
   13.2962    5.0321   -3.1856 H   0  0  0  0  0  0  0  0  0  0  0  0
   12.3279    5.9529    1.0168 H   0  0  0  0  0  0  0  0  0  0  0  0
   11.2606    5.6050   -0.2307 H   0  0  0  0  0  0  0  0  0  0  0  0
  1  2  1  0  0  0  0
  1 24  1  0  0  0  0
  1 25  1  0  0  0  0
  1 26  1  0  0  0  0
  2  6  1  0  0  0  0
  2  3  1  0  0  0  0
  3  4  2  0  0  0  0
  3 27  1  0  0  0  0
  4  5  1  0  0  0  0
  5 12  1  0  0  0  0
  5  6  2  0  0  0  0
  6  7  1  0  0  0  0
  7  8  2  0  0  0  0
  7  9  1  0  0  0  0
  9 10  1  0  0  0  0
  9 14  1  0  0  0  0
 10 11  2  0  0  0  0
 10 12  1  0  0  0  0
 12 13  1  0  0  0  0
 13 28  1  0  0  0  0
 13 29  1  0  0  0  0
 13 30  1  0  0  0  0
 14 15  1  0  0  0  0
 14 31  1  0  0  0  0
 14 32  1  0  0  0  0
 15 23  1  0  0  0  0
 15 33  1  0  0  0  0
 15 34  1  0  0  0  0
 16 17  1  0  0  0  0
 16 19  1  0  0  0  0
 16 21  1  0  0  0  0
 16 23  1  0  0  0  0
 17 18  1  0  0  0  0
 17 35  1  0  0  0  0
 17 36  1  0  0  0  0
 18 37  1  0  0  0  0
 19 20  1  0  0  0  0
 19 38  1  0  0  0  0
 19 39  1  0  0  0  0
 20 40  1  0  0  0  0
 21 22  1  0  0  0  0
 21 41  1  0  0  0  0
 21 42  1  0  0  0  0
 22 43  1  0  0  0  0
 23 44  1  0  0  0  0
 23 45  1  0  0  0  0
M  END
> <Name>
ZINC02090323

> <reference>
BDB5024

> <quality>
0.751

> <status>
decoy

> <atoms in reference ligand area>
10

> <score>
-29.5227

$$$$
ZINC05425837
      BALL 1.4.0 (Jan  4 2012, 23:22:29)

 39 40  0999  0  0  0  0  0  0999 V2000
    6.2657    7.6567    4.1990 C   0  0  0  0  0  0  0  0  0  0  0  0
    5.0380    8.0569    3.3761 C   0  0  0  0  0  0  0  0  0  0  0  0
    5.4939    8.7846    2.1094 C   0  0  0  0  0  0  0  0  0  0  0  0
    7.4760    9.6139    3.2301 C   0  0  0  0  0  0  0  0  0  0  0  0
    7.0792    8.9109    4.5303 C   0  0  0  0  0  0  0  0  0  0  0  0
    6.6037   10.7755    1.2936 C   0  0  0  0  0  0  0  0  0  0  0  0
    7.4077   12.0044    1.7227 C   0  0  0  0  0  0  0  0  0  0  0  0
    7.5427   12.9204    0.5873 N   0  0  0  0  0  0  0  0  0  0  0  0
    8.6840   13.5072    0.3552 C   0  0  0  0  0  0  0  0  0  0  0  0
    9.6830   13.7849    1.4217 C   0  0  0  0  0  0  0  0  0  0  0  0
   10.9742   13.9743    1.0385 C   0  0  0  0  0  0  0  0  0  0  0  0
   11.3708   13.9442   -0.2294 N   0  0  0  0  0  0  0  0  0  0  0  0
   10.5650   13.9222   -1.2548 C   0  0  0  0  0  0  0  0  0  0  0  0
    9.1059   13.9635   -1.0147 C   0  0  0  0  0  0  0  0  0  0  0  0
    8.2529   14.3646   -1.9189 N   0  0  0  0  0  0  0  0  0  0  0  0
    9.3111   13.8489    2.7588 N   0  0  0  0  0  0  0  0  0  0  0  0
    7.9512   14.0340    3.1074 O   0  0  0  0  0  0  0  0  0  0  0  0
   10.2920   13.7292    3.7731 O   0  0  0  0  0  0  0  0  0  0  0  0
    6.2499    9.9946    2.4969 N   0  3  0  0  0  0  0  0  0  0  0  0
    5.9402    7.1717    5.1311 H   0  0  0  0  0  0  0  0  0  0  0  0
    6.8860    6.9593    3.6170 H   0  0  0  0  0  0  0  0  0  0  0  0
    4.4727    7.1554    3.0976 H   0  0  0  0  0  0  0  0  0  0  0  0
    4.3972    8.7241    3.9714 H   0  0  0  0  0  0  0  0  0  0  0  0
    4.6156    9.0752    1.5144 H   0  0  0  0  0  0  0  0  0  0  0  0
    6.1407    8.1213    1.5165 H   0  0  0  0  0  0  0  0  0  0  0  0
    8.0601   10.5164    3.4630 H   0  0  0  0  0  0  0  0  0  0  0  0
    8.0776    8.9322    2.6109 H   0  0  0  0  0  0  0  0  0  0  0  0
    7.9859    8.6261    5.0843 H   0  0  0  0  0  0  0  0  0  0  0  0
    6.4711    9.5916    5.1443 H   0  0  0  0  0  0  0  0  0  0  0  0
    7.2103   10.1549    0.6176 H   0  0  0  0  0  0  0  0  0  0  0  0
    5.6854   11.0968    0.7804 H   0  0  0  0  0  0  0  0  0  0  0  0
    6.8857   12.5154    2.5452 H   0  0  0  0  0  0  0  0  0  0  0  0
    8.4064   11.6909    2.0608 H   0  0  0  0  0  0  0  0  0  0  0  0
   11.7280   14.1617    1.8173 H   0  0  0  0  0  0  0  0  0  0  0  0
   10.9630   13.8738   -2.2791 H   0  0  0  0  0  0  0  0  0  0  0  0
    7.2531   14.3637   -1.6716 H   0  0  0  0  0  0  0  0  0  0  0  0
    7.9720   14.4694    3.9964 H   0  0  0  0  0  0  0  0  0  0  0  0
    9.9745   14.3139    4.5062 H   0  0  0  0  0  0  0  0  0  0  0  0
    5.6601   10.5738    3.1113 H   0  0  0  0  0  0  0  0  0  0  0  0
  1  5  1  0  0  0  0
  1  2  1  0  0  0  0
  1 20  1  0  0  0  0
  1 21  1  0  0  0  0
  2  3  1  0  0  0  0
  2 22  1  0  0  0  0
  2 23  1  0  0  0  0
  3 19  1  0  0  0  0
  3 24  1  0  0  0  0
  3 25  1  0  0  0  0
  4  5  1  0  0  0  0
  4 19  1  0  0  0  0
  4 26  1  0  0  0  0
  4 27  1  0  0  0  0
  5 28  1  0  0  0  0
  5 29  1  0  0  0  0
  6  7  1  0  0  0  0
  6 19  1  0  0  0  0
  6 30  1  0  0  0  0
  6 31  1  0  0  0  0
  7  8  1  0  0  0  0
  7 32  1  0  0  0  0
  7 33  1  0  0  0  0
  8  9  2  0  0  0  0
  9 14  1  0  0  0  0
  9 10  1  0  0  0  0
 10 11  2  0  0  0  0
 10 16  1  0  0  0  0
 11 12  1  0  0  0  0
 11 34  1  0  0  0  0
 12 13  2  0  0  0  0
 13 14  1  0  0  0  0
 13 35  1  0  0  0  0
 14 15  2  0  0  0  0
 15 36  1  0  0  0  0
 16 17  1  0  0  0  0
 16 18  1  0  0  0  0
 17 37  1  0  0  0  0
 18 38  1  0  0  0  0
 19 39  1  0  0  0  0
M  END
> <Name>
ZINC05425837

> <reference>
BDB5233

> <quality>
0.734

> <status>
decoy

> <atoms in reference ligand area>
23

> <score>
-29.2222

$$$$
ZINC10315608
      BALL 1.4.0 (Jan  4 2012, 23:22:29)

 40 41  0999  0  0  0  0  0  0999 V2000
    9.8735   12.7772    3.9864 C   0  0  0  0  0  0  0  0  0  0  0  0
   10.0562   14.0330    3.4455 C   0  0  0  0  0  0  0  0  0  0  0  0
    9.3381   14.4113    2.3093 C   0  0  0  0  0  0  0  0  0  0  0  0
    8.4434   13.5124    1.7252 C   0  0  0  0  0  0  0  0  0  0  0  0
    8.2744   12.2580    2.2735 C   0  0  0  0  0  0  0  0  0  0  0  0
    8.9892   11.8896    3.3995 C   0  0  0  0  0  0  0  0  0  0  0  0
    8.7990   10.5175    3.9930 C   0  0  0  0  0  0  0  0  0  0  0  0
    7.3006    8.6181    4.0940 C   0  0  0  0  0  0  0  0  0  0  0  0
    5.9044    8.5514    4.7161 C   0  0  0  0  0  0  0  0  0  0  0  0
    5.1236    7.5046    4.0523 N   0  0  0  0  0  0  0  0  0  0  0  0
    3.8085    7.2553    4.4513 C   0  0  0  0  0  0  0  0  0  0  0  0
    3.3085    7.8417    5.6070 C   0  0  0  0  0  0  0  0  0  0  0  0
    2.0059    7.5975    5.9954 C   0  0  0  0  0  0  0  0  0  0  0  0
    1.2031    6.7612    5.2415 C   0  0  0  0  0  0  0  0  0  0  0  0
    1.6993    6.1713    4.0934 C   0  0  0  0  0  0  0  0  0  0  0  0
    2.9993    6.4156    3.6962 C   0  0  0  0  0  0  0  0  0  0  0  0
   -0.1906    6.4974    5.6640 N   0  0  0  0  0  0  0  0  0  0  0  0
   -0.8990    5.7614    5.0007 O   0  0  0  0  0  0  0  0  0  0  0  0
   -0.6292    7.0163    6.6749 O   0  0  0  0  0  0  0  0  0  0  0  0
    9.5246   15.7563    1.7274 C   0  0  0  0  0  0  0  0  0  0  0  0
    9.5592   15.8969    0.5215 O   0  0  0  0  0  0  0  0  0  0  0  0
    7.5136    9.9634    3.5275 N   0  3  0  0  0  0  0  0  0  0  0  0
    9.6561   16.8269    2.5344 O   0  5  0  0  0  0  0  0  0  0  0  0
   10.4322   12.4809    4.8864 H   0  0  0  0  0  0  0  0  0  0  0  0
   10.7658   14.7346    3.9082 H   0  0  0  0  0  0  0  0  0  0  0  0
    7.8746   13.8039    0.8300 H   0  0  0  0  0  0  0  0  0  0  0  0
    7.5699   11.5488    1.8144 H   0  0  0  0  0  0  0  0  0  0  0  0
    9.6202    9.8604    3.6707 H   0  0  0  0  0  0  0  0  0  0  0  0
    8.7918   10.5885    5.0907 H   0  0  0  0  0  0  0  0  0  0  0  0
    8.0575    8.4216    4.8676 H   0  0  0  0  0  0  0  0  0  0  0  0
    7.3846    7.8663    3.2955 H   0  0  0  0  0  0  0  0  0  0  0  0
    5.9911    8.3196    5.7879 H   0  0  0  0  0  0  0  0  0  0  0  0
    5.3990    9.5204    4.5902 H   0  0  0  0  0  0  0  0  0  0  0  0
    5.5444    6.9525    3.2914 H   0  0  0  0  0  0  0  0  0  0  0  0
    3.9494    8.4998    6.2122 H   0  0  0  0  0  0  0  0  0  0  0  0
    1.6065    8.0687    6.9055 H   0  0  0  0  0  0  0  0  0  0  0  0
    1.0579    5.5067    3.4959 H   0  0  0  0  0  0  0  0  0  0  0  0
    3.3934    5.9460    2.7829 H   0  0  0  0  0  0  0  0  0  0  0  0
    6.7468   10.5836    3.8246 H   0  0  0  0  0  0  0  0  0  0  0  0
    7.5192    9.9030    2.4993 H   0  0  0  0  0  0  0  0  0  0  0  0
  1  6  2  0  0  0  0
  1  2  1  0  0  0  0
  1 24  1  0  0  0  0
  2  3  2  0  0  0  0
  2 25  1  0  0  0  0
  3  4  1  0  0  0  0
  3 20  1  0  0  0  0
  4  5  2  0  0  0  0
  4 26  1  0  0  0  0
  5  6  1  0  0  0  0
  5 27  1  0  0  0  0
  6  7  1  0  0  0  0
  7 22  1  0  0  0  0
  7 28  1  0  0  0  0
  7 29  1  0  0  0  0
  8  9  1  0  0  0  0
  8 22  1  0  0  0  0
  8 30  1  0  0  0  0
  8 31  1  0  0  0  0
  9 10  1  0  0  0  0
  9 32  1  0  0  0  0
  9 33  1  0  0  0  0
 10 11  1  0  0  0  0
 10 34  1  0  0  0  0
 11 16  2  0  0  0  0
 11 12  1  0  0  0  0
 12 13  2  0  0  0  0
 12 35  1  0  0  0  0
 13 14  1  0  0  0  0
 13 36  1  0  0  0  0
 14 15  2  0  0  0  0
 14 17  1  0  0  0  0
 15 16  1  0  0  0  0
 15 37  1  0  0  0  0
 16 38  1  0  0  0  0
 17 18  2  0  0  0  0
 17 19  2  0  0  0  0
 20 21  2  0  0  0  0
 20 23  1  0  0  0  0
 22 39  1  0  0  0  0
 22 40  1  0  0  0  0
M  END
> <Name>
ZINC10315608

> <reference>
BDB5013

> <quality>
0.756

> <status>
decoy

> <atoms in reference ligand area>
11

> <score>
-29.1938

$$$$
ZINC28069362
      BALL 1.4.0 (Jan  4 2012, 23:22:29)

 46 47  0999  0  0  0  0  0  0999 V2000
   17.2654    8.3740    9.1207 C   0  0  0  0  0  0  0  0  0  0  0  0
   17.1388    9.2548    7.8761 C   0  0  0  0  0  0  0  0  0  0  0  0
   16.0487    8.6923    6.9598 C   0  0  0  0  0  0  0  0  0  0  0  0
   15.8846    9.6108    5.7468 C   0  0  0  0  0  0  0  0  0  0  0  0
   15.5212   10.9599    6.1985 N   0  3  0  0  0  0  0  0  0  0  0  0
   16.5746   11.5394    7.0415 C   0  0  0  0  0  0  0  0  0  0  0  0
   16.7594   10.6785    8.2932 C   0  0  0  0  0  0  0  0  0  0  0  0
   15.2202   11.8341    5.0569 C   0  0  0  0  0  0  0  0  0  0  0  0
   14.0499   11.2509    4.2625 C   0  0  0  0  0  0  0  0  0  0  0  0
   13.2634   12.3868    3.6052 C   0  0  0  0  0  0  0  0  0  0  0  0
   11.9199   11.9149    3.2606 N   0  0  0  0  0  0  0  0  0  0  0  0
   10.9269   12.8020    3.0518 C   0  0  0  0  0  0  0  0  0  0  0  0
   11.1461   13.9940    3.1497 O   0  0  0  0  0  0  0  0  0  0  0  0
    9.5742   12.3268    2.7047 C   0  0  0  0  0  0  0  0  0  0  0  0
    9.1138   11.0880    3.1665 C   0  0  0  0  0  0  0  0  0  0  0  0
    7.8376   10.6882    2.8130 C   0  0  0  0  0  0  0  0  0  0  0  0
    7.0603   11.5151    2.0214 C   0  0  0  0  0  0  0  0  0  0  0  0
    7.5141   12.6785    1.5973 N   0  0  0  0  0  0  0  0  0  0  0  0
    8.7260   13.1082    1.9060 C   0  0  0  0  0  0  0  0  0  0  0  0
    9.1507   14.3101    1.4488 O   0  0  0  0  0  0  0  0  0  0  0  0
    7.3078    9.3866    3.2777 N   0  0  0  0  0  0  0  0  0  0  0  0
    8.0734    8.5148    3.6482 O   0  0  0  0  0  0  0  0  0  0  0  0
    6.1063    9.1873    3.2896 O   0  0  0  0  0  0  0  0  0  0  0  0
   17.2319    9.0042   10.0217 H   0  0  0  0  0  0  0  0  0  0  0  0
   18.2210    7.8300    9.0901 H   0  0  0  0  0  0  0  0  0  0  0  0
   16.4349    7.6533    9.1472 H   0  0  0  0  0  0  0  0  0  0  0  0
   18.1002    9.2694    7.3417 H   0  0  0  0  0  0  0  0  0  0  0  0
   16.3366    7.6860    6.6214 H   0  0  0  0  0  0  0  0  0  0  0  0
   15.0975    8.6379    7.5095 H   0  0  0  0  0  0  0  0  0  0  0  0
   15.0920    9.2180    5.0929 H   0  0  0  0  0  0  0  0  0  0  0  0
   16.8317    9.6542    5.1889 H   0  0  0  0  0  0  0  0  0  0  0  0
   14.6687   10.8804    6.7711 H   0  0  0  0  0  0  0  0  0  0  0  0
   16.2887   12.5593    7.3380 H   0  0  0  0  0  0  0  0  0  0  0  0
   17.5185   11.5729    6.4777 H   0  0  0  0  0  0  0  0  0  0  0  0
   17.5592   11.1051    8.9165 H   0  0  0  0  0  0  0  0  0  0  0  0
   15.8197   10.6557    8.8646 H   0  0  0  0  0  0  0  0  0  0  0  0
   14.9512   12.8359    5.4228 H   0  0  0  0  0  0  0  0  0  0  0  0
   16.1042   11.9066    4.4061 H   0  0  0  0  0  0  0  0  0  0  0  0
   14.4351   10.5745    3.4852 H   0  0  0  0  0  0  0  0  0  0  0  0
   13.3880   10.6917    4.9401 H   0  0  0  0  0  0  0  0  0  0  0  0
   13.1863   13.2322    4.3047 H   0  0  0  0  0  0  0  0  0  0  0  0
   13.7823   12.7129    2.6917 H   0  0  0  0  0  0  0  0  0  0  0  0
   11.7343   10.9052    3.1778 H   0  0  0  0  0  0  0  0  0  0  0  0
    9.7510   10.4484    3.7948 H   0  0  0  0  0  0  0  0  0  0  0  0
    6.0455   11.1964    1.7408 H   0  0  0  0  0  0  0  0  0  0  0  0
    6.9081   13.2685    1.0095 H   0  0  0  0  0  0  0  0  0  0  0  0
  1  2  1  0  0  0  0
  1 24  1  0  0  0  0
  1 25  1  0  0  0  0
  1 26  1  0  0  0  0
  2  7  1  0  0  0  0
  2  3  1  0  0  0  0
  2 27  1  0  0  0  0
  3  4  1  0  0  0  0
  3 28  1  0  0  0  0
  3 29  1  0  0  0  0
  4  5  1  0  0  0  0
  4 30  1  0  0  0  0
  4 31  1  0  0  0  0
  5  6  1  0  0  0  0
  5  8  1  0  0  0  0
  5 32  1  0  0  0  0
  6  7  1  0  0  0  0
  6 33  1  0  0  0  0
  6 34  1  0  0  0  0
  7 35  1  0  0  0  0
  7 36  1  0  0  0  0
  8  9  1  0  0  0  0
  8 37  1  0  0  0  0
  8 38  1  0  0  0  0
  9 10  1  0  0  0  0
  9 39  1  0  0  0  0
  9 40  1  0  0  0  0
 10 11  1  0  0  0  0
 10 41  1  0  0  0  0
 10 42  1  0  0  0  0
 11 12  1  0  0  0  0
 11 43  1  0  0  0  0
 12 13  2  0  0  0  0
 12 14  1  0  0  0  0
 14 15  2  0  0  0  0
 14 19  1  0  0  0  0
 15 16  1  0  0  0  0
 15 44  1  0  0  0  0
 16 17  2  0  0  0  0
 16 21  1  0  0  0  0
 17 18  1  0  0  0  0
 17 45  1  0  0  0  0
 18 19  1  0  0  0  0
 18 46  1  0  0  0  0
 19 20  2  0  0  0  0
 21 22  2  0  0  0  0
 21 23  2  0  0  0  0
M  END
> <Name>
ZINC28069362

> <reference>
BDB5195

> <quality>
0.744

> <status>
decoy

> <atoms in reference ligand area>
14

> <score>
-29.1498

$$$$
ZINC01731877
      BALL 1.4.0 (Jan  4 2012, 23:22:29)

 32 32  0999  0  0  0  0  0  0999 V2000
   11.4122   13.5862    1.8360 C   0  0  0  0  0  0  0  0  0  0  0  0
   11.0018   14.5647    0.9515 C   0  0  0  0  0  0  0  0  0  0  0  0
    9.8590   15.3046    1.2187 C   0  0  0  0  0  0  0  0  0  0  0  0
    9.1310   15.0591    2.3739 C   0  0  0  0  0  0  0  0  0  0  0  0
    9.5458   14.0798    3.2553 C   0  0  0  0  0  0  0  0  0  0  0  0
   10.6851   13.3438    2.9867 C   0  0  0  0  0  0  0  0  0  0  0  0
   11.1349   12.2754    3.9497 C   0  0  0  0  0  0  0  0  0  0  0  0
   11.8620   11.1698    3.1817 C   0  0  0  0  0  0  0  0  0  0  0  0
   12.2993   10.1313    4.1179 N   0  0  0  0  0  0  0  0  0  0  0  0
   13.5991   10.1015    4.5496 C   0  0  0  0  0  0  0  0  0  0  0  0
   14.1079    8.9151    5.3272 C   0  0  0  0  0  0  0  0  0  0  0  0
   15.9102    9.0309    5.4966 S   0  0  0  0  0  0  0  0  0  0  0  0
   16.1873   10.6000    6.7866 S   0  0  0  0  0  0  0  0  0  0  0  0
   15.8479   11.7794    6.0705 O   0  0  0  0  0  0  0  0  0  0  0  0
   15.5528   10.2399    8.0061 O   0  0  0  0  0  0  0  0  0  0  0  0
   17.6783   10.6832    7.0801 O   0  5  0  0  0  0  0  0  0  0  0  0
    9.4533   16.2680    0.3502 O   0  0  0  0  0  0  0  0  0  0  0  0
   14.3514   11.1384    4.2533 N   0  3  0  0  0  0  0  0  0  0  0  0
   12.3183   12.9994    1.6246 H   0  0  0  0  0  0  0  0  0  0  0  0
   11.5805   14.7570    0.0361 H   0  0  0  0  0  0  0  0  0  0  0  0
    8.2241   15.6438    2.5877 H   0  0  0  0  0  0  0  0  0  0  0  0
    8.9692   13.8853    4.1717 H   0  0  0  0  0  0  0  0  0  0  0  0
   11.8170   12.7146    4.6925 H   0  0  0  0  0  0  0  0  0  0  0  0
   10.2594   11.8500    4.4621 H   0  0  0  0  0  0  0  0  0  0  0  0
   11.1803   10.7298    2.4391 H   0  0  0  0  0  0  0  0  0  0  0  0
   12.7385   11.5932    2.6693 H   0  0  0  0  0  0  0  0  0  0  0  0
   11.6294    9.4235    4.4516 H   0  0  0  0  0  0  0  0  0  0  0  0
   13.8494    7.9879    4.7947 H   0  0  0  0  0  0  0  0  0  0  0  0
   13.6463    8.9055    6.3256 H   0  0  0  0  0  0  0  0  0  0  0  0
    8.4741   16.1452    0.2730 H   0  0  0  0  0  0  0  0  0  0  0  0
   13.9917   11.9433    3.7209 H   0  0  0  0  0  0  0  0  0  0  0  0
   15.3324   11.1390    4.5671 H   0  0  0  0  0  0  0  0  0  0  0  0
  1  6  2  0  0  0  0
  1  2  1  0  0  0  0
  1 19  1  0  0  0  0
  2  3  2  0  0  0  0
  2 20  1  0  0  0  0
  3  4  1  0  0  0  0
  3 17  1  0  0  0  0
  4  5  2  0  0  0  0
  4 21  1  0  0  0  0
  5  6  1  0  0  0  0
  5 22  1  0  0  0  0
  6  7  1  0  0  0  0
  7  8  1  0  0  0  0
  7 23  1  0  0  0  0
  7 24  1  0  0  0  0
  8  9  1  0  0  0  0
  8 25  1  0  0  0  0
  8 26  1  0  0  0  0
  9 10  1  0  0  0  0
  9 27  1  0  0  0  0
 10 11  1  0  0  0  0
 10 18  2  0  0  0  0
 11 12  1  0  0  0  0
 11 28  1  0  0  0  0
 11 29  1  0  0  0  0
 12 13  1  0  0  0  0
 13 14  2  0  0  0  0
 13 15  2  0  0  0  0
 13 16  1  0  0  0  0
 17 30  1  0  0  0  0
 18 31  1  0  0  0  0
 18 32  1  0  0  0  0
M  END
> <Name>
ZINC01731877

> <reference>
BDB5009

> <quality>
0.768

> <status>
decoy

> <atoms in reference ligand area>
10

> <score>
-29.0237

$$$$
ZINC31392821
      BALL 1.4.0 (Jan  4 2012, 23:22:29)

 50 52  0999  0  0  0  0  0  0999 V2000
    5.4038   10.4101   -0.0598 C   0  0  0  0  0  0  0  0  0  0  0  0
    6.4673    9.4323    0.2068 N   0  3  0  0  0  0  0  0  0  0  0  0
    6.0212    8.0694   -0.1122 C   0  0  0  0  0  0  0  0  0  0  0  0
    5.7859    7.9494   -1.6191 C   0  0  0  0  0  0  0  0  0  0  0  0
    5.3214    6.5299   -1.9513 C   0  0  0  0  0  0  0  0  0  0  0  0
    4.8679    6.4773   -3.3476 N   0  0  0  0  0  0  0  0  0  0  0  0
    5.5865    7.4411   -4.1655 N   0  0  0  0  0  0  0  0  0  0  0  0
    6.9289    9.5230    1.5984 C   0  0  0  0  0  0  0  0  0  0  0  0
    7.6121   10.8736    1.8221 C   0  0  0  0  0  0  0  0  0  0  0  0
    8.3670   11.2965    0.5470 C   0  0  0  0  0  0  0  0  0  0  0  0
    9.8351   11.4575    1.0110 C   0  0  0  0  0  0  0  0  0  0  0  0
    9.6733   11.6467    2.5408 C   0  0  0  0  0  0  0  0  0  0  0  0
    8.5830   10.7615    2.8762 O   0  0  0  0  0  0  0  0  0  0  0  0
   10.8960   11.2478    3.2422 N   0  0  0  0  0  0  0  0  0  0  0  0
   11.0769   10.1035    3.9608 C   0  0  0  0  0  0  0  0  0  0  0  0
   12.2829   10.0710    4.4489 N   0  0  0  0  0  0  0  0  0  0  0  0
   12.9507   11.1891    4.0758 C   0  0  0  0  0  0  0  0  0  0  0  0
   12.0688   11.9575    3.2970 C   0  0  0  0  0  0  0  0  0  0  0  0
   12.4872   13.1182    2.8031 N   0  0  0  0  0  0  0  0  0  0  0  0
   13.7101   13.5455    3.0378 C   0  0  0  0  0  0  0  0  0  0  0  0
   14.5736   12.8591    3.7636 N   0  0  0  0  0  0  0  0  0  0  0  0
   14.2452   11.6877    4.2988 C   0  0  0  0  0  0  0  0  0  0  0  0
   15.1573   10.9754    5.0576 N   0  0  0  0  0  0  0  0  0  0  0  0
   10.4348   12.6097    0.4153 O   0  0  0  0  0  0  0  0  0  0  0  0
    7.8594   12.5379    0.0538 O   0  0  0  0  0  0  0  0  0  0  0  0
    5.8545   11.4093   -0.1513 H   0  0  0  0  0  0  0  0  0  0  0  0
    4.6996   10.4088    0.7852 H   0  0  0  0  0  0  0  0  0  0  0  0
    4.8745   10.1514   -0.9888 H   0  0  0  0  0  0  0  0  0  0  0  0
    7.2642    9.6561   -0.4062 H   0  0  0  0  0  0  0  0  0  0  0  0
    6.7933    7.3491    0.1963 H   0  0  0  0  0  0  0  0  0  0  0  0
    5.0844    7.8544    0.4227 H   0  0  0  0  0  0  0  0  0  0  0  0
    5.0136    8.6691   -1.9282 H   0  0  0  0  0  0  0  0  0  0  0  0
    6.7221    8.1631   -2.1558 H   0  0  0  0  0  0  0  0  0  0  0  0
    6.1569    5.8283   -1.8111 H   0  0  0  0  0  0  0  0  0  0  0  0
    4.4914    6.2495   -1.2862 H   0  0  0  0  0  0  0  0  0  0  0  0
    3.8597    6.6849   -3.3864 H   0  0  0  0  0  0  0  0  0  0  0  0
    6.5934    7.2287   -4.1227 H   0  0  0  0  0  0  0  0  0  0  0  0
    5.4248    8.3853   -3.7867 H   0  0  0  0  0  0  0  0  0  0  0  0
    7.6445    8.7128    1.8020 H   0  0  0  0  0  0  0  0  0  0  0  0
    6.0682    9.4312    2.2771 H   0  0  0  0  0  0  0  0  0  0  0  0
    6.8387   11.6119    2.0807 H   0  0  0  0  0  0  0  0  0  0  0  0
    8.2592   10.5673   -0.2696 H   0  0  0  0  0  0  0  0  0  0  0  0
   10.4837   10.6132    0.7341 H   0  0  0  0  0  0  0  0  0  0  0  0
    9.4825   12.6915    2.8271 H   0  0  0  0  0  0  0  0  0  0  0  0
   10.3158    9.3228    4.1065 H   0  0  0  0  0  0  0  0  0  0  0  0
   14.0243   14.5105    2.6135 H   0  0  0  0  0  0  0  0  0  0  0  0
   14.8192   10.2513    5.7075 H   0  0  0  0  0  0  0  0  0  0  0  0
   16.1660   11.1662    4.9746 H   0  0  0  0  0  0  0  0  0  0  0  0
    9.8310   13.3846    0.5383 H   0  0  0  0  0  0  0  0  0  0  0  0
    6.8998   12.6102    0.2864 H   0  0  0  0  0  0  0  0  0  0  0  0
  1  2  1  0  0  0  0
  1 26  1  0  0  0  0
  1 27  1  0  0  0  0
  1 28  1  0  0  0  0
  2  3  1  0  0  0  0
  2  8  1  0  0  0  0
  2 29  1  0  0  0  0
  3  4  1  0  0  0  0
  3 30  1  0  0  0  0
  3 31  1  0  0  0  0
  4  5  1  0  0  0  0
  4 32  1  0  0  0  0
  4 33  1  0  0  0  0
  5  6  1  0  0  0  0
  5 34  1  0  0  0  0
  5 35  1  0  0  0  0
  6  7  1  0  0  0  0
  6 36  1  0  0  0  0
  7 37  1  0  0  0  0
  7 38  1  0  0  0  0
  8  9  1  0  0  0  0
  8 39  1  0  0  0  0
  8 40  1  0  0  0  0
  9 13  1  0  0  0  0
  9 10  1  0  0  0  0
  9 41  1  0  0  0  0
 10 11  1  0  0  0  0
 10 25  1  0  0  0  0
 10 42  1  0  0  0  0
 11 12  1  0  0  0  0
 11 24  1  0  0  0  0
 11 43  1  0  0  0  0
 12 13  1  0  0  0  0
 12 14  1  0  0  0  0
 12 44  1  0  0  0  0
 14 18  1  0  0  0  0
 14 15  1  0  0  0  0
 15 16  2  0  0  0  0
 15 45  1  0  0  0  0
 16 17  1  0  0  0  0
 17 22  2  0  0  0  0
 17 18  1  0  0  0  0
 18 19  2  0  0  0  0
 19 20  1  0  0  0  0
 20 21  2  0  0  0  0
 20 46  1  0  0  0  0
 21 22  1  0  0  0  0
 22 23  1  0  0  0  0
 23 47  1  0  0  0  0
 23 48  1  0  0  0  0
 24 49  1  0  0  0  0
 25 50  1  0  0  0  0
M  END
> <Name>
ZINC31392821

> <reference>
BDB4942

> <quality>
0.783

> <status>
decoy

> <atoms in reference ligand area>
17

> <score>
-28.9972

$$$$
ZINC25133930
      BALL 1.4.0 (Jan  4 2012, 23:22:29)

 49 50  0999  0  0  0  0  0  0999 V2000
   12.7789   14.3559   -2.3406 C   0  0  0  0  0  0  0  0  0  0  0  0
   11.8033   13.2745   -2.4990 N   0  0  0  0  0  0  0  0  0  0  0  0
   10.3342   13.3670   -1.7404 S   0  0  0  0  0  0  0  0  0  0  0  0
    9.3740   12.8474   -2.6500 O   0  0  0  0  0  0  0  0  0  0  0  0
   10.2390   14.6771   -1.1982 O   0  0  0  0  0  0  0  0  0  0  0  0
   10.3836   12.2580   -0.3722 C   0  0  0  0  0  0  0  0  0  0  0  0
   11.5904   11.7605    0.0666 C   0  0  0  0  0  0  0  0  0  0  0  0
   11.6286   10.8815    1.1520 C   0  0  0  0  0  0  0  0  0  0  0  0
   10.4413   10.5153    1.7918 C   0  0  0  0  0  0  0  0  0  0  0  0
    9.2382   11.0127    1.3436 C   0  0  0  0  0  0  0  0  0  0  0  0
    9.2046   11.8870    0.2633 C   0  0  0  0  0  0  0  0  0  0  0  0
    8.0173   12.3799   -0.1717 O   0  0  0  0  0  0  0  0  0  0  0  0
    7.4382   11.7576   -1.3204 C   0  0  0  0  0  0  0  0  0  0  0  0
   12.9199   10.3459    1.6254 C   0  0  0  0  0  0  0  0  0  0  0  0
   13.7147   11.0785    2.1819 O   0  0  0  0  0  0  0  0  0  0  0  0
   13.2181    9.0446    1.4406 N   0  0  0  0  0  0  0  0  0  0  0  0
   14.4998    8.5129    1.9104 C   0  0  0  0  0  0  0  0  0  0  0  0
   14.6953    7.0968    1.3650 C   0  0  0  0  0  0  0  0  0  0  0  0
   14.6887    7.1324   -0.0996 N   0  0  0  0  0  0  0  0  0  0  0  0
   13.2619    7.3301   -0.9166 S   0  0  0  0  0  0  0  0  0  0  0  0
   12.3324    7.8680    0.0139 O   0  0  0  0  0  0  0  0  0  0  0  0
   13.5805    7.9817   -2.1385 O   0  0  0  0  0  0  0  0  0  0  0  0
   12.6773    5.7229   -1.3405 C   0  0  0  0  0  0  0  0  0  0  0  0
   13.5770    4.6988   -1.5716 C   0  0  0  0  0  0  0  0  0  0  0  0
   13.1189    3.4366   -1.8994 C   0  0  0  0  0  0  0  0  0  0  0  0
   11.7612    3.2000   -2.0070 C   0  0  0  0  0  0  0  0  0  0  0  0
   10.8608    4.2255   -1.7811 C   0  0  0  0  0  0  0  0  0  0  0  0
   11.3197    5.4876   -1.4478 C   0  0  0  0  0  0  0  0  0  0  0  0
    9.1556    3.9293   -1.9165 Cl  0  0  0  0  0  0  0  0  0  0  0  0
   12.2975   15.2305   -2.8025 H   0  0  0  0  0  0  0  0  0  0  0  0
   13.6121   14.0735   -3.0010 H   0  0  0  0  0  0  0  0  0  0  0  0
   13.1005   14.5438   -1.3056 H   0  0  0  0  0  0  0  0  0  0  0  0
   12.0311   12.4566   -3.0822 H   0  0  0  0  0  0  0  0  0  0  0  0
   12.5231   12.0547   -0.4368 H   0  0  0  0  0  0  0  0  0  0  0  0
   10.4680    9.8306    2.6523 H   0  0  0  0  0  0  0  0  0  0  0  0
    8.3024   10.7178    1.8409 H   0  0  0  0  0  0  0  0  0  0  0  0
    6.3644   11.6521   -1.1066 H   0  0  0  0  0  0  0  0  0  0  0  0
    7.8718   10.7483   -1.3770 H   0  0  0  0  0  0  0  0  0  0  0  0
    7.6131   12.3261   -2.2457 H   0  0  0  0  0  0  0  0  0  0  0  0
   12.5448    8.4239    0.9691 H   0  0  0  0  0  0  0  0  0  0  0  0
   15.3169    9.1580    1.5552 H   0  0  0  0  0  0  0  0  0  0  0  0
   14.5057    8.4856    3.0101 H   0  0  0  0  0  0  0  0  0  0  0  0
   13.8787    6.4505    1.7190 H   0  0  0  0  0  0  0  0  0  0  0  0
   15.6579    6.6977    1.7173 H   0  0  0  0  0  0  0  0  0  0  0  0
   15.5715    7.0343   -0.6211 H   0  0  0  0  0  0  0  0  0  0  0  0
   14.6577    4.8887   -1.4945 H   0  0  0  0  0  0  0  0  0  0  0  0
   13.8350    2.6201   -2.0748 H   0  0  0  0  0  0  0  0  0  0  0  0
   11.3969    2.1965   -2.2721 H   0  0  0  0  0  0  0  0  0  0  0  0
   10.6041    6.3035   -1.2681 H   0  0  0  0  0  0  0  0  0  0  0  0
  1  2  1  0  0  0  0
  1 30  1  0  0  0  0
  1 31  1  0  0  0  0
  1 32  1  0  0  0  0
  2  3  1  0  0  0  0
  2 33  1  0  0  0  0
  3  4  2  0  0  0  0
  3  5  2  0  0  0  0
  3  6  1  0  0  0  0
  6 11  2  0  0  0  0
  6  7  1  0  0  0  0
  7  8  2  0  0  0  0
  7 34  1  0  0  0  0
  8  9  1  0  0  0  0
  8 14  1  0  0  0  0
  9 10  2  0  0  0  0
  9 35  1  0  0  0  0
 10 11  1  0  0  0  0
 10 36  1  0  0  0  0
 11 12  1  0  0  0  0
 12 13  1  0  0  0  0
 13 37  1  0  0  0  0
 13 38  1  0  0  0  0
 13 39  1  0  0  0  0
 14 15  2  0  0  0  0
 14 16  1  0  0  0  0
 16 17  1  0  0  0  0
 16 40  1  0  0  0  0
 17 18  1  0  0  0  0
 17 41  1  0  0  0  0
 17 42  1  0  0  0  0
 18 19  1  0  0  0  0
 18 43  1  0  0  0  0
 18 44  1  0  0  0  0
 19 20  1  0  0  0  0
 19 45  1  0  0  0  0
 20 21  2  0  0  0  0
 20 22  2  0  0  0  0
 20 23  1  0  0  0  0
 23 28  2  0  0  0  0
 23 24  1  0  0  0  0
 24 25  2  0  0  0  0
 24 46  1  0  0  0  0
 25 26  1  0  0  0  0
 25 47  1  0  0  0  0
 26 27  2  0  0  0  0
 26 48  1  0  0  0  0
 27 28  1  0  0  0  0
 27 29  1  0  0  0  0
 28 49  1  0  0  0  0
M  END
> <Name>
ZINC25133930

> <reference>
BDB4972

> <quality>
0.693

> <status>
decoy

> <atoms in reference ligand area>
17

> <score>
-28.9807

$$$$
ZINC31971727
      BALL 1.4.0 (Jan  4 2012, 23:22:29)

 47 48  0999  0  0  0  0  0  0999 V2000
    9.6621   12.3713    5.2739 C   0  0  0  0  0  0  0  0  0  0  0  0
    9.8083   13.4639    4.3646 O   0  0  0  0  0  0  0  0  0  0  0  0
    9.7575   13.1733    3.0365 C   0  0  0  0  0  0  0  0  0  0  0  0
    9.5711   11.8648    2.6209 C   0  0  0  0  0  0  0  0  0  0  0  0
    9.5194   11.5679    1.2670 C   0  0  0  0  0  0  0  0  0  0  0  0
    9.6602   12.5860    0.3254 C   0  0  0  0  0  0  0  0  0  0  0  0
    9.8410   13.8960    0.7438 C   0  0  0  0  0  0  0  0  0  0  0  0
    9.8923   14.1902    2.0968 C   0  0  0  0  0  0  0  0  0  0  0  0
   10.0744   15.4747    2.5066 O   0  0  0  0  0  0  0  0  0  0  0  0
    8.9116   16.1941    2.9221 C   0  0  0  0  0  0  0  0  0  0  0  0
    9.6139   12.2868   -1.0438 N   0  0  0  0  0  0  0  0  0  0  0  0
    9.4439   13.2752   -1.9441 C   0  0  0  0  0  0  0  0  0  0  0  0
    9.2309   14.4085   -1.5678 O   0  0  0  0  0  0  0  0  0  0  0  0
    9.5184   12.9724   -3.4185 C   0  0  0  0  0  0  0  0  0  0  0  0
   10.7101   13.5351   -4.1959 C   0  0  0  0  0  0  0  0  0  0  0  0
    9.3170   14.1371   -4.3900 C   0  0  0  0  0  0  0  0  0  0  0  0
    9.3313   10.2436    0.8458 N   0  0  0  0  0  0  0  0  0  0  0  0
    8.3927    9.4761    1.4344 C   0  0  0  0  0  0  0  0  0  0  0  0
    7.7801    9.8957    2.3934 O   0  0  0  0  0  0  0  0  0  0  0  0
    8.1046    8.0964    0.9009 C   0  0  0  0  0  0  0  0  0  0  0  0
    7.0053    8.1793   -0.1601 C   0  0  0  0  0  0  0  0  0  0  0  0
    5.9392    9.1813    0.2873 C   0  0  0  0  0  0  0  0  0  0  0  0
    4.8838    9.2610   -0.7314 N   0  3  0  0  0  0  0  0  0  0  0  0
    9.9558   12.7512    6.2635 H   0  0  0  0  0  0  0  0  0  0  0  0
   10.4009   11.6152    4.9699 H   0  0  0  0  0  0  0  0  0  0  0  0
    8.6420   11.9599    5.2842 H   0  0  0  0  0  0  0  0  0  0  0  0
    9.4642   11.0614    3.3646 H   0  0  0  0  0  0  0  0  0  0  0  0
    9.9436   14.7012    0.0015 H   0  0  0  0  0  0  0  0  0  0  0  0
    8.3430   16.4177    2.0073 H   0  0  0  0  0  0  0  0  0  0  0  0
    9.2700   17.1473    3.3380 H   0  0  0  0  0  0  0  0  0  0  0  0
    8.3042   15.6370    3.6506 H   0  0  0  0  0  0  0  0  0  0  0  0
    9.7099   11.3118   -1.3614 H   0  0  0  0  0  0  0  0  0  0  0  0
    9.0704   11.9754   -3.2951 H   0  0  0  0  0  0  0  0  0  0  0  0
   10.9876   12.8829   -5.0371 H   0  0  0  0  0  0  0  0  0  0  0  0
   11.3401   14.1747   -3.5603 H   0  0  0  0  0  0  0  0  0  0  0  0
    9.2143   15.0940   -3.8573 H   0  0  0  0  0  0  0  0  0  0  0  0
    8.8610   13.8011   -5.3330 H   0  0  0  0  0  0  0  0  0  0  0  0
    9.9104    9.8575    0.0866 H   0  0  0  0  0  0  0  0  0  0  0  0
    9.0174    7.6791    0.4507 H   0  0  0  0  0  0  0  0  0  0  0  0
    7.7711    7.4463    1.7232 H   0  0  0  0  0  0  0  0  0  0  0  0
    7.4409    8.5099   -1.1145 H   0  0  0  0  0  0  0  0  0  0  0  0
    6.5448    7.1889   -0.2907 H   0  0  0  0  0  0  0  0  0  0  0  0
    6.3978   10.1726    0.4175 H   0  0  0  0  0  0  0  0  0  0  0  0
    5.5028    8.8510    1.2415 H   0  0  0  0  0  0  0  0  0  0  0  0
    5.1206    9.9933   -1.4158 H   0  0  0  0  0  0  0  0  0  0  0  0
    3.9866    9.4903   -0.2805 H   0  0  0  0  0  0  0  0  0  0  0  0
    4.8025    8.3547   -1.2141 H   0  0  0  0  0  0  0  0  0  0  0  0
  1  2  1  0  0  0  0
  1 24  1  0  0  0  0
  1 25  1  0  0  0  0
  1 26  1  0  0  0  0
  2  3  1  0  0  0  0
  3  8  2  0  0  0  0
  3  4  1  0  0  0  0
  4  5  2  0  0  0  0
  4 27  1  0  0  0  0
  5  6  1  0  0  0  0
  5 17  1  0  0  0  0
  6  7  2  0  0  0  0
  6 11  1  0  0  0  0
  7  8  1  0  0  0  0
  7 28  1  0  0  0  0
  8  9  1  0  0  0  0
  9 10  1  0  0  0  0
 10 29  1  0  0  0  0
 10 30  1  0  0  0  0
 10 31  1  0  0  0  0
 11 12  1  0  0  0  0
 11 32  1  0  0  0  0
 12 13  2  0  0  0  0
 12 14  1  0  0  0  0
 14 16  1  0  0  0  0
 14 15  1  0  0  0  0
 14 33  1  0  0  0  0
 15 16  1  0  0  0  0
 15 34  1  0  0  0  0
 15 35  1  0  0  0  0
 16 36  1  0  0  0  0
 16 37  1  0  0  0  0
 17 18  1  0  0  0  0
 17 38  1  0  0  0  0
 18 19  2  0  0  0  0
 18 20  1  0  0  0  0
 20 21  1  0  0  0  0
 20 39  1  0  0  0  0
 20 40  1  0  0  0  0
 21 22  1  0  0  0  0
 21 41  1  0  0  0  0
 21 42  1  0  0  0  0
 22 23  1  0  0  0  0
 22 43  1  0  0  0  0
 22 44  1  0  0  0  0
 23 45  1  0  0  0  0
 23 46  1  0  0  0  0
 23 47  1  0  0  0  0
M  END
> <Name>
ZINC31971727

> <reference>
BDB5023

> <quality>
0.658

> <status>
decoy

> <atoms in reference ligand area>
18

> <score>
-28.8893

$$$$
ZINC23365452
      BALL 1.4.0 (Jan  4 2012, 23:22:29)

 51 53  0999  0  0  0  0  0  0999 V2000
    0.0677    7.1332    5.5660 C   0  0  0  0  0  0  0  0  0  0  0  0
    1.2641    7.0773    4.6511 C   0  0  0  0  0  0  0  0  0  0  0  0
    1.1343    6.5593    3.3753 C   0  0  0  0  0  0  0  0  0  0  0  0
    2.2307    6.5011    2.5350 C   0  0  0  0  0  0  0  0  0  0  0  0
    3.4585    6.9648    2.9659 C   0  0  0  0  0  0  0  0  0  0  0  0
    3.5908    7.4901    4.2443 C   0  0  0  0  0  0  0  0  0  0  0  0
    2.4874    7.5477    5.0859 C   0  0  0  0  0  0  0  0  0  0  0  0
    2.6265    8.1172    6.4742 C   0  0  0  0  0  0  0  0  0  0  0  0
    4.8330    7.9611    4.6837 N   0  0  0  0  0  0  0  0  0  0  0  0
    5.8632    7.1052    4.8343 C   0  0  0  0  0  0  0  0  0  0  0  0
    5.6977    5.9182    4.6478 O   0  0  0  0  0  0  0  0  0  0  0  0
    7.2207    7.6230    5.2345 C   0  0  0  0  0  0  0  0  0  0  0  0
    7.6789    9.0067    4.1615 S   0  0  0  0  0  0  0  0  0  0  0  0
    9.3886    8.6546    3.9214 C   0  0  0  0  0  0  0  0  0  0  0  0
    9.9481    7.4669    3.9183 N   0  0  0  0  0  0  0  0  0  0  0  0
   11.2120    7.5802    3.7146 N   0  0  0  0  0  0  0  0  0  0  0  0
   11.5321    8.8357    3.5767 C   0  0  0  0  0  0  0  0  0  0  0  0
   10.3814    9.5648    3.6976 N   0  0  0  0  0  0  0  0  0  0  0  0
   10.2432   11.0206    3.6089 C   0  0  0  0  0  0  0  0  0  0  0  0
    9.1128   11.3675    2.6379 C   0  0  0  0  0  0  0  0  0  0  0  0
    8.8059   12.8400    2.7297 C   0  0  0  0  0  0  0  0  0  0  0  0
    9.3885   13.6267    2.0139 O   0  0  0  0  0  0  0  0  0  0  0  0
    7.8837   13.2826    3.6074 N   0  0  0  0  0  0  0  0  0  0  0  0
   12.9135    9.3826    3.3244 C   0  0  0  0  0  0  0  0  0  0  0  0
   13.2995   10.6818    4.0343 C   0  0  0  0  0  0  0  0  0  0  0  0
   13.0233   10.6849    2.5288 C   0  0  0  0  0  0  0  0  0  0  0  0
    4.6317    6.9020    2.0656 N   0  0  0  0  0  0  0  0  0  0  0  0
    4.4912    7.0795    0.8688 O   0  0  0  0  0  0  0  0  0  0  0  0
    5.7376    6.6729    2.5215 O   0  0  0  0  0  0  0  0  0  0  0  0
   -0.7988    6.9415    4.9161 H   0  0  0  0  0  0  0  0  0  0  0  0
    0.0049    8.1821    5.8912 H   0  0  0  0  0  0  0  0  0  0  0  0
    0.1220    6.4327    6.4125 H   0  0  0  0  0  0  0  0  0  0  0  0
    0.1568    6.1929    3.0284 H   0  0  0  0  0  0  0  0  0  0  0  0
    2.1251    6.0850    1.5221 H   0  0  0  0  0  0  0  0  0  0  0  0
    2.6438    7.2427    7.1412 H   0  0  0  0  0  0  0  0  0  0  0  0
    1.6820    8.6494    6.6605 H   0  0  0  0  0  0  0  0  0  0  0  0
    3.5070    8.7637    6.6042 H   0  0  0  0  0  0  0  0  0  0  0  0
    4.9601    8.9618    4.8920 H   0  0  0  0  0  0  0  0  0  0  0  0
    7.1894    7.9649    6.2795 H   0  0  0  0  0  0  0  0  0  0  0  0
    7.9652    6.8196    5.1336 H   0  0  0  0  0  0  0  0  0  0  0  0
   10.0094   11.4281    4.6035 H   0  0  0  0  0  0  0  0  0  0  0  0
   11.1849   11.4579    3.2455 H   0  0  0  0  0  0  0  0  0  0  0  0
    8.2139   10.7894    2.8983 H   0  0  0  0  0  0  0  0  0  0  0  0
    9.4225   11.1214    1.6115 H   0  0  0  0  0  0  0  0  0  0  0  0
    6.9104   12.9520    3.5423 H   0  0  0  0  0  0  0  0  0  0  0  0
    8.1523   13.9515    4.3432 H   0  0  0  0  0  0  0  0  0  0  0  0
   13.3577    8.3798    3.2408 H   0  0  0  0  0  0  0  0  0  0  0  0
   14.3784   10.7213    4.2455 H   0  0  0  0  0  0  0  0  0  0  0  0
   12.4532   11.0991    4.5997 H   0  0  0  0  0  0  0  0  0  0  0  0
   12.0321   11.1046    2.3025 H   0  0  0  0  0  0  0  0  0  0  0  0
   13.9568   10.7251    1.9483 H   0  0  0  0  0  0  0  0  0  0  0  0
  1  2  1  0  0  0  0
  1 30  1  0  0  0  0
  1 31  1  0  0  0  0
  1 32  1  0  0  0  0
  2  7  2  0  0  0  0
  2  3  1  0  0  0  0
  3  4  2  0  0  0  0
  3 33  1  0  0  0  0
  4  5  1  0  0  0  0
  4 34  1  0  0  0  0
  5  6  2  0  0  0  0
  5 27  1  0  0  0  0
  6  7  1  0  0  0  0
  6  9  1  0  0  0  0
  7  8  1  0  0  0  0
  8 35  1  0  0  0  0
  8 36  1  0  0  0  0
  8 37  1  0  0  0  0
  9 10  1  0  0  0  0
  9 38  1  0  0  0  0
 10 11  2  0  0  0  0
 10 12  1  0  0  0  0
 12 13  1  0  0  0  0
 12 39  1  0  0  0  0
 12 40  1  0  0  0  0
 13 14  1  0  0  0  0
 14 18  1  0  0  0  0
 14 15  2  0  0  0  0
 15 16  1  0  0  0  0
 16 17  2  0  0  0  0
 17 18  1  0  0  0  0
 17 24  1  0  0  0  0
 18 19  1  0  0  0  0
 19 20  1  0  0  0  0
 19 41  1  0  0  0  0
 19 42  1  0  0  0  0
 20 21  1  0  0  0  0
 20 43  1  0  0  0  0
 20 44  1  0  0  0  0
 21 22  2  0  0  0  0
 21 23  1  0  0  0  0
 23 45  1  0  0  0  0
 23 46  1  0  0  0  0
 24 26  1  0  0  0  0
 24 25  1  0  0  0  0
 24 47  1  0  0  0  0
 25 26  1  0  0  0  0
 25 48  1  0  0  0  0
 25 49  1  0  0  0  0
 26 50  1  0  0  0  0
 26 51  1  0  0  0  0
 27 28  2  0  0  0  0
 27 29  2  0  0  0  0
M  END
> <Name>
ZINC23365452

> <reference>
BDB4965

> <quality>
0.690

> <status>
decoy

> <atoms in reference ligand area>
12

> <score>
-28.786

$$$$
ZINC17002242
      BALL 1.4.0 (Jan  4 2012, 23:22:29)

 35 35  0999  0  0  0  0  0  0999 V2000
   15.4119   10.3464    5.0516 C   0  0  0  0  0  0  0  0  0  0  0  0
   15.4072   12.7227    5.5160 C   0  0  0  0  0  0  0  0  0  0  0  0
   14.1438   11.8527    3.6425 C   0  0  0  0  0  0  0  0  0  0  0  0
   12.7124   11.3341    3.4912 C   0  0  0  0  0  0  0  0  0  0  0  0
   12.1239   11.8387    2.1722 C   0  0  0  0  0  0  0  0  0  0  0  0
   10.7533   11.3422    2.0272 N   0  0  0  0  0  0  0  0  0  0  0  0
   10.0043   11.6746    0.8909 N   0  0  0  0  0  0  0  0  0  0  0  0
    8.7436   11.4045    0.8475 N   0  0  0  0  0  0  0  0  0  0  0  0
    8.0128   11.7289   -0.2613 C   0  0  0  0  0  0  0  0  0  0  0  0
    6.7866   11.1831   -0.6312 C   0  0  0  0  0  0  0  0  0  0  0  0
    6.4328   11.8109   -1.8125 N   0  0  0  0  0  0  0  0  0  0  0  0
    7.4162   12.6780   -2.1151 C   0  0  0  0  0  0  0  0  0  0  0  0
    8.3439   12.6333   -1.1975 N   0  0  0  0  0  0  0  0  0  0  0  0
    6.0282   10.1566    0.0821 C   0  0  0  0  0  0  0  0  0  0  0  0
    6.4631    9.6883    1.1184 O   0  0  0  0  0  0  0  0  0  0  0  0
    4.8476    9.7288   -0.4075 N   0  0  0  0  0  0  0  0  0  0  0  0
   14.6049   11.5843    5.0210 N   0  3  0  0  0  0  0  0  0  0  0  0
   15.7327   10.1469    6.0847 H   0  0  0  0  0  0  0  0  0  0  0  0
   16.2987   10.4746    4.4134 H   0  0  0  0  0  0  0  0  0  0  0  0
   14.8112    9.5020    4.6826 H   0  0  0  0  0  0  0  0  0  0  0  0
   15.4195   12.7079    6.6158 H   0  0  0  0  0  0  0  0  0  0  0  0
   14.9553   13.6639    5.1696 H   0  0  0  0  0  0  0  0  0  0  0  0
   16.4361   12.6456    5.1347 H   0  0  0  0  0  0  0  0  0  0  0  0
   14.1663   12.9357    3.4516 H   0  0  0  0  0  0  0  0  0  0  0  0
   14.8005   11.3353    2.9276 H   0  0  0  0  0  0  0  0  0  0  0  0
   12.7188   10.2341    3.4923 H   0  0  0  0  0  0  0  0  0  0  0  0
   12.0989   11.6981    4.3286 H   0  0  0  0  0  0  0  0  0  0  0  0
   12.1170   12.9387    2.1707 H   0  0  0  0  0  0  0  0  0  0  0  0
   12.7355   11.4747    1.3335 H   0  0  0  0  0  0  0  0  0  0  0  0
   10.3402   10.7486    2.7608 H   0  0  0  0  0  0  0  0  0  0  0  0
    5.5755   11.6451   -2.3590 H   0  0  0  0  0  0  0  0  0  0  0  0
    7.4356   13.3274   -3.0027 H   0  0  0  0  0  0  0  0  0  0  0  0
    4.0613    9.5442    0.2318 H   0  0  0  0  0  0  0  0  0  0  0  0
    4.7315    9.5864   -1.4210 H   0  0  0  0  0  0  0  0  0  0  0  0
   13.7837   11.4636    5.6309 H   0  0  0  0  0  0  0  0  0  0  0  0
  1 17  1  0  0  0  0
  1 18  1  0  0  0  0
  1 19  1  0  0  0  0
  1 20  1  0  0  0  0
  2 17  1  0  0  0  0
  2 21  1  0  0  0  0
  2 22  1  0  0  0  0
  2 23  1  0  0  0  0
  3  4  1  0  0  0  0
  3 17  1  0  0  0  0
  3 24  1  0  0  0  0
  3 25  1  0  0  0  0
  4  5  1  0  0  0  0
  4 26  1  0  0  0  0
  4 27  1  0  0  0  0
  5  6  1  0  0  0  0
  5 28  1  0  0  0  0
  5 29  1  0  0  0  0
  6  7  1  0  0  0  0
  6 30  1  0  0  0  0
  7  8  2  0  0  0  0
  8  9  1  0  0  0  0
  9 13  1  0  0  0  0
  9 10  2  0  0  0  0
 10 11  1  0  0  0  0
 10 14  1  0  0  0  0
 11 12  1  0  0  0  0
 11 31  1  0  0  0  0
 12 13  2  0  0  0  0
 12 32  1  0  0  0  0
 14 15  2  0  0  0  0
 14 16  1  0  0  0  0
 16 33  1  0  0  0  0
 16 34  1  0  0  0  0
 17 35  1  0  0  0  0
M  END
> <Name>
ZINC17002242

> <reference>
BDB5021

> <quality>
0.654

> <status>
decoy

> <atoms in reference ligand area>
14

> <score>
-28.7847

$$$$
ZINC15775177
      BALL 1.4.0 (Jan  4 2012, 23:22:29)

 38 39  0999  0  0  0  0  0  0999 V2000
    3.8283    6.1524   -2.1383 C   0  0  0  0  0  0  0  0  0  0  0  0
    4.7586    7.0075   -1.3172 C   0  0  0  0  0  0  0  0  0  0  0  0
    4.4302    7.3281   -0.0128 C   0  0  0  0  0  0  0  0  0  0  0  0
    5.2806    8.1112    0.7426 C   0  0  0  0  0  0  0  0  0  0  0  0
    6.4672    8.5773    0.1905 C   0  0  0  0  0  0  0  0  0  0  0  0
    6.7911    8.2584   -1.1223 C   0  0  0  0  0  0  0  0  0  0  0  0
    5.9388    7.4702   -1.8701 C   0  0  0  0  0  0  0  0  0  0  0  0
    7.3301    9.3698    0.9520 N   0  0  0  0  0  0  0  0  0  0  0  0
    7.7243   10.6149    0.4829 C   0  0  0  0  0  0  0  0  0  0  0  0
    7.8125   11.0700   -0.7600 N   0  0  0  0  0  0  0  0  0  0  0  0
    8.1904   12.2467   -1.0119 N   0  0  0  0  0  0  0  0  0  0  0  0
    8.5309   13.0934   -0.0614 C   0  0  0  0  0  0  0  0  0  0  0  0
    8.2609   12.0679    1.3813 S   0  0  0  0  0  0  0  0  0  0  0  0
    9.0056   14.5203   -0.1602 C   0  0  0  0  0  0  0  0  0  0  0  0
   10.5182   14.5397   -0.3896 C   0  0  0  0  0  0  0  0  0  0  0  0
   10.8137   14.2694   -1.8663 C   0  0  0  0  0  0  0  0  0  0  0  0
   12.2626   14.6515   -2.1748 C   0  0  0  0  0  0  0  0  0  0  0  0
   12.6468   14.0879   -3.4305 O   0  0  0  0  0  0  0  0  0  0  0  0
    9.9325   15.0478   -2.6785 O   0  0  0  0  0  0  0  0  0  0  0  0
   11.0387   15.8200   -0.0263 O   0  0  0  0  0  0  0  0  0  0  0  0
    8.3497   15.1660   -1.2532 O   0  0  0  0  0  0  0  0  0  0  0  0
    4.1930    5.1232   -2.0052 H   0  0  0  0  0  0  0  0  0  0  0  0
    4.0261    6.4353   -3.1827 H   0  0  0  0  0  0  0  0  0  0  0  0
    2.7680    6.2614   -1.8665 H   0  0  0  0  0  0  0  0  0  0  0  0
    3.4903    6.9590    0.4236 H   0  0  0  0  0  0  0  0  0  0  0  0
    5.0188    8.3655    1.7803 H   0  0  0  0  0  0  0  0  0  0  0  0
    7.7255    8.6332   -1.5655 H   0  0  0  0  0  0  0  0  0  0  0  0
    6.1989    7.2101   -2.9068 H   0  0  0  0  0  0  0  0  0  0  0  0
    7.6736    9.0299    1.8616 H   0  0  0  0  0  0  0  0  0  0  0  0
    8.7696   15.0508    0.7741 H   0  0  0  0  0  0  0  0  0  0  0  0
   10.9926   13.7624    0.2275 H   0  0  0  0  0  0  0  0  0  0  0  0
   10.6626   13.2012   -2.0809 H   0  0  0  0  0  0  0  0  0  0  0  0
   12.3509   15.7469   -2.2226 H   0  0  0  0  0  0  0  0  0  0  0  0
   12.9215   14.2647   -1.3833 H   0  0  0  0  0  0  0  0  0  0  0  0
   12.1677   14.5521   -4.1621 H   0  0  0  0  0  0  0  0  0  0  0  0
    9.9497   15.9903   -2.3762 H   0  0  0  0  0  0  0  0  0  0  0  0
   11.4702   16.2374   -0.8135 H   0  0  0  0  0  0  0  0  0  0  0  0
    7.4404   15.4430   -0.9766 H   0  0  0  0  0  0  0  0  0  0  0  0
  1  2  1  0  0  0  0
  1 22  1  0  0  0  0
  1 23  1  0  0  0  0
  1 24  1  0  0  0  0
  2  7  2  0  0  0  0
  2  3  1  0  0  0  0
  3  4  2  0  0  0  0
  3 25  1  0  0  0  0
  4  5  1  0  0  0  0
  4 26  1  0  0  0  0
  5  6  2  0  0  0  0
  5  8  1  0  0  0  0
  6  7  1  0  0  0  0
  6 27  1  0  0  0  0
  7 28  1  0  0  0  0
  8  9  1  0  0  0  0
  8 29  1  0  0  0  0
  9 13  1  0  0  0  0
  9 10  2  0  0  0  0
 10 11  1  0  0  0  0
 11 12  2  0  0  0  0
 12 13  1  0  0  0  0
 12 14  1  0  0  0  0
 14 15  1  0  0  0  0
 14 21  1  0  0  0  0
 14 30  1  0  0  0  0
 15 16  1  0  0  0  0
 15 20  1  0  0  0  0
 15 31  1  0  0  0  0
 16 17  1  0  0  0  0
 16 19  1  0  0  0  0
 16 32  1  0  0  0  0
 17 18  1  0  0  0  0
 17 33  1  0  0  0  0
 17 34  1  0  0  0  0
 18 35  1  0  0  0  0
 19 36  1  0  0  0  0
 20 37  1  0  0  0  0
 21 38  1  0  0  0  0
M  END
> <Name>
ZINC15775177

> <reference>
BDB5219

> <quality>
0.676

> <status>
decoy

> <atoms in reference ligand area>
11

> <score>
-28.6905

$$$$
ZINC31599770
      BALL 1.4.0 (Jan  4 2012, 23:22:29)

 38 38  0999  0  0  0  0  0  0999 V2000
    6.0970    5.8282   -0.3838 C   0  0  0  0  0  0  0  0  0  0  0  0
    4.7274    6.3508    0.0545 C   0  0  0  0  0  0  0  0  0  0  0  0
    4.8744    7.7734    0.5980 C   0  0  0  0  0  0  0  0  0  0  0  0
    5.4404    8.6813   -0.4957 C   0  0  0  0  0  0  0  0  0  0  0  0
    6.8100    8.1587   -0.9341 C   0  0  0  0  0  0  0  0  0  0  0  0
    6.6631    6.7361   -1.4775 C   0  0  0  0  0  0  0  0  0  0  0  0
    5.6147   10.3680    0.1487 S   0  0  0  0  0  0  0  0  0  0  0  0
    7.2587   10.8860   -0.4166 C   0  0  0  0  0  0  0  0  0  0  0  0
    7.1257   12.1246   -1.3050 C   0  0  0  0  0  0  0  0  0  0  0  0
    8.0609   13.1557   -0.8486 N   0  3  0  0  0  0  0  0  0  0  0  0
    8.3178   14.1750   -1.6019 C   0  0  0  0  0  0  0  0  0  0  0  0
    9.1621   15.3071   -1.0758 C   0  0  0  0  0  0  0  0  0  0  0  0
   10.5288   14.6347   -0.0905 S   0  0  0  0  0  0  0  0  0  0  0  0
   12.0362   14.3639   -1.4532 S   0  0  0  0  0  0  0  0  0  0  0  0
   13.1157   15.1873   -1.0336 O   0  0  0  0  0  0  0  0  0  0  0  0
   12.1735   12.9611   -1.6334 O   0  0  0  0  0  0  0  0  0  0  0  0
   11.5496   14.9274   -2.7805 O   0  5  0  0  0  0  0  0  0  0  0  0
    7.8225   14.2256   -2.8782 N   0  0  0  0  0  0  0  0  0  0  0  0
    5.9907    4.8055   -0.7746 H   0  0  0  0  0  0  0  0  0  0  0  0
    6.7795    5.8220    0.4789 H   0  0  0  0  0  0  0  0  0  0  0  0
    4.3196    5.6989    0.8411 H   0  0  0  0  0  0  0  0  0  0  0  0
    4.0441    6.3568   -0.8075 H   0  0  0  0  0  0  0  0  0  0  0  0
    3.8897    8.1494    0.9126 H   0  0  0  0  0  0  0  0  0  0  0  0
    5.5578    7.7691    1.4599 H   0  0  0  0  0  0  0  0  0  0  0  0
    4.7571    8.6869   -1.3577 H   0  0  0  0  0  0  0  0  0  0  0  0
    7.2168    8.8110   -1.7209 H   0  0  0  0  0  0  0  0  0  0  0  0
    7.4942    8.1525   -0.0727 H   0  0  0  0  0  0  0  0  0  0  0  0
    7.6480    6.3608   -1.7923 H   0  0  0  0  0  0  0  0  0  0  0  0
    5.9804    6.7425   -2.3400 H   0  0  0  0  0  0  0  0  0  0  0  0
    7.8872   11.1256    0.4538 H   0  0  0  0  0  0  0  0  0  0  0  0
    7.7235   10.0715   -0.9916 H   0  0  0  0  0  0  0  0  0  0  0  0
    6.0975   12.5111   -1.2457 H   0  0  0  0  0  0  0  0  0  0  0  0
    7.3569   11.8557   -2.3463 H   0  0  0  0  0  0  0  0  0  0  0  0
    8.5139   13.0687    0.0724 H   0  0  0  0  0  0  0  0  0  0  0  0
    8.5449   15.9639   -0.4451 H   0  0  0  0  0  0  0  0  0  0  0  0
    9.5684   15.8845   -1.9194 H   0  0  0  0  0  0  0  0  0  0  0  0
    7.3789   13.3931   -3.2919 H   0  0  0  0  0  0  0  0  0  0  0  0
    7.8937   15.0962   -3.4240 H   0  0  0  0  0  0  0  0  0  0  0  0
  1  6  1  0  0  0  0
  1  2  1  0  0  0  0
  1 19  1  0  0  0  0
  1 20  1  0  0  0  0
  2  3  1  0  0  0  0
  2 21  1  0  0  0  0
  2 22  1  0  0  0  0
  3  4  1  0  0  0  0
  3 23  1  0  0  0  0
  3 24  1  0  0  0  0
  4  5  1  0  0  0  0
  4  7  1  0  0  0  0
  4 25  1  0  0  0  0
  5  6  1  0  0  0  0
  5 26  1  0  0  0  0
  5 27  1  0  0  0  0
  6 28  1  0  0  0  0
  6 29  1  0  0  0  0
  7  8  1  0  0  0  0
  8  9  1  0  0  0  0
  8 30  1  0  0  0  0
  8 31  1  0  0  0  0
  9 10  1  0  0  0  0
  9 32  1  0  0  0  0
  9 33  1  0  0  0  0
 10 11  2  0  0  0  0
 10 34  1  0  0  0  0
 11 12  1  0  0  0  0
 11 18  1  0  0  0  0
 12 13  1  0  0  0  0
 12 35  1  0  0  0  0
 12 36  1  0  0  0  0
 13 14  1  0  0  0  0
 14 15  2  0  0  0  0
 14 16  2  0  0  0  0
 14 17  1  0  0  0  0
 18 37  1  0  0  0  0
 18 38  1  0  0  0  0
M  END
> <Name>
ZINC31599770

> <reference>
BDB5023

> <quality>
0.664

> <status>
decoy

> <atoms in reference ligand area>
14

> <score>
-28.6756

$$$$
ZINC08615535
      BALL 1.4.0 (Jan  4 2012, 23:22:29)

 49 50  0999  0  0  0  0  0  0999 V2000
    9.4423   13.7772    1.9808 C   0  0  0  0  0  0  0  0  0  0  0  0
    9.7152   12.8909    3.1977 C   0  0  0  0  0  0  0  0  0  0  0  0
   10.9308   13.3548    3.8917 N   0  0  0  0  0  0  0  0  0  0  0  0
   12.1500   13.0631    3.2926 C   0  0  0  0  0  0  0  0  0  0  0  0
   12.2981   11.7707    2.7926 N   0  0  0  0  0  0  0  0  0  0  0  0
   11.1766   11.2230    2.1718 C   0  0  0  0  0  0  0  0  0  0  0  0
    9.9505   11.5018    2.7623 N   0  0  0  0  0  0  0  0  0  0  0  0
    8.9795   10.5065    2.9364 C   0  0  0  0  0  0  0  0  0  0  0  0
    8.2294   10.0711    1.8522 C   0  0  0  0  0  0  0  0  0  0  0  0
    7.2765    9.0866    2.0227 C   0  0  0  0  0  0  0  0  0  0  0  0
    7.0601    8.5401    3.2810 C   0  0  0  0  0  0  0  0  0  0  0  0
    7.8066    8.9798    4.3665 C   0  0  0  0  0  0  0  0  0  0  0  0
    8.7636    9.9600    4.1945 C   0  0  0  0  0  0  0  0  0  0  0  0
    6.0898    7.5469    3.4551 N   0  0  0  0  0  0  0  0  0  0  0  0
    5.8614    6.9708    4.7826 C   0  0  0  0  0  0  0  0  0  0  0  0
    5.6826    8.0967    5.8031 C   0  0  0  0  0  0  0  0  0  0  0  0
    4.3879    8.6808    5.6462 O   0  0  0  0  0  0  0  0  0  0  0  0
    5.3026    7.0832    2.3100 C   0  0  0  0  0  0  0  0  0  0  0  0
    4.0251    6.4055    2.8100 C   0  0  0  0  0  0  0  0  0  0  0  0
    3.3135    7.3024    3.6650 O   0  0  0  0  0  0  0  0  0  0  0  0
    8.5214   12.9401    4.1534 C   0  0  0  0  0  0  0  0  0  0  0  0
   13.0761   14.0076    3.2334 N   0  3  0  0  0  0  0  0  0  0  0  0
   11.2069   10.4717    1.0817 N   0  3  0  0  0  0  0  0  0  0  0  0
   10.3922   14.1885    1.6086 H   0  0  0  0  0  0  0  0  0  0  0  0
    8.7768   14.6030    2.2727 H   0  0  0  0  0  0  0  0  0  0  0  0
    8.9640   13.1818    1.1891 H   0  0  0  0  0  0  0  0  0  0  0  0
   10.8784   13.8719    4.7810 H   0  0  0  0  0  0  0  0  0  0  0  0
   13.1835   11.2512    2.8768 H   0  0  0  0  0  0  0  0  0  0  0  0
    8.3943   10.5105    0.8574 H   0  0  0  0  0  0  0  0  0  0  0  0
    6.6887    8.7351    1.1619 H   0  0  0  0  0  0  0  0  0  0  0  0
    7.6353    8.5472    5.3633 H   0  0  0  0  0  0  0  0  0  0  0  0
    9.3551   10.3080    5.0541 H   0  0  0  0  0  0  0  0  0  0  0  0
    6.7245    6.3516    5.0684 H   0  0  0  0  0  0  0  0  0  0  0  0
    4.9545    6.3486    4.7613 H   0  0  0  0  0  0  0  0  0  0  0  0
    5.7794    7.6888    6.8200 H   0  0  0  0  0  0  0  0  0  0  0  0
    6.4528    8.8652    5.6414 H   0  0  0  0  0  0  0  0  0  0  0  0
    4.2080    9.2945    6.4019 H   0  0  0  0  0  0  0  0  0  0  0  0
    5.8936    6.3634    1.7247 H   0  0  0  0  0  0  0  0  0  0  0  0
    5.0374    7.9417    1.6756 H   0  0  0  0  0  0  0  0  0  0  0  0
    3.3917    6.1381    1.9514 H   0  0  0  0  0  0  0  0  0  0  0  0
    4.2866    5.4957    3.3703 H   0  0  0  0  0  0  0  0  0  0  0  0
    3.0765    8.1214    3.1618 H   0  0  0  0  0  0  0  0  0  0  0  0
    8.8783   13.1497    5.1727 H   0  0  0  0  0  0  0  0  0  0  0  0
    8.0036   11.9697    4.1408 H   0  0  0  0  0  0  0  0  0  0  0  0
    7.8263   13.7319    3.8372 H   0  0  0  0  0  0  0  0  0  0  0  0
   12.9002   14.9445    3.6237 H   0  0  0  0  0  0  0  0  0  0  0  0
   13.9828   13.8002    2.7909 H   0  0  0  0  0  0  0  0  0  0  0  0
   12.1359   10.2888    0.6763 H   0  0  0  0  0  0  0  0  0  0  0  0
   10.3550   10.0843    0.6515 H   0  0  0  0  0  0  0  0  0  0  0  0
  1  2  1  0  0  0  0
  1 24  1  0  0  0  0
  1 25  1  0  0  0  0
  1 26  1  0  0  0  0
  2  7  1  0  0  0  0
  2  3  1  0  0  0  0
  2 21  1  0  0  0  0
  3  4  1  0  0  0  0
  3 27  1  0  0  0  0
  4  5  1  0  0  0  0
  4 22  2  0  0  0  0
  5  6  1  0  0  0  0
  5 28  1  0  0  0  0
  6  7  1  0  0  0  0
  6 23  2  0  0  0  0
  7  8  1  0  0  0  0
  8 13  2  0  0  0  0
  8  9  1  0  0  0  0
  9 10  2  0  0  0  0
  9 29  1  0  0  0  0
 10 11  1  0  0  0  0
 10 30  1  0  0  0  0
 11 12  2  0  0  0  0
 11 14  1  0  0  0  0
 12 13  1  0  0  0  0
 12 31  1  0  0  0  0
 13 32  1  0  0  0  0
 14 15  1  0  0  0  0
 14 18  1  0  0  0  0
 15 16  1  0  0  0  0
 15 33  1  0  0  0  0
 15 34  1  0  0  0  0
 16 17  1  0  0  0  0
 16 35  1  0  0  0  0
 16 36  1  0  0  0  0
 17 37  1  0  0  0  0
 18 19  1  0  0  0  0
 18 38  1  0  0  0  0
 18 39  1  0  0  0  0
 19 20  1  0  0  0  0
 19 40  1  0  0  0  0
 19 41  1  0  0  0  0
 20 42  1  0  0  0  0
 21 43  1  0  0  0  0
 21 44  1  0  0  0  0
 21 45  1  0  0  0  0
 22 46  1  0  0  0  0
 22 47  1  0  0  0  0
 23 48  1  0  0  0  0
 23 49  1  0  0  0  0
M  END
> <Name>
ZINC08615535

> <reference>
BDB5228

> <quality>
0.725

> <status>
decoy

> <atoms in reference ligand area>
15

> <score>
-28.5618

$$$$
ZINC28887676
      BALL 1.4.0 (Jan  4 2012, 23:22:29)

 56 59  0999  0  0  0  0  0  0999 V2000
    3.6099    7.0657   -2.2208 C   0  0  0  0  0  0  0  0  0  0  0  0
    4.3265    8.0097   -1.4225 O   0  0  0  0  0  0  0  0  0  0  0  0
    5.5595    7.6382   -0.9848 C   0  0  0  0  0  0  0  0  0  0  0  0
    6.4118    6.9382   -1.8228 C   0  0  0  0  0  0  0  0  0  0  0  0
    7.6652    6.5611   -1.3764 C   0  0  0  0  0  0  0  0  0  0  0  0
    8.0715    6.8806   -0.0942 C   0  0  0  0  0  0  0  0  0  0  0  0
    7.2290    7.5836    0.7465 C   0  0  0  0  0  0  0  0  0  0  0  0
    5.9682    7.9605    0.3074 C   0  0  0  0  0  0  0  0  0  0  0  0
    5.1112    8.6677    1.1585 N   0  5  0  0  0  0  0  0  0  0  0  0
    5.6876    9.9477    2.0371 S   0  0  0  0  0  0  0  0  0  0  0  0
    5.8472    9.4854    3.3713 O   0  0  0  0  0  0  0  0  0  0  0  0
    4.8723   11.0646    1.7104 O   0  0  0  0  0  0  0  0  0  0  0  0
    7.3028   10.3092    1.4328 C   0  0  0  0  0  0  0  0  0  0  0  0
    7.4803   10.6620    0.1076 C   0  0  0  0  0  0  0  0  0  0  0  0
    8.7452   10.9464   -0.3723 C   0  0  0  0  0  0  0  0  0  0  0  0
    9.8395   10.8782    0.4749 C   0  0  0  0  0  0  0  0  0  0  0  0
    9.6620   10.5177    1.8086 C   0  0  0  0  0  0  0  0  0  0  0  0
    8.3890   10.2389    2.2843 C   0  0  0  0  0  0  0  0  0  0  0  0
   10.7656   10.4415    2.6686 N   0  0  0  0  0  0  0  0  0  0  0  0
   11.9566   10.0183    2.2008 C   0  0  0  0  0  0  0  0  0  0  0  0
   12.0501    9.6075    1.0634 O   0  0  0  0  0  0  0  0  0  0  0  0
   13.1721   10.0554    3.0909 C   0  0  0  0  0  0  0  0  0  0  0  0
   12.8886    9.3625    4.4438 C   0  0  0  0  0  0  0  0  0  0  0  0
   14.1845    8.6571    4.7781 C   0  0  0  0  0  0  0  0  0  0  0  0
   14.4807    8.2308    5.8742 O   0  0  0  0  0  0  0  0  0  0  0  0
   14.9596    8.5709    3.6833 N   0  0  0  0  0  0  0  0  0  0  0  0
   14.3045    9.1751    2.5172 C   0  0  0  0  0  0  0  0  0  0  0  0
   16.2877    7.9530    3.6573 C   0  0  0  0  0  0  0  0  0  0  0  0
   16.9662    8.2586    2.3204 C   0  0  0  0  0  0  0  0  0  0  0  0
   18.4779    8.0406    2.2294 C   0  0  0  0  0  0  0  0  0  0  0  0
   17.9100    9.4616    2.2660 C   0  0  0  0  0  0  0  0  0  0  0  0
   11.0843   11.1571    0.0041 O   0  0  0  0  0  0  0  0  0  0  0  0
    3.2286    7.6219   -3.0898 H   0  0  0  0  0  0  0  0  0  0  0  0
    2.7461    6.7450   -1.6199 H   0  0  0  0  0  0  0  0  0  0  0  0
    4.2299    6.2104   -2.5275 H   0  0  0  0  0  0  0  0  0  0  0  0
    6.0916    6.6822   -2.8436 H   0  0  0  0  0  0  0  0  0  0  0  0
    8.3406    6.0054   -2.0434 H   0  0  0  0  0  0  0  0  0  0  0  0
    9.0677    6.5747    0.2579 H   0  0  0  0  0  0  0  0  0  0  0  0
    7.5581    7.8439    1.7633 H   0  0  0  0  0  0  0  0  0  0  0  0
    6.6128   10.7166   -0.5665 H   0  0  0  0  0  0  0  0  0  0  0  0
    8.8829   11.2268   -1.4270 H   0  0  0  0  0  0  0  0  0  0  0  0
    8.2443    9.9620    3.3390 H   0  0  0  0  0  0  0  0  0  0  0  0
   10.6666   10.7090    3.6583 H   0  0  0  0  0  0  0  0  0  0  0  0
   13.4344   11.1200    3.1797 H   0  0  0  0  0  0  0  0  0  0  0  0
   12.0765    8.6290    4.3312 H   0  0  0  0  0  0  0  0  0  0  0  0
   12.6575   10.1145    5.2127 H   0  0  0  0  0  0  0  0  0  0  0  0
   15.0219    9.7986    1.9636 H   0  0  0  0  0  0  0  0  0  0  0  0
   13.8801    8.3895    1.8747 H   0  0  0  0  0  0  0  0  0  0  0  0
   16.1891    6.8639    3.7771 H   0  0  0  0  0  0  0  0  0  0  0  0
   16.8972    8.3584    4.4783 H   0  0  0  0  0  0  0  0  0  0  0  0
   16.0954    7.9256    1.7367 H   0  0  0  0  0  0  0  0  0  0  0  0
   18.7842    7.7559    1.2120 H   0  0  0  0  0  0  0  0  0  0  0  0
   18.9029    7.7518    3.2020 H   0  0  0  0  0  0  0  0  0  0  0  0
   18.0371    9.9203    3.2578 H   0  0  0  0  0  0  0  0  0  0  0  0
   17.9169    9.9237    1.2678 H   0  0  0  0  0  0  0  0  0  0  0  0
   11.2625   10.4581   -0.6739 H   0  0  0  0  0  0  0  0  0  0  0  0
  1  2  1  0  0  0  0
  1 33  1  0  0  0  0
  1 34  1  0  0  0  0
  1 35  1  0  0  0  0
  2  3  1  0  0  0  0
  3  8  2  0  0  0  0
  3  4  1  0  0  0  0
  4  5  2  0  0  0  0
  4 36  1  0  0  0  0
  5  6  1  0  0  0  0
  5 37  1  0  0  0  0
  6  7  2  0  0  0  0
  6 38  1  0  0  0  0
  7  8  1  0  0  0  0
  7 39  1  0  0  0  0
  8  9  1  0  0  0  0
  9 10  1  0  0  0  0
 10 11  2  0  0  0  0
 10 12  2  0  0  0  0
 10 13  1  0  0  0  0
 13 18  2  0  0  0  0
 13 14  1  0  0  0  0
 14 15  2  0  0  0  0
 14 40  1  0  0  0  0
 15 16  1  0  0  0  0
 15 41  1  0  0  0  0
 16 17  2  0  0  0  0
 16 32  1  0  0  0  0
 17 18  1  0  0  0  0
 17 19  1  0  0  0  0
 18 42  1  0  0  0  0
 19 20  1  0  0  0  0
 19 43  1  0  0  0  0
 20 21  2  0  0  0  0
 20 22  1  0  0  0  0
 22 27  1  0  0  0  0
 22 23  1  0  0  0  0
 22 44  1  0  0  0  0
 23 24  1  0  0  0  0
 23 45  1  0  0  0  0
 23 46  1  0  0  0  0
 24 25  2  0  0  0  0
 24 26  1  0  0  0  0
 26 27  1  0  0  0  0
 26 28  1  0  0  0  0
 27 47  1  0  0  0  0
 27 48  1  0  0  0  0
 28 29  1  0  0  0  0
 28 49  1  0  0  0  0
 28 50  1  0  0  0  0
 29 31  1  0  0  0  0
 29 30  1  0  0  0  0
 29 51  1  0  0  0  0
 30 31  1  0  0  0  0
 30 52  1  0  0  0  0
 30 53  1  0  0  0  0
 31 54  1  0  0  0  0
 31 55  1  0  0  0  0
 32 56  1  0  0  0  0
M  END
> <Name>
ZINC28887676

> <reference>
BDB4968

> <quality>
0.761

> <status>
decoy

> <atoms in reference ligand area>
12

> <score>
-28.2517

$$$$
ZINC15084765
      BALL 1.4.0 (Jan  4 2012, 23:22:29)

 52 54  0999  0  0  0  0  0  0999 V2000
   14.5746    8.1264   -3.2587 C   0  0  0  0  0  0  0  0  0  0  0  0
   13.8592    6.7768   -3.3455 C   0  0  0  0  0  0  0  0  0  0  0  0
   12.8168    6.7158   -2.3365 O   0  0  0  0  0  0  0  0  0  0  0  0
   13.1612    6.2244   -1.1300 C   0  0  0  0  0  0  0  0  0  0  0  0
   14.2419    5.6911   -0.9774 O   0  0  0  0  0  0  0  0  0  0  0  0
   12.2262    6.3340    0.0051 C   0  0  0  0  0  0  0  0  0  0  0  0
   10.9810    5.9949   -0.0055 N   0  0  0  0  0  0  0  0  0  0  0  0
   10.3378    6.2234    1.2332 O   0  0  0  0  0  0  0  0  0  0  0  0
   11.3642    6.3777    2.2345 C   0  0  0  0  0  0  0  0  0  0  0  0
   12.5627    6.8646    1.3857 C   0  0  0  0  0  0  0  0  0  0  0  0
   10.9641    7.4293    3.2714 C   0  0  0  0  0  0  0  0  0  0  0  0
    9.6779    8.0897    2.8465 C   0  0  0  0  0  0  0  0  0  0  0  0
    9.7006    9.3722    2.2897 C   0  0  0  0  0  0  0  0  0  0  0  0
    8.5027    9.9807    1.8962 C   0  0  0  0  0  0  0  0  0  0  0  0
    7.2989    9.3093    2.0603 C   0  0  0  0  0  0  0  0  0  0  0  0
    7.2839    8.0340    2.6150 C   0  0  0  0  0  0  0  0  0  0  0  0
    8.4762    7.4262    3.0016 C   0  0  0  0  0  0  0  0  0  0  0  0
    8.4566    6.1763    3.5388 O   0  0  0  0  0  0  0  0  0  0  0  0
    8.2050    6.0771    4.9420 C   0  0  0  0  0  0  0  0  0  0  0  0
    5.9909    7.5961    2.6675 O   0  0  0  0  0  0  0  0  0  0  0  0
    5.2597    8.4470    1.7653 C   0  0  0  0  0  0  0  0  0  0  0  0
    6.0153    9.6726    1.7642 O   0  0  0  0  0  0  0  0  0  0  0  0
    8.5184   11.2276    1.3538 O   0  0  0  0  0  0  0  0  0  0  0  0
    7.8790   12.2668    2.0977 C   0  0  0  0  0  0  0  0  0  0  0  0
   10.9810   10.0806    2.1172 C   0  0  0  0  0  0  0  0  0  0  0  0
   11.1524   11.2508    2.6519 N   0  0  0  0  0  0  0  0  0  0  0  0
   10.1215   11.8386    3.3965 N   0  0  0  0  0  0  0  0  0  0  0  0
   10.4108   12.7540    4.3425 C   0  0  0  0  0  0  0  0  0  0  0  0
   11.4363   13.4032    4.2670 O   0  0  0  0  0  0  0  0  0  0  0  0
    9.5635   12.9498    5.3721 N   0  0  0  0  0  0  0  0  0  0  0  0
   14.4694    8.6606   -4.2145 H   0  0  0  0  0  0  0  0  0  0  0  0
   15.6415    7.9640   -3.0457 H   0  0  0  0  0  0  0  0  0  0  0  0
   14.1283    8.7276   -2.4528 H   0  0  0  0  0  0  0  0  0  0  0  0
   13.4101    6.6632   -4.3433 H   0  0  0  0  0  0  0  0  0  0  0  0
   14.5821    5.9656   -3.1743 H   0  0  0  0  0  0  0  0  0  0  0  0
   11.5670    5.4635    2.8117 H   0  0  0  0  0  0  0  0  0  0  0  0
   13.4967    6.4134    1.7519 H   0  0  0  0  0  0  0  0  0  0  0  0
   12.5999    7.9640    1.3756 H   0  0  0  0  0  0  0  0  0  0  0  0
   11.7565    8.1883    3.3501 H   0  0  0  0  0  0  0  0  0  0  0  0
   10.8216    6.9451    4.2487 H   0  0  0  0  0  0  0  0  0  0  0  0
    7.1225    6.2212    5.0731 H   0  0  0  0  0  0  0  0  0  0  0  0
    8.7180    6.9306    5.4093 H   0  0  0  0  0  0  0  0  0  0  0  0
    8.5407    5.1200    5.3680 H   0  0  0  0  0  0  0  0  0  0  0  0
    4.2447    8.6272    2.1492 H   0  0  0  0  0  0  0  0  0  0  0  0
    5.2453    8.0088    0.7565 H   0  0  0  0  0  0  0  0  0  0  0  0
    6.8064   12.1997    1.8635 H   0  0  0  0  0  0  0  0  0  0  0  0
    8.2550   13.2162    1.6887 H   0  0  0  0  0  0  0  0  0  0  0  0
    8.0630   12.1906    3.1795 H   0  0  0  0  0  0  0  0  0  0  0  0
   11.7917    9.6177    1.5352 H   0  0  0  0  0  0  0  0  0  0  0  0
    9.1425   11.5712    3.2211 H   0  0  0  0  0  0  0  0  0  0  0  0
    9.0984   12.1455    5.8165 H   0  0  0  0  0  0  0  0  0  0  0  0
    9.3811   13.9039    5.7146 H   0  0  0  0  0  0  0  0  0  0  0  0
  1  2  1  0  0  0  0
  1 31  1  0  0  0  0
  1 32  1  0  0  0  0
  1 33  1  0  0  0  0
  2  3  1  0  0  0  0
  2 34  1  0  0  0  0
  2 35  1  0  0  0  0
  3  4  1  0  0  0  0
  4  5  2  0  0  0  0
  4  6  1  0  0  0  0
  6 10  1  0  0  0  0
  6  7  2  0  0  0  0
  7  8  1  0  0  0  0
  8  9  1  0  0  0  0
  9 10  1  0  0  0  0
  9 11  1  0  0  0  0
  9 36  1  0  0  0  0
 10 37  1  0  0  0  0
 10 38  1  0  0  0  0
 11 12  1  0  0  0  0
 11 39  1  0  0  0  0
 11 40  1  0  0  0  0
 12 17  2  0  0  0  0
 12 13  1  0  0  0  0
 13 14  2  0  0  0  0
 13 25  1  0  0  0  0
 14 15  1  0  0  0  0
 14 23  1  0  0  0  0
 15 22  1  0  0  0  0
 15 16  2  0  0  0  0
 16 17  1  0  0  0  0
 16 20  1  0  0  0  0
 17 18  1  0  0  0  0
 18 19  1  0  0  0  0
 19 41  1  0  0  0  0
 19 42  1  0  0  0  0
 19 43  1  0  0  0  0
 20 21  1  0  0  0  0
 21 22  1  0  0  0  0
 21 44  1  0  0  0  0
 21 45  1  0  0  0  0
 23 24  1  0  0  0  0
 24 46  1  0  0  0  0
 24 47  1  0  0  0  0
 24 48  1  0  0  0  0
 25 26  2  0  0  0  0
 25 49  1  0  0  0  0
 26 27  1  0  0  0  0
 27 28  1  0  0  0  0
 27 50  1  0  0  0  0
 28 29  2  0  0  0  0
 28 30  1  0  0  0  0
 30 51  1  0  0  0  0
 30 52  1  0  0  0  0
M  END
> <Name>
ZINC15084765

> <reference>
BDB4965

> <quality>
0.659

> <status>
decoy

> <atoms in reference ligand area>
10

> <score>
-28.2021

$$$$
ZINC00481078
      BALL 1.4.0 (Jan  4 2012, 23:22:29)

 40 40  0999  0  0  0  0  0  0999 V2000
    4.4510    9.0732    5.1576 C   0  0  0  0  0  0  0  0  0  0  0  0
    5.7730    9.0884    5.9278 C   0  0  0  0  0  0  0  0  0  0  0  0
    6.8253    8.5357    5.0939 O   0  0  0  0  0  0  0  0  0  0  0  0
    8.0721    9.0015    5.2946 C   0  0  0  0  0  0  0  0  0  0  0  0
    8.6694    8.7188    6.3138 O   0  0  0  0  0  0  0  0  0  0  0  0
    8.6578    9.7817    4.3646 N   0  0  0  0  0  0  0  0  0  0  0  0
    8.8523    9.3120    3.1164 C   0  0  0  0  0  0  0  0  0  0  0  0
    8.4148    8.2217    2.8020 O   0  0  0  0  0  0  0  0  0  0  0  0
    9.5931   10.1173    2.1354 C   0  0  0  0  0  0  0  0  0  0  0  0
    9.0914   11.3220    1.6803 C   0  0  0  0  0  0  0  0  0  0  0  0
    9.8043   12.0391    0.7739 N   0  0  0  0  0  0  0  0  0  0  0  0
   10.9838   11.6026    0.3051 C   0  0  0  0  0  0  0  0  0  0  0  0
   11.5801   12.2800   -0.5092 O   0  0  0  0  0  0  0  0  0  0  0  0
   11.5295   10.4431    0.7106 N   0  0  0  0  0  0  0  0  0  0  0  0
   10.8913    9.6644    1.6095 C   0  0  0  0  0  0  0  0  0  0  0  0
   11.3779    8.6114    1.9765 O   0  0  0  0  0  0  0  0  0  0  0  0
    9.2709   13.3157    0.2920 C   0  0  0  0  0  0  0  0  0  0  0  0
    9.9511   14.4662    1.0367 C   0  0  0  0  0  0  0  0  0  0  0  0
    9.6652   16.8191    1.5319 C   0  0  0  0  0  0  0  0  0  0  0  0
    9.9720   16.0923   -0.7573 C   0  0  0  0  0  0  0  0  0  0  0  0
    9.3875   15.7450    0.5552 N   0  3  0  0  0  0  0  0  0  0  0  0
    4.2514   10.0752    4.7501 H   0  0  0  0  0  0  0  0  0  0  0  0
    3.6340    8.7841    5.8351 H   0  0  0  0  0  0  0  0  0  0  0  0
    4.5151    8.3488    4.3323 H   0  0  0  0  0  0  0  0  0  0  0  0
    6.0271   10.1235    6.2000 H   0  0  0  0  0  0  0  0  0  0  0  0
    5.6737    8.4830    6.8408 H   0  0  0  0  0  0  0  0  0  0  0  0
    8.9568   10.7369    4.6079 H   0  0  0  0  0  0  0  0  0  0  0  0
    8.1246   11.6959    2.0484 H   0  0  0  0  0  0  0  0  0  0  0  0
   12.4408   10.1469    0.3328 H   0  0  0  0  0  0  0  0  0  0  0  0
    9.4662   13.4113   -0.7863 H   0  0  0  0  0  0  0  0  0  0  0  0
    8.1865   13.3531    0.4730 H   0  0  0  0  0  0  0  0  0  0  0  0
   11.0333   14.4444    0.8407 H   0  0  0  0  0  0  0  0  0  0  0  0
    9.7665   14.3663    2.1164 H   0  0  0  0  0  0  0  0  0  0  0  0
   10.0599   16.3754    2.4579 H   0  0  0  0  0  0  0  0  0  0  0  0
    8.7324   17.3576    1.7551 H   0  0  0  0  0  0  0  0  0  0  0  0
   10.4041   17.5189    1.1144 H   0  0  0  0  0  0  0  0  0  0  0  0
   10.9931   15.6879   -0.8191 H   0  0  0  0  0  0  0  0  0  0  0  0
   10.0070   17.1868   -0.8616 H   0  0  0  0  0  0  0  0  0  0  0  0
    9.3568   15.6647   -1.5627 H   0  0  0  0  0  0  0  0  0  0  0  0
    8.3679   15.6431    0.4510 H   0  0  0  0  0  0  0  0  0  0  0  0
  1  2  1  0  0  0  0
  1 22  1  0  0  0  0
  1 23  1  0  0  0  0
  1 24  1  0  0  0  0
  2  3  1  0  0  0  0
  2 25  1  0  0  0  0
  2 26  1  0  0  0  0
  3  4  1  0  0  0  0
  4  5  2  0  0  0  0
  4  6  1  0  0  0  0
  6  7  1  0  0  0  0
  6 27  1  0  0  0  0
  7  8  2  0  0  0  0
  7  9  1  0  0  0  0
  9 15  1  0  0  0  0
  9 10  2  0  0  0  0
 10 11  1  0  0  0  0
 10 28  1  0  0  0  0
 11 12  1  0  0  0  0
 11 17  1  0  0  0  0
 12 13  2  0  0  0  0
 12 14  1  0  0  0  0
 14 15  1  0  0  0  0
 14 29  1  0  0  0  0
 15 16  2  0  0  0  0
 17 18  1  0  0  0  0
 17 30  1  0  0  0  0
 17 31  1  0  0  0  0
 18 21  1  0  0  0  0
 18 32  1  0  0  0  0
 18 33  1  0  0  0  0
 19 21  1  0  0  0  0
 19 34  1  0  0  0  0
 19 35  1  0  0  0  0
 19 36  1  0  0  0  0
 20 21  1  0  0  0  0
 20 37  1  0  0  0  0
 20 38  1  0  0  0  0
 20 39  1  0  0  0  0
 21 40  1  0  0  0  0
M  END
> <Name>
ZINC00481078

> <reference>
BDB5195

> <quality>
0.756

> <status>
decoy

> <atoms in reference ligand area>
13

> <score>
-28.1708

$$$$
ZINC05132239
      BALL 1.4.0 (Jan  4 2012, 23:22:29)

 33 32  0999  0  0  0  0  0  0999 V2000
    9.6783   12.7377    4.0194 C   0  0  0  0  0  0  0  0  0  0  0  0
    8.5846   12.1094    3.1946 C   0  0  0  0  0  0  0  0  0  0  0  0
    8.2799   12.6158    1.9732 C   0  0  0  0  0  0  0  0  0  0  0  0
    7.2433   12.1267    1.2870 N   0  0  0  0  0  0  0  0  0  0  0  0
    6.9547   10.8717    1.3616 N   0  0  0  0  0  0  0  0  0  0  0  0
    5.9665   10.3536    0.5835 C   0  0  0  0  0  0  0  0  0  0  0  0
    6.1484    9.2154   -0.0319 N   0  3  0  0  0  0  0  0  0  0  0  0
    7.3638    8.4356    0.2146 C   0  0  0  0  0  0  0  0  0  0  0  0
    4.7716   11.0304    0.4440 N   0  0  0  0  0  0  0  0  0  0  0  0
    7.9008   11.0310    3.6763 N   0  0  0  0  0  0  0  0  0  0  0  0
    8.1390   10.5755    4.9796 N   0  0  0  0  0  0  0  0  0  0  0  0
    8.5201    9.2720    5.1934 C   0  0  0  0  0  0  0  0  0  0  0  0
    8.2916    8.7771    2.7919 C   0  0  0  0  0  0  0  0  0  0  0  0
    8.8171    8.8425    6.4651 N   0  0  0  0  0  0  0  0  0  0  0  0
    8.6205    8.3769    4.2033 N   0  3  0  0  0  0  0  0  0  0  0  0
   10.5380   12.0586    3.9209 H   0  0  0  0  0  0  0  0  0  0  0  0
    9.3273   12.6711    5.0598 H   0  0  0  0  0  0  0  0  0  0  0  0
    9.9208   13.7687    3.7226 H   0  0  0  0  0  0  0  0  0  0  0  0
    8.8864   13.4290    1.5480 H   0  0  0  0  0  0  0  0  0  0  0  0
    5.4374    8.8666   -0.6904 H   0  0  0  0  0  0  0  0  0  0  0  0
    8.1955    9.1317    0.0308 H   0  0  0  0  0  0  0  0  0  0  0  0
    7.3874    7.6783   -0.5829 H   0  0  0  0  0  0  0  0  0  0  0  0
    7.4067    7.9878    1.2185 H   0  0  0  0  0  0  0  0  0  0  0  0
    3.8900   10.5843    0.7353 H   0  0  0  0  0  0  0  0  0  0  0  0
    4.7615   11.9814    0.0488 H   0  0  0  0  0  0  0  0  0  0  0  0
    7.2096   10.5520    3.0816 H   0  0  0  0  0  0  0  0  0  0  0  0
    8.0286   11.2173    5.7777 H   0  0  0  0  0  0  0  0  0  0  0  0
    8.3378    7.8445    2.2103 H   0  0  0  0  0  0  0  0  0  0  0  0
    9.1333    9.4068    2.4679 H   0  0  0  0  0  0  0  0  0  0  0  0
    7.3223    9.2873    2.6911 H   0  0  0  0  0  0  0  0  0  0  0  0
    8.9518    7.8385    6.6513 H   0  0  0  0  0  0  0  0  0  0  0  0
    8.9051    9.5248    7.2317 H   0  0  0  0  0  0  0  0  0  0  0  0
    8.9231    7.4140    4.4083 H   0  0  0  0  0  0  0  0  0  0  0  0
  1  2  1  0  0  0  0
  1 16  1  0  0  0  0
  1 17  1  0  0  0  0
  1 18  1  0  0  0  0
  2  3  2  0  0  0  0
  2 10  1  0  0  0  0
  3  4  1  0  0  0  0
  3 19  1  0  0  0  0
  4  5  2  0  0  0  0
  5  6  1  0  0  0  0
  6  7  2  0  0  0  0
  6  9  1  0  0  0  0
  7  8  1  0  0  0  0
  7 20  1  0  0  0  0
  8 21  1  0  0  0  0
  8 22  1  0  0  0  0
  8 23  1  0  0  0  0
  9 24  1  0  0  0  0
  9 25  1  0  0  0  0
 10 11  1  0  0  0  0
 10 26  1  0  0  0  0
 11 12  1  0  0  0  0
 11 27  1  0  0  0  0
 12 14  1  0  0  0  0
 12 15  2  0  0  0  0
 13 15  1  0  0  0  0
 13 28  1  0  0  0  0
 13 29  1  0  0  0  0
 13 30  1  0  0  0  0
 14 31  1  0  0  0  0
 14 32  1  0  0  0  0
 15 33  1  0  0  0  0
M  END
> <Name>
ZINC05132239

> <reference>
BDB5234

> <quality>
0.762

> <status>
decoy

> <atoms in reference ligand area>
13

> <score>
-28.1573

$$$$
ZINC20423298
      BALL 1.4.0 (Jan  4 2012, 23:22:29)

 41 41  0999  0  0  0  0  0  0999 V2000
    9.1512   15.1516    2.6587 C   0  0  0  0  0  0  0  0  0  0  0  0
    9.8481   13.9487    2.3276 O   0  0  0  0  0  0  0  0  0  0  0  0
    9.1003   12.8244    2.1752 C   0  0  0  0  0  0  0  0  0  0  0  0
    9.1862   11.8026    3.1089 C   0  0  0  0  0  0  0  0  0  0  0  0
    8.4197   10.6571    2.9556 C   0  0  0  0  0  0  0  0  0  0  0  0
    7.5742   10.5295    1.8638 C   0  0  0  0  0  0  0  0  0  0  0  0
    7.4922   11.5491    0.9274 C   0  0  0  0  0  0  0  0  0  0  0  0
    8.2554   12.6964    1.0830 C   0  0  0  0  0  0  0  0  0  0  0  0
    6.6637   11.4240   -0.1424 O   0  0  0  0  0  0  0  0  0  0  0  0
    7.0519   12.0910   -1.3452 C   0  0  0  0  0  0  0  0  0  0  0  0
    6.7441    9.2831    1.6953 C   0  0  0  0  0  0  0  0  0  0  0  0
    6.2011    9.2212    0.2662 C   0  0  0  0  0  0  0  0  0  0  0  0
    6.1521    7.7642   -0.1981 C   0  0  0  0  0  0  0  0  0  0  0  0
    5.0086    7.5861   -1.1989 C   0  0  0  0  0  0  0  0  0  0  0  0
    5.5637    7.1079   -2.5159 C   0  0  0  0  0  0  0  0  0  0  0  0
    5.6688    5.9240   -2.7330 O   0  0  0  0  0  0  0  0  0  0  0  0
    5.9414    7.9973   -3.4477 O   0  5  0  0  0  0  0  0  0  0  0  0
    5.6231    9.3093    2.6444 N   0  3  0  0  0  0  0  0  0  0  0  0
    8.4998    9.6581    3.8735 O   0  0  0  0  0  0  0  0  0  0  0  0
    9.3911    9.8570    4.9725 C   0  0  0  0  0  0  0  0  0  0  0  0
    9.8326   15.7398    3.2908 H   0  0  0  0  0  0  0  0  0  0  0  0
    8.2924   14.8512    3.2769 H   0  0  0  0  0  0  0  0  0  0  0  0
    8.8329   15.7170    1.7705 H   0  0  0  0  0  0  0  0  0  0  0  0
    9.8624   11.9006    3.9709 H   0  0  0  0  0  0  0  0  0  0  0  0
    8.1906   13.5050    0.3401 H   0  0  0  0  0  0  0  0  0  0  0  0
    6.2069   11.9889   -2.0420 H   0  0  0  0  0  0  0  0  0  0  0  0
    7.8985   11.5209   -1.7555 H   0  0  0  0  0  0  0  0  0  0  0  0
    7.3159   13.1460   -1.1803 H   0  0  0  0  0  0  0  0  0  0  0  0
    7.3680    8.3981    1.8891 H   0  0  0  0  0  0  0  0  0  0  0  0
    5.1877    9.6481    0.2401 H   0  0  0  0  0  0  0  0  0  0  0  0
    6.8586    9.7964   -0.4022 H   0  0  0  0  0  0  0  0  0  0  0  0
    7.1050    7.5007   -0.6803 H   0  0  0  0  0  0  0  0  0  0  0  0
    5.9856    7.1074    0.6684 H   0  0  0  0  0  0  0  0  0  0  0  0
    4.4953    8.5478   -1.3458 H   0  0  0  0  0  0  0  0  0  0  0  0
    4.2944    6.8445   -0.8117 H   0  0  0  0  0  0  0  0  0  0  0  0
    5.5842    8.4162    3.1561 H   0  0  0  0  0  0  0  0  0  0  0  0
    4.7409    9.4492    2.1315 H   0  0  0  0  0  0  0  0  0  0  0  0
    5.7565   10.0813    3.3130 H   0  0  0  0  0  0  0  0  0  0  0  0
    9.3210   10.9219    5.2390 H   0  0  0  0  0  0  0  0  0  0  0  0
   10.4044    9.6719    4.5864 H   0  0  0  0  0  0  0  0  0  0  0  0
    9.1599    9.2086    5.8305 H   0  0  0  0  0  0  0  0  0  0  0  0
  1  2  1  0  0  0  0
  1 21  1  0  0  0  0
  1 22  1  0  0  0  0
  1 23  1  0  0  0  0
  2  3  1  0  0  0  0
  3  8  2  0  0  0  0
  3  4  1  0  0  0  0
  4  5  2  0  0  0  0
  4 24  1  0  0  0  0
  5  6  1  0  0  0  0
  5 19  1  0  0  0  0
  6  7  2  0  0  0  0
  6 11  1  0  0  0  0
  7  8  1  0  0  0  0
  7  9  1  0  0  0  0
  8 25  1  0  0  0  0
  9 10  1  0  0  0  0
 10 26  1  0  0  0  0
 10 27  1  0  0  0  0
 10 28  1  0  0  0  0
 11 12  1  0  0  0  0
 11 18  1  0  0  0  0
 11 29  1  0  0  0  0
 12 13  1  0  0  0  0
 12 30  1  0  0  0  0
 12 31  1  0  0  0  0
 13 14  1  0  0  0  0
 13 32  1  0  0  0  0
 13 33  1  0  0  0  0
 14 15  1  0  0  0  0
 14 34  1  0  0  0  0
 14 35  1  0  0  0  0
 15 16  2  0  0  0  0
 15 17  1  0  0  0  0
 18 36  1  0  0  0  0
 18 37  1  0  0  0  0
 18 38  1  0  0  0  0
 19 20  1  0  0  0  0
 20 39  1  0  0  0  0
 20 40  1  0  0  0  0
 20 41  1  0  0  0  0
M  END
> <Name>
ZINC20423298

> <reference>
BDB4986

> <quality>
0.824

> <status>
decoy

> <atoms in reference ligand area>
14

> <score>
-28.1378

$$$$
ZINC05594650
      BALL 1.4.0 (Jan  4 2012, 23:22:29)

 33 34  0999  0  0  0  0  0  0999 V2000
   11.8123   13.6838   -1.9857 C   0  0  0  0  0  0  0  0  0  0  0  0
   10.5180   13.8903   -2.1490 N   0  0  0  0  0  0  0  0  0  0  0  0
    9.6941   13.9508   -1.1081 C   0  0  0  0  0  0  0  0  0  0  0  0
   10.2306   13.7896    0.1808 C   0  0  0  0  0  0  0  0  0  0  0  0
   11.6133   13.5724    0.3014 C   0  0  0  0  0  0  0  0  0  0  0  0
   12.3584   13.5275   -0.7984 N   0  0  0  0  0  0  0  0  0  0  0  0
   11.8616   13.4520    1.6453 N   0  0  0  0  0  0  0  0  0  0  0  0
   10.6714   13.5925    2.2949 C   0  0  0  0  0  0  0  0  0  0  0  0
    9.7158   13.7904    1.4340 N   0  0  0  0  0  0  0  0  0  0  0  0
   13.1665   13.2164    2.2681 C   0  0  0  0  0  0  0  0  0  0  0  0
   13.0892   11.9757    3.1602 C   0  0  0  0  0  0  0  0  0  0  0  0
   13.6436   10.8555    2.4674 O   0  0  0  0  0  0  0  0  0  0  0  0
   14.2419    9.8805    3.3236 C   0  0  0  0  0  0  0  0  0  0  0  0
   14.7990    8.7330    2.4788 C   0  0  0  0  0  0  0  0  0  0  0  0
   14.6323    7.4143    3.2365 C   0  0  0  0  0  0  0  0  0  0  0  0
   13.5589    6.6667    2.6611 O   0  0  0  0  0  0  0  0  0  0  0  0
   14.0883    8.6643    1.2409 O   0  0  0  0  0  0  0  0  0  0  0  0
    8.3392   14.1670   -1.2893 N   0  0  0  0  0  0  0  0  0  0  0  0
   12.4580   13.6409   -2.8752 H   0  0  0  0  0  0  0  0  0  0  0  0
   10.5384   13.5455    3.3858 H   0  0  0  0  0  0  0  0  0  0  0  0
   13.9232   13.0581    1.4856 H   0  0  0  0  0  0  0  0  0  0  0  0
   13.4460   14.0884    2.8775 H   0  0  0  0  0  0  0  0  0  0  0  0
   13.6585   12.1526    4.0847 H   0  0  0  0  0  0  0  0  0  0  0  0
   12.0385   11.7677    3.4107 H   0  0  0  0  0  0  0  0  0  0  0  0
   13.4857    9.4888    4.0197 H   0  0  0  0  0  0  0  0  0  0  0  0
   15.0594   10.3456    3.8941 H   0  0  0  0  0  0  0  0  0  0  0  0
   15.8663    8.9090    2.2795 H   0  0  0  0  0  0  0  0  0  0  0  0
   14.4079    7.6230    4.2930 H   0  0  0  0  0  0  0  0  0  0  0  0
   15.5627    6.8315    3.1675 H   0  0  0  0  0  0  0  0  0  0  0  0
   13.9102    6.0818    1.9438 H   0  0  0  0  0  0  0  0  0  0  0  0
   14.4402    9.3493    0.6188 H   0  0  0  0  0  0  0  0  0  0  0  0
    7.8341   14.7875   -0.6407 H   0  0  0  0  0  0  0  0  0  0  0  0
    7.8385   13.7118   -2.0658 H   0  0  0  0  0  0  0  0  0  0  0  0
  1  6  1  0  0  0  0
  1  2  2  0  0  0  0
  1 19  1  0  0  0  0
  2  3  1  0  0  0  0
  3  4  2  0  0  0  0
  3 18  1  0  0  0  0
  4  9  1  0  0  0  0
  4  5  1  0  0  0  0
  5  6  2  0  0  0  0
  5  7  1  0  0  0  0
  7  8  1  0  0  0  0
  7 10  1  0  0  0  0
  8  9  2  0  0  0  0
  8 20  1  0  0  0  0
 10 11  1  0  0  0  0
 10 21  1  0  0  0  0
 10 22  1  0  0  0  0
 11 12  1  0  0  0  0
 11 23  1  0  0  0  0
 11 24  1  0  0  0  0
 12 13  1  0  0  0  0
 13 14  1  0  0  0  0
 13 25  1  0  0  0  0
 13 26  1  0  0  0  0
 14 15  1  0  0  0  0
 14 17  1  0  0  0  0
 14 27  1  0  0  0  0
 15 16  1  0  0  0  0
 15 28  1  0  0  0  0
 15 29  1  0  0  0  0
 16 30  1  0  0  0  0
 17 31  1  0  0  0  0
 18 32  1  0  0  0  0
 18 33  1  0  0  0  0
M  END
> <Name>
ZINC05594650

> <reference>
BDB5015

> <quality>
0.709

> <status>
decoy

> <atoms in reference ligand area>
13

> <score>
-28.0723

$$$$
ZINC26449470
      BALL 1.4.0 (Jan  4 2012, 23:22:29)

 47 48  0999  0  0  0  0  0  0999 V2000
   13.6169    9.6469    2.1659 C   0  0  0  0  0  0  0  0  0  0  0  0
   12.3825    9.2980    2.7958 O   0  0  0  0  0  0  0  0  0  0  0  0
   12.5312    8.4487    3.9353 C   0  0  0  0  0  0  0  0  0  0  0  0
   11.1498    8.0423    4.4522 C   0  0  0  0  0  0  0  0  0  0  0  0
   10.6900    9.0235    5.4441 N   0  3  0  0  0  0  0  0  0  0  0  0
    9.9753   10.1315    4.7963 C   0  0  0  0  0  0  0  0  0  0  0  0
   10.9486   10.9242    3.9215 C   0  0  0  0  0  0  0  0  0  0  0  0
   10.8145   10.5070    2.5614 O   0  0  0  0  0  0  0  0  0  0  0  0
   11.0751   11.4347    1.6030 C   0  0  0  0  0  0  0  0  0  0  0  0
   10.5849   11.2615    0.3168 C   0  0  0  0  0  0  0  0  0  0  0  0
   10.8508   12.2061   -0.6556 C   0  0  0  0  0  0  0  0  0  0  0  0
   11.6048   13.3235   -0.3476 C   0  0  0  0  0  0  0  0  0  0  0  0
   12.0945   13.4985    0.9335 C   0  0  0  0  0  0  0  0  0  0  0  0
   11.8318   12.5564    1.9093 C   0  0  0  0  0  0  0  0  0  0  0  0
   11.9427   14.5262   -1.5902 S   0  0  0  0  0  0  0  0  0  0  0  0
   10.9362   15.5228   -1.4752 O   0  0  0  0  0  0  0  0  0  0  0  0
   13.3281   14.8283   -1.4970 O   0  0  0  0  0  0  0  0  0  0  0  0
   11.7160   13.7917   -3.0570 N   0  0  0  0  0  0  0  0  0  0  0  0
    9.8531    8.3844    6.4682 C   0  0  0  0  0  0  0  0  0  0  0  0
    8.4631    8.1779    5.9240 C   0  0  0  0  0  0  0  0  0  0  0  0
    8.0562    7.1324    5.1816 C   0  0  0  0  0  0  0  0  0  0  0  0
    6.6887    7.3436    4.8914 C   0  0  0  0  0  0  0  0  0  0  0  0
    6.3416    8.5055    5.4738 C   0  0  0  0  0  0  0  0  0  0  0  0
    7.4189    9.0033    6.1026 O   0  0  0  0  0  0  0  0  0  0  0  0
   13.4311   10.5324    1.5403 H   0  0  0  0  0  0  0  0  0  0  0  0
   13.9024    8.8112    1.5101 H   0  0  0  0  0  0  0  0  0  0  0  0
   14.4051    9.8497    2.9059 H   0  0  0  0  0  0  0  0  0  0  0  0
   13.0743    8.9864    4.7264 H   0  0  0  0  0  0  0  0  0  0  0  0
   13.0951    7.5481    3.6505 H   0  0  0  0  0  0  0  0  0  0  0  0
   10.4392    8.0093    3.6132 H   0  0  0  0  0  0  0  0  0  0  0  0
   11.2101    7.0489    4.9209 H   0  0  0  0  0  0  0  0  0  0  0  0
   11.5206    9.4133    5.9122 H   0  0  0  0  0  0  0  0  0  0  0  0
    9.5507   10.7944    5.5646 H   0  0  0  0  0  0  0  0  0  0  0  0
    9.1650    9.7293    4.1706 H   0  0  0  0  0  0  0  0  0  0  0  0
   10.7209   11.9976    3.9994 H   0  0  0  0  0  0  0  0  0  0  0  0
   11.9792   10.7424    4.2602 H   0  0  0  0  0  0  0  0  0  0  0  0
    9.9851   10.3727    0.0713 H   0  0  0  0  0  0  0  0  0  0  0  0
   10.4624   12.0693   -1.6756 H   0  0  0  0  0  0  0  0  0  0  0  0
   12.6938   14.3885    1.1760 H   0  0  0  0  0  0  0  0  0  0  0  0
   12.2222   12.6956    2.9282 H   0  0  0  0  0  0  0  0  0  0  0  0
   11.7710   12.7661   -3.1333 H   0  0  0  0  0  0  0  0  0  0  0  0
   11.5199   14.3606   -3.8929 H   0  0  0  0  0  0  0  0  0  0  0  0
   10.2873    7.4116    6.7421 H   0  0  0  0  0  0  0  0  0  0  0  0
    9.8054    9.0285    7.3586 H   0  0  0  0  0  0  0  0  0  0  0  0
    8.6698    6.2773    4.8617 H   0  0  0  0  0  0  0  0  0  0  0  0
    6.0342    6.6843    4.3025 H   0  0  0  0  0  0  0  0  0  0  0  0
    5.3447    8.9691    5.4405 H   0  0  0  0  0  0  0  0  0  0  0  0
  1  2  1  0  0  0  0
  1 25  1  0  0  0  0
  1 26  1  0  0  0  0
  1 27  1  0  0  0  0
  2  3  1  0  0  0  0
  3  4  1  0  0  0  0
  3 28  1  0  0  0  0
  3 29  1  0  0  0  0
  4  5  1  0  0  0  0
  4 30  1  0  0  0  0
  4 31  1  0  0  0  0
  5  6  1  0  0  0  0
  5 19  1  0  0  0  0
  5 32  1  0  0  0  0
  6  7  1  0  0  0  0
  6 33  1  0  0  0  0
  6 34  1  0  0  0  0
  7  8  1  0  0  0  0
  7 35  1  0  0  0  0
  7 36  1  0  0  0  0
  8  9  1  0  0  0  0
  9 14  2  0  0  0  0
  9 10  1  0  0  0  0
 10 11  2  0  0  0  0
 10 37  1  0  0  0  0
 11 12  1  0  0  0  0
 11 38  1  0  0  0  0
 12 13  2  0  0  0  0
 12 15  1  0  0  0  0
 13 14  1  0  0  0  0
 13 39  1  0  0  0  0
 14 40  1  0  0  0  0
 15 16  2  0  0  0  0
 15 17  2  0  0  0  0
 15 18  1  0  0  0  0
 18 41  1  0  0  0  0
 18 42  1  0  0  0  0
 19 20  1  0  0  0  0
 19 43  1  0  0  0  0
 19 44  1  0  0  0  0
 20 24  1  0  0  0  0
 20 21  2  0  0  0  0
 21 22  1  0  0  0  0
 21 45  1  0  0  0  0
 22 23  2  0  0  0  0
 22 46  1  0  0  0  0
 23 24  1  0  0  0  0
 23 47  1  0  0  0  0
M  END
> <Name>
ZINC26449470

> <reference>
BDB4997

> <quality>
0.675

> <status>
decoy

> <atoms in reference ligand area>
16

> <score>
-27.993

$$$$
ZINC24983928
      BALL 1.4.0 (Jan  4 2012, 23:22:29)

 39 40  0999  0  0  0  0  0  0999 V2000
   11.3966   15.1100   -2.3279 C   0  0  0  0  0  0  0  0  0  0  0  0
   10.0641   14.9122   -2.9038 N   0  0  0  0  0  0  0  0  0  0  0  0
    9.5766   13.3974   -3.3620 S   0  0  0  0  0  0  0  0  0  0  0  0
   10.7514   12.6851   -3.7250 O   0  0  0  0  0  0  0  0  0  0  0  0
    8.4865   13.5748   -4.2562 O   0  0  0  0  0  0  0  0  0  0  0  0
    8.9285   12.6030   -1.9291 C   0  0  0  0  0  0  0  0  0  0  0  0
    7.6181   12.4781   -1.6233 C   0  0  0  0  0  0  0  0  0  0  0  0
    7.5423   11.7803   -0.4078 C   0  0  0  0  0  0  0  0  0  0  0  0
    8.8265   11.5183   -0.0248 C   0  0  0  0  0  0  0  0  0  0  0  0
    9.6534   12.0235   -0.9635 O   0  0  0  0  0  0  0  0  0  0  0  0
    9.2351   10.8068    1.1909 C   0  0  0  0  0  0  0  0  0  0  0  0
   10.2981   11.0699    1.7216 O   0  0  0  0  0  0  0  0  0  0  0  0
    8.4332    9.8616    1.7201 N   0  0  0  0  0  0  0  0  0  0  0  0
    8.8413    9.1508    2.9344 C   0  0  0  0  0  0  0  0  0  0  0  0
    7.7605    8.1394    3.3210 C   0  0  0  0  0  0  0  0  0  0  0  0
    6.9325    8.6955    4.3941 N   0  0  0  0  0  0  0  0  0  0  0  0
    5.6005    8.3287    4.5025 C   0  0  0  0  0  0  0  0  0  0  0  0
    5.0025    7.6014    3.4751 C   0  0  0  0  0  0  0  0  0  0  0  0
    3.6864    7.2410    3.5852 C   0  0  0  0  0  0  0  0  0  0  0  0
    2.9826    7.6208    4.7386 C   0  0  0  0  0  0  0  0  0  0  0  0
    3.6440    8.3535    5.7255 C   0  0  0  0  0  0  0  0  0  0  0  0
    4.9132    8.6750    5.5818 N   0  0  0  0  0  0  0  0  0  0  0  0
    1.6041    7.2669    4.8978 C   0  0  0  0  0  0  0  0  0  0  0  0
    0.5107    6.9862    5.0241 N   0  0  0  0  0  0  0  0  0  0  0  0
   11.2549   15.8940   -1.5695 H   0  0  0  0  0  0  0  0  0  0  0  0
   11.9827   15.5643   -3.1404 H   0  0  0  0  0  0  0  0  0  0  0  0
   11.8660   14.2026   -1.9201 H   0  0  0  0  0  0  0  0  0  0  0  0
    9.4305   15.7153   -3.0236 H   0  0  0  0  0  0  0  0  0  0  0  0
    6.7703   12.8529   -2.2155 H   0  0  0  0  0  0  0  0  0  0  0  0
    6.6258   11.4988    0.1317 H   0  0  0  0  0  0  0  0  0  0  0  0
    7.5335    9.6390    1.2709 H   0  0  0  0  0  0  0  0  0  0  0  0
    9.7881    8.6222    2.7492 H   0  0  0  0  0  0  0  0  0  0  0  0
    8.9781    9.8715    3.7541 H   0  0  0  0  0  0  0  0  0  0  0  0
    7.1296    7.9243    2.4459 H   0  0  0  0  0  0  0  0  0  0  0  0
    8.2343    7.2097    3.6689 H   0  0  0  0  0  0  0  0  0  0  0  0
    7.3405    9.3591    5.0679 H   0  0  0  0  0  0  0  0  0  0  0  0
    5.5826    7.3194    2.5840 H   0  0  0  0  0  0  0  0  0  0  0  0
    3.1919    6.6669    2.7879 H   0  0  0  0  0  0  0  0  0  0  0  0
    3.1012    8.6647    6.6301 H   0  0  0  0  0  0  0  0  0  0  0  0
  1  2  1  0  0  0  0
  1 25  1  0  0  0  0
  1 26  1  0  0  0  0
  1 27  1  0  0  0  0
  2  3  1  0  0  0  0
  2 28  1  0  0  0  0
  3  4  2  0  0  0  0
  3  5  2  0  0  0  0
  3  6  1  0  0  0  0
  6 10  1  0  0  0  0
  6  7  2  0  0  0  0
  7  8  1  0  0  0  0
  7 29  1  0  0  0  0
  8  9  2  0  0  0  0
  8 30  1  0  0  0  0
  9 10  1  0  0  0  0
  9 11  1  0  0  0  0
 11 12  2  0  0  0  0
 11 13  1  0  0  0  0
 13 14  1  0  0  0  0
 13 31  1  0  0  0  0
 14 15  1  0  0  0  0
 14 32  1  0  0  0  0
 14 33  1  0  0  0  0
 15 16  1  0  0  0  0
 15 34  1  0  0  0  0
 15 35  1  0  0  0  0
 16 17  1  0  0  0  0
 16 36  1  0  0  0  0
 17 22  2  0  0  0  0
 17 18  1  0  0  0  0
 18 19  2  0  0  0  0
 18 37  1  0  0  0  0
 19 20  1  0  0  0  0
 19 38  1  0  0  0  0
 20 21  2  0  0  0  0
 20 23  1  0  0  0  0
 21 22  1  0  0  0  0
 21 39  1  0  0  0  0
 23 24  3  0  0  0  0
M  END
> <Name>
ZINC24983928

> <reference>
BDB4942

> <quality>
0.626

> <status>
decoy

> <atoms in reference ligand area>
13

> <score>
-27.9568

$$$$
ZINC04998060
      BALL 1.4.0 (Jan  4 2012, 23:22:29)

 43 44  0999  0  0  0  0  0  0999 V2000
    7.0208   10.9772    0.9230 C   0  0  0  0  0  0  0  0  0  0  0  0
    7.3136   11.1273    2.3136 O   0  0  0  0  0  0  0  0  0  0  0  0
    8.6097   11.3598    2.6496 C   0  0  0  0  0  0  0  0  0  0  0  0
    9.0020   11.3095    3.9801 C   0  0  0  0  0  0  0  0  0  0  0  0
   10.3192   11.5467    4.3224 C   0  0  0  0  0  0  0  0  0  0  0  0
   11.2495   11.8341    3.3417 C   0  0  0  0  0  0  0  0  0  0  0  0
   10.8613   11.8906    2.0108 C   0  0  0  0  0  0  0  0  0  0  0  0
    9.5409   11.6479    1.6641 C   0  0  0  0  0  0  0  0  0  0  0  0
   11.7754   12.1787    1.0473 O   0  0  0  0  0  0  0  0  0  0  0  0
   12.5980   13.3283    1.2562 C   0  0  0  0  0  0  0  0  0  0  0  0
   12.6856   12.0923    3.7186 C   0  0  0  0  0  0  0  0  0  0  0  0
   14.5830   10.9990    4.7517 C   0  0  0  0  0  0  0  0  0  0  0  0
   15.1282    9.6341    5.1764 C   0  0  0  0  0  0  0  0  0  0  0  0
   16.4557    9.8025    5.7728 N   0  0  0  0  0  0  0  0  0  0  0  0
   16.5730   10.2152    7.0505 C   0  0  0  0  0  0  0  0  0  0  0  0
   15.5777   10.4475    7.7077 O   0  0  0  0  0  0  0  0  0  0  0  0
   17.9152   10.3855    7.6535 C   0  0  0  0  0  0  0  0  0  0  0  0
   18.2705   10.6279    9.0703 C   0  0  0  0  0  0  0  0  0  0  0  0
   19.5813   10.6953    9.0282 N   0  0  0  0  0  0  0  0  0  0  0  0
   19.9563   10.5378    7.8902 O   0  0  0  0  0  0  0  0  0  0  0  0
   19.0917   10.3538    7.0660 N   0  0  0  0  0  0  0  0  0  0  0  0
   17.4294   10.7524   10.1674 N   0  0  0  0  0  0  0  0  0  0  0  0
   13.3662   10.8027    3.9414 N   0  3  0  0  0  0  0  0  0  0  0  0
    6.2675   11.7414    0.6813 H   0  0  0  0  0  0  0  0  0  0  0  0
    6.5479    9.9903    0.8113 H   0  0  0  0  0  0  0  0  0  0  0  0
    7.9135   11.0729    0.2874 H   0  0  0  0  0  0  0  0  0  0  0  0
    8.2634   11.0807    4.7625 H   0  0  0  0  0  0  0  0  0  0  0  0
   10.6281   11.5067    5.3774 H   0  0  0  0  0  0  0  0  0  0  0  0
    9.2329   11.6838    0.6087 H   0  0  0  0  0  0  0  0  0  0  0  0
   13.4071   13.2687    0.5135 H   0  0  0  0  0  0  0  0  0  0  0  0
   13.0463   13.2105    2.2538 H   0  0  0  0  0  0  0  0  0  0  0  0
   12.0394   14.2722    1.1720 H   0  0  0  0  0  0  0  0  0  0  0  0
   13.1873   12.6362    2.9047 H   0  0  0  0  0  0  0  0  0  0  0  0
   12.7228   12.6907    4.6408 H   0  0  0  0  0  0  0  0  0  0  0  0
   14.3372   11.5910    5.6456 H   0  0  0  0  0  0  0  0  0  0  0  0
   15.3398   11.5286    4.1545 H   0  0  0  0  0  0  0  0  0  0  0  0
   15.2029    8.9780    4.2966 H   0  0  0  0  0  0  0  0  0  0  0  0
   14.4499    9.1817    5.9147 H   0  0  0  0  0  0  0  0  0  0  0  0
   17.2994    9.6056    5.2158 H   0  0  0  0  0  0  0  0  0  0  0  0
   17.8031   11.3679   10.9039 H   0  0  0  0  0  0  0  0  0  0  0  0
   16.5157   10.2864   10.2623 H   0  0  0  0  0  0  0  0  0  0  0  0
   12.7287   10.1608    4.4339 H   0  0  0  0  0  0  0  0  0  0  0  0
   13.6244   10.3905    3.0335 H   0  0  0  0  0  0  0  0  0  0  0  0
  1  2  1  0  0  0  0
  1 24  1  0  0  0  0
  1 25  1  0  0  0  0
  1 26  1  0  0  0  0
  2  3  1  0  0  0  0
  3  8  2  0  0  0  0
  3  4  1  0  0  0  0
  4  5  2  0  0  0  0
  4 27  1  0  0  0  0
  5  6  1  0  0  0  0
  5 28  1  0  0  0  0
  6  7  2  0  0  0  0
  6 11  1  0  0  0  0
  7  8  1  0  0  0  0
  7  9  1  0  0  0  0
  8 29  1  0  0  0  0
  9 10  1  0  0  0  0
 10 30  1  0  0  0  0
 10 31  1  0  0  0  0
 10 32  1  0  0  0  0
 11 23  1  0  0  0  0
 11 33  1  0  0  0  0
 11 34  1  0  0  0  0
 12 13  1  0  0  0  0
 12 23  1  0  0  0  0
 12 35  1  0  0  0  0
 12 36  1  0  0  0  0
 13 14  1  0  0  0  0
 13 37  1  0  0  0  0
 13 38  1  0  0  0  0
 14 15  1  0  0  0  0
 14 39  1  0  0  0  0
 15 16  2  0  0  0  0
 15 17  1  0  0  0  0
 17 21  2  0  0  0  0
 17 18  1  0  0  0  0
 18 19  2  0  0  0  0
 18 22  1  0  0  0  0
 19 20  1  0  0  0  0
 20 21  1  0  0  0  0
 22 40  1  0  0  0  0
 22 41  1  0  0  0  0
 23 42  1  0  0  0  0
 23 43  1  0  0  0  0
M  END
> <Name>
ZINC04998060

> <reference>
BDB5023

> <quality>
0.730

> <status>
decoy

> <atoms in reference ligand area>
13

> <score>
-27.8728

$$$$
ZINC15939612
      BALL 1.4.0 (Jan  4 2012, 23:22:29)

 54 56  0999  0  0  0  0  0  0999 V2000
    7.9230   13.0398    2.9004 C   0  0  0  0  0  0  0  0  0  0  0  0
    7.4891   12.4496    1.5570 C   0  0  0  0  0  0  0  0  0  0  0  0
    7.4139   10.9907    1.6660 N   0  0  0  0  0  0  0  0  0  0  0  0
    6.2276   10.3932    1.4309 C   0  0  0  0  0  0  0  0  0  0  0  0
    5.2464   11.0510    1.1368 O   0  0  0  0  0  0  0  0  0  0  0  0
    6.1472    8.9299    1.5385 C   0  0  0  0  0  0  0  0  0  0  0  0
    4.9721    8.2190    1.3155 C   0  0  0  0  0  0  0  0  0  0  0  0
    4.9801    6.8457    1.4363 C   0  0  0  0  0  0  0  0  0  0  0  0
    6.1447    6.1698    1.7763 C   0  0  0  0  0  0  0  0  0  0  0  0
    7.3192    6.8562    2.0012 C   0  0  0  0  0  0  0  0  0  0  0  0
    7.3345    8.2413    1.8792 C   0  0  0  0  0  0  0  0  0  0  0  0
    8.5436    9.0486    2.1080 C   0  0  0  0  0  0  0  0  0  0  0  0
    8.4771   10.3514    1.9788 N   0  0  0  0  0  0  0  0  0  0  0  0
    9.8179    8.3983    2.4728 C   0  0  0  0  0  0  0  0  0  0  0  0
   10.1814    8.3811    3.6329 O   0  0  0  0  0  0  0  0  0  0  0  0
   10.5782    7.8237    1.5198 N   0  0  0  0  0  0  0  0  0  0  0  0
   11.9381    7.5850    1.7581 N   0  0  0  0  0  0  0  0  0  0  0  0
   12.7420    7.2004    0.7469 C   0  0  0  0  0  0  0  0  0  0  0  0
   13.6965    7.8819    0.4383 O   0  0  0  0  0  0  0  0  0  0  0  0
   12.4546    5.9237   -0.0003 C   0  0  0  0  0  0  0  0  0  0  0  0
   13.8541    5.5299   -1.0852 S   0  0  0  0  0  0  0  0  0  0  0  0
   13.1522    4.3923   -2.3115 C   0  0  0  0  0  0  0  0  0  0  0  0
   12.1037    5.1281   -3.1484 C   0  0  0  0  0  0  0  0  0  0  0  0
   14.2489    3.8859   -3.2125 C   0  0  0  0  0  0  0  0  0  0  0  0
   13.9891    3.1084   -4.1062 O   0  0  0  0  0  0  0  0  0  0  0  0
   15.5187    4.2971   -3.0251 N   0  0  0  0  0  0  0  0  0  0  0  0
   16.5340    3.8285   -3.8592 C   0  0  0  0  0  0  0  0  0  0  0  0
   16.4386    2.7796   -4.8120 C   0  0  0  0  0  0  0  0  0  0  0  0
   17.6771    2.7152   -5.3514 C   0  0  0  0  0  0  0  0  0  0  0  0
   18.4095    3.6596   -4.7435 O   0  0  0  0  0  0  0  0  0  0  0  0
   17.7625    4.2704   -3.9246 N   0  0  0  0  0  0  0  0  0  0  0  0
   18.1430    1.7676   -6.4266 C   0  0  0  0  0  0  0  0  0  0  0  0
    8.2467   12.2297    3.5704 H   0  0  0  0  0  0  0  0  0  0  0  0
    7.0779   13.5763    3.3564 H   0  0  0  0  0  0  0  0  0  0  0  0
    8.7575   13.7388    2.7422 H   0  0  0  0  0  0  0  0  0  0  0  0
    6.5008   12.8478    1.2835 H   0  0  0  0  0  0  0  0  0  0  0  0
    8.2211   12.7215    0.7823 H   0  0  0  0  0  0  0  0  0  0  0  0
    4.0459    8.7476    1.0454 H   0  0  0  0  0  0  0  0  0  0  0  0
    4.0537    6.2790    1.2615 H   0  0  0  0  0  0  0  0  0  0  0  0
    6.1299    5.0737    1.8672 H   0  0  0  0  0  0  0  0  0  0  0  0
    8.2358    6.3130    2.2747 H   0  0  0  0  0  0  0  0  0  0  0  0
   10.1596    7.5601    0.6164 H   0  0  0  0  0  0  0  0  0  0  0  0
   12.3234    7.7033    2.7059 H   0  0  0  0  0  0  0  0  0  0  0  0
   12.3061    5.1037    0.7178 H   0  0  0  0  0  0  0  0  0  0  0  0
   11.5455    6.0491   -0.6068 H   0  0  0  0  0  0  0  0  0  0  0  0
   12.6799    3.5432   -1.7958 H   0  0  0  0  0  0  0  0  0  0  0  0
   12.5266    6.0733   -3.5197 H   0  0  0  0  0  0  0  0  0  0  0  0
   11.2209    5.3408   -2.5277 H   0  0  0  0  0  0  0  0  0  0  0  0
   11.8079    4.5000   -4.0017 H   0  0  0  0  0  0  0  0  0  0  0  0
   15.7396    4.9575   -2.2661 H   0  0  0  0  0  0  0  0  0  0  0  0
   15.5609    2.1626   -5.0549 H   0  0  0  0  0  0  0  0  0  0  0  0
   19.2159    2.0000   -6.4959 H   0  0  0  0  0  0  0  0  0  0  0  0
   17.6860    2.1954   -7.3311 H   0  0  0  0  0  0  0  0  0  0  0  0
   17.9227    0.7010   -6.2724 H   0  0  0  0  0  0  0  0  0  0  0  0
  1  2  1  0  0  0  0
  1 33  1  0  0  0  0
  1 34  1  0  0  0  0
  1 35  1  0  0  0  0
  2  3  1  0  0  0  0
  2 36  1  0  0  0  0
  2 37  1  0  0  0  0
  3 13  1  0  0  0  0
  3  4  1  0  0  0  0
  4  5  2  0  0  0  0
  4  6  1  0  0  0  0
  6 11  2  0  0  0  0
  6  7  1  0  0  0  0
  7  8  2  0  0  0  0
  7 38  1  0  0  0  0
  8  9  1  0  0  0  0
  8 39  1  0  0  0  0
  9 10  2  0  0  0  0
  9 40  1  0  0  0  0
 10 11  1  0  0  0  0
 10 41  1  0  0  0  0
 11 12  1  0  0  0  0
 12 13  2  0  0  0  0
 12 14  1  0  0  0  0
 14 15  2  0  0  0  0
 14 16  1  0  0  0  0
 16 17  1  0  0  0  0
 16 42  1  0  0  0  0
 17 18  1  0  0  0  0
 17 43  1  0  0  0  0
 18 19  2  0  0  0  0
 18 20  1  0  0  0  0
 20 21  1  0  0  0  0
 20 44  1  0  0  0  0
 20 45  1  0  0  0  0
 21 22  1  0  0  0  0
 22 23  1  0  0  0  0
 22 24  1  0  0  0  0
 22 46  1  0  0  0  0
 23 47  1  0  0  0  0
 23 48  1  0  0  0  0
 23 49  1  0  0  0  0
 24 25  2  0  0  0  0
 24 26  1  0  0  0  0
 26 27  1  0  0  0  0
 26 50  1  0  0  0  0
 27 31  2  0  0  0  0
 27 28  1  0  0  0  0
 28 29  2  0  0  0  0
 28 51  1  0  0  0  0
 29 30  1  0  0  0  0
 29 32  1  0  0  0  0
 30 31  1  0  0  0  0
 32 52  1  0  0  0  0
 32 53  1  0  0  0  0
 32 54  1  0  0  0  0
M  END
> <Name>
ZINC15939612

> <reference>
BDB4968

> <quality>
0.764

> <status>
decoy

> <atoms in reference ligand area>
11

> <score>
-27.8593

$$$$
ZINC22063500
      BALL 1.4.0 (Jan  4 2012, 23:22:29)

 48 49  0999  0  0  0  0  0  0999 V2000
    4.0141    6.1062   -3.5232 C   0  0  0  0  0  0  0  0  0  0  0  0
    4.3223    6.6729   -2.2078 N   0  0  0  0  0  0  0  0  0  0  0  0
    5.7114    6.7428   -1.7476 C   0  0  0  0  0  0  0  0  0  0  0  0
    5.8523    7.8676   -0.7202 C   0  0  0  0  0  0  0  0  0  0  0  0
    7.3030    7.9406   -0.2395 C   0  0  0  0  0  0  0  0  0  0  0  0
    7.3949    8.8730    0.9408 C   0  0  0  0  0  0  0  0  0  0  0  0
    6.3984    9.4248    1.3566 O   0  0  0  0  0  0  0  0  0  0  0  0
    8.6940    9.1140    1.5888 C   0  0  0  0  0  0  0  0  0  0  0  0
    9.8537    8.4777    1.1215 C   0  0  0  0  0  0  0  0  0  0  0  0
   11.0498    8.7427    1.7630 C   0  0  0  0  0  0  0  0  0  0  0  0
   11.0629    9.6097    2.8417 C   0  0  0  0  0  0  0  0  0  0  0  0
    9.9560   10.1910    3.2636 N   0  3  0  0  0  0  0  0  0  0  0  0
    8.7933    9.9765    2.6845 C   0  0  0  0  0  0  0  0  0  0  0  0
   10.0227   11.1007    4.4099 C   0  0  0  0  0  0  0  0  0  0  0  0
    9.0263   12.2460    4.2114 C   0  0  0  0  0  0  0  0  0  0  0  0
    9.4177   13.0421    2.9626 C   0  0  0  0  0  0  0  0  0  0  0  0
   10.8564   13.5440    3.1206 C   0  0  0  0  0  0  0  0  0  0  0  0
   11.7820   12.3485    3.3612 C   0  0  0  0  0  0  0  0  0  0  0  0
   11.3440   11.6341    4.5188 O   0  0  0  0  0  0  0  0  0  0  0  0
   13.1906   12.8390    3.5766 C   0  0  0  0  0  0  0  0  0  0  0  0
   13.7171   13.5460    2.7502 O   0  0  0  0  0  0  0  0  0  0  0  0
   13.8603   12.4906    4.6865 O   0  5  0  0  0  0  0  0  0  0  0  0
   11.2575   14.2265    1.9310 O   0  0  0  0  0  0  0  0  0  0  0  0
    8.5366   14.1568    2.8108 O   0  0  0  0  0  0  0  0  0  0  0  0
    9.0525   13.1051    5.3530 O   0  0  0  0  0  0  0  0  0  0  0  0
    3.3706    7.1101   -1.4548 N   0  0  0  0  0  0  0  0  0  0  0  0
    2.2430    7.2221   -1.9015 O   0  0  0  0  0  0  0  0  0  0  0  0
    4.1073    5.0183   -3.3904 H   0  0  0  0  0  0  0  0  0  0  0  0
    4.8467    6.4229   -4.1686 H   0  0  0  0  0  0  0  0  0  0  0  0
    3.0331    6.4002   -3.9248 H   0  0  0  0  0  0  0  0  0  0  0  0
    5.9927    5.7859   -1.2839 H   0  0  0  0  0  0  0  0  0  0  0  0
    6.3726    6.9440   -2.6034 H   0  0  0  0  0  0  0  0  0  0  0  0
    5.5715    8.8250   -1.1835 H   0  0  0  0  0  0  0  0  0  0  0  0
    5.1925    7.6676    0.1370 H   0  0  0  0  0  0  0  0  0  0  0  0
    7.9415    8.3158   -1.0528 H   0  0  0  0  0  0  0  0  0  0  0  0
    7.6414    6.9374    0.0591 H   0  0  0  0  0  0  0  0  0  0  0  0
    9.8127    7.7859    0.2673 H   0  0  0  0  0  0  0  0  0  0  0  0
   11.9813    8.2693    1.4194 H   0  0  0  0  0  0  0  0  0  0  0  0
   12.0126    9.8179    3.3562 H   0  0  0  0  0  0  0  0  0  0  0  0
    7.8926   10.4800    3.0658 H   0  0  0  0  0  0  0  0  0  0  0  0
    9.7718   10.5507    5.3289 H   0  0  0  0  0  0  0  0  0  0  0  0
    8.0126   11.8374    4.0871 H   0  0  0  0  0  0  0  0  0  0  0  0
    9.3443   12.3984    2.0737 H   0  0  0  0  0  0  0  0  0  0  0  0
   10.9155   14.2355    3.9739 H   0  0  0  0  0  0  0  0  0  0  0  0
   11.7561   11.6819    2.4866 H   0  0  0  0  0  0  0  0  0  0  0  0
   11.7864   15.0278    2.1720 H   0  0  0  0  0  0  0  0  0  0  0  0
    8.3521   14.5554    3.6980 H   0  0  0  0  0  0  0  0  0  0  0  0
    8.9642   12.5629    6.1767 H   0  0  0  0  0  0  0  0  0  0  0  0
  1  2  1  0  0  0  0
  1 28  1  0  0  0  0
  1 29  1  0  0  0  0
  1 30  1  0  0  0  0
  2  3  1  0  0  0  0
  2 26  1  0  0  0  0
  3  4  1  0  0  0  0
  3 31  1  0  0  0  0
  3 32  1  0  0  0  0
  4  5  1  0  0  0  0
  4 33  1  0  0  0  0
  4 34  1  0  0  0  0
  5  6  1  0  0  0  0
  5 35  1  0  0  0  0
  5 36  1  0  0  0  0
  6  7  2  0  0  0  0
  6  8  1  0  0  0  0
  8 13  2  0  0  0  0
  8  9  1  0  0  0  0
  9 10  2  0  0  0  0
  9 37  1  0  0  0  0
 10 11  1  0  0  0  0
 10 38  1  0  0  0  0
 11 12  2  0  0  0  0
 11 39  1  0  0  0  0
 12 13  1  0  0  0  0
 12 14  1  0  0  0  0
 13 40  1  0  0  0  0
 14 19  1  0  0  0  0
 14 15  1  0  0  0  0
 14 41  1  0  0  0  0
 15 16  1  0  0  0  0
 15 25  1  0  0  0  0
 15 42  1  0  0  0  0
 16 17  1  0  0  0  0
 16 24  1  0  0  0  0
 16 43  1  0  0  0  0
 17 18  1  0  0  0  0
 17 23  1  0  0  0  0
 17 44  1  0  0  0  0
 18 19  1  0  0  0  0
 18 20  1  0  0  0  0
 18 45  1  0  0  0  0
 20 21  2  0  0  0  0
 20 22  1  0  0  0  0
 23 46  1  0  0  0  0
 24 47  1  0  0  0  0
 25 48  1  0  0  0  0
 26 27  2  0  0  0  0
M  END
> <Name>
ZINC22063500

> <reference>
BDB4945

> <quality>
0.716

> <status>
decoy

> <atoms in reference ligand area>
14

> <score>
-27.8386

$$$$
ZINC16952887
      BALL 1.4.0 (Jan  4 2012, 23:22:29)

 36 38  0999  0  0  0  0  0  0999 V2000
   12.1333   15.2280   -1.2489 C   0  0  0  0  0  0  0  0  0  0  0  0
   10.6367   14.9746   -1.0559 C   0  0  0  0  0  0  0  0  0  0  0  0
   10.0790   15.9451   -0.1230 O   0  0  0  0  0  0  0  0  0  0  0  0
   10.1758   15.2629    1.1003 C   0  0  0  0  0  0  0  0  0  0  0  0
    9.3242   15.4693    2.3227 C   0  0  0  0  0  0  0  0  0  0  0  0
    9.0941   14.1406    2.8651 O   0  0  0  0  0  0  0  0  0  0  0  0
    9.6367   13.1502    1.9425 C   0  0  0  0  0  0  0  0  0  0  0  0
    9.6019   13.8702    0.6162 C   0  0  0  0  0  0  0  0  0  0  0  0
   10.4299   13.6489   -0.4875 O   0  0  0  0  0  0  0  0  0  0  0  0
    8.7645   11.9217    1.9055 C   0  0  0  0  0  0  0  0  0  0  0  0
    8.7009   10.9169    2.8680 C   0  0  0  0  0  0  0  0  0  0  0  0
    7.7322    9.9991    2.3707 C   0  0  0  0  0  0  0  0  0  0  0  0
    7.3100   10.4752    1.2188 N   0  0  0  0  0  0  0  0  0  0  0  0
    7.8970   11.5800    0.9347 N   0  5  0  0  0  0  0  0  0  0  0  0
    7.2863    8.7517    3.0232 C   0  0  0  0  0  0  0  0  0  0  0  0
    7.7372    7.6820    2.6621 O   0  0  0  0  0  0  0  0  0  0  0  0
    6.3796    8.7990    4.0192 N   0  0  0  0  0  0  0  0  0  0  0  0
    9.4645   10.8264    4.1290 C   0  0  0  0  0  0  0  0  0  0  0  0
    9.8194   11.8434    4.7013 O   0  0  0  0  0  0  0  0  0  0  0  0
    9.7699    9.6360    4.6375 N   0  0  0  0  0  0  0  0  0  0  0  0
    9.2746    9.2852    5.5836 N   0  3  0  0  0  0  0  0  0  0  0  0
    8.7792    8.9345    6.5296 N   0  5  0  0  0  0  0  0  0  0  0  0
    9.9144   15.0803   -2.4005 C   0  0  0  0  0  0  0  0  0  0  0  0
   12.2820   15.9016   -2.1057 H   0  0  0  0  0  0  0  0  0  0  0  0
   12.6433   14.2729   -1.4430 H   0  0  0  0  0  0  0  0  0  0  0  0
   12.5502   15.6896   -0.3416 H   0  0  0  0  0  0  0  0  0  0  0  0
   11.1801   15.5216    1.4671 H   0  0  0  0  0  0  0  0  0  0  0  0
    9.8632   16.0869    3.0561 H   0  0  0  0  0  0  0  0  0  0  0  0
    8.3666   15.9314    2.0409 H   0  0  0  0  0  0  0  0  0  0  0  0
   10.6409   12.7984    2.2215 H   0  0  0  0  0  0  0  0  0  0  0  0
    8.6083   13.6215    0.2153 H   0  0  0  0  0  0  0  0  0  0  0  0
    6.0686    7.9290    4.4744 H   0  0  0  0  0  0  0  0  0  0  0  0
    5.9976    9.7053    4.3252 H   0  0  0  0  0  0  0  0  0  0  0  0
   10.3348   15.9187   -2.9753 H   0  0  0  0  0  0  0  0  0  0  0  0
    8.8431   15.2589   -2.2260 H   0  0  0  0  0  0  0  0  0  0  0  0
   10.0444   14.1454   -2.9653 H   0  0  0  0  0  0  0  0  0  0  0  0
  1  2  1  0  0  0  0
  1 24  1  0  0  0  0
  1 25  1  0  0  0  0
  1 26  1  0  0  0  0
  2  9  1  0  0  0  0
  2  3  1  0  0  0  0
  2 23  1  0  0  0  0
  3  4  1  0  0  0  0
  4  8  1  0  0  0  0
  4  5  1  0  0  0  0
  4 27  1  0  0  0  0
  5  6  1  0  0  0  0
  5 28  1  0  0  0  0
  5 29  1  0  0  0  0
  6  7  1  0  0  0  0
  7  8  1  0  0  0  0
  7 10  1  0  0  0  0
  7 30  1  0  0  0  0
  8  9  1  0  0  0  0
  8 31  1  0  0  0  0
 10 14  1  0  0  0  0
 10 11  2  0  0  0  0
 11 12  1  0  0  0  0
 11 18  1  0  0  0  0
 12 13  2  0  0  0  0
 12 15  1  0  0  0  0
 13 14  1  0  0  0  0
 15 16  2  0  0  0  0
 15 17  1  0  0  0  0
 17 32  1  0  0  0  0
 17 33  1  0  0  0  0
 18 19  2  0  0  0  0
 18 20  1  0  0  0  0
 20 21  2  0  0  0  0
 21 22  2  0  0  0  0
 23 34  1  0  0  0  0
 23 35  1  0  0  0  0
 23 36  1  0  0  0  0
M  END
> <Name>
ZINC16952887

> <reference>
BDB4977

> <quality>
0.733

> <status>
decoy

> <atoms in reference ligand area>
12

> <score>
-27.8038

$$$$
ZINC05974537
      BALL 1.4.0 (Jan  4 2012, 23:22:29)

 35 36  0999  0  0  0  0  0  0999 V2000
   13.1084   13.3355    2.7720 C   0  0  0  0  0  0  0  0  0  0  0  0
   12.2803   13.3574    3.8786 C   0  0  0  0  0  0  0  0  0  0  0  0
   10.9946   12.8572    3.7898 C   0  0  0  0  0  0  0  0  0  0  0  0
   10.5373   12.3348    2.5945 C   0  0  0  0  0  0  0  0  0  0  0  0
   11.3672   12.3077    1.4894 C   0  0  0  0  0  0  0  0  0  0  0  0
   12.6510   12.8131    1.5767 C   0  0  0  0  0  0  0  0  0  0  0  0
    9.1358   11.7891    2.4978 C   0  0  0  0  0  0  0  0  0  0  0  0
    7.7131   10.3194    1.2023 C   0  0  0  0  0  0  0  0  0  0  0  0
    6.9215   11.5591    0.7812 C   0  0  0  0  0  0  0  0  0  0  0  0
    7.7307   12.3606   -0.2057 C   0  0  0  0  0  0  0  0  0  0  0  0
    8.2259   13.6087   -0.0156 C   0  0  0  0  0  0  0  0  0  0  0  0
    8.8814   13.9715   -1.1150 N   0  0  0  0  0  0  0  0  0  0  0  0
    8.8183   12.9951   -1.9960 C   0  0  0  0  0  0  0  0  0  0  0  0
    8.1044   11.9671   -1.4458 N   0  0  0  0  0  0  0  0  0  0  0  0
    9.4189   13.0058   -3.3405 C   0  0  0  0  0  0  0  0  0  0  0  0
   10.2471   12.1695   -3.6428 O   0  0  0  0  0  0  0  0  0  0  0  0
    7.0901    9.7213    2.4373 C   0  0  0  0  0  0  0  0  0  0  0  0
    7.7932    9.2886    3.3196 O   0  0  0  0  0  0  0  0  0  0  0  0
    9.1056   10.7097    1.4929 N   0  3  0  0  0  0  0  0  0  0  0  0
    9.0498   13.9434   -4.2361 O   0  5  0  0  0  0  0  0  0  0  0  0
    5.7543    9.6690    2.5572 O   0  5  0  0  0  0  0  0  0  0  0  0
   14.1313   13.7338    2.8426 H   0  0  0  0  0  0  0  0  0  0  0  0
   12.6443   13.7728    4.8299 H   0  0  0  0  0  0  0  0  0  0  0  0
   10.3355   12.8749    4.6702 H   0  0  0  0  0  0  0  0  0  0  0  0
   11.0062   11.8840    0.5406 H   0  0  0  0  0  0  0  0  0  0  0  0
   13.3086   12.7995    0.6950 H   0  0  0  0  0  0  0  0  0  0  0  0
    8.8288   11.3891    3.4754 H   0  0  0  0  0  0  0  0  0  0  0  0
    8.4478   12.5920    2.1946 H   0  0  0  0  0  0  0  0  0  0  0  0
    7.6986    9.5771    0.3907 H   0  0  0  0  0  0  0  0  0  0  0  0
    5.9757   11.2489    0.3129 H   0  0  0  0  0  0  0  0  0  0  0  0
    6.7073   12.1768    1.6658 H   0  0  0  0  0  0  0  0  0  0  0  0
    8.1061   14.2173    0.8928 H   0  0  0  0  0  0  0  0  0  0  0  0
    7.8910   11.0632   -1.8911 H   0  0  0  0  0  0  0  0  0  0  0  0
    9.5556   11.0373    0.6262 H   0  0  0  0  0  0  0  0  0  0  0  0
    9.6203    9.8931    1.8520 H   0  0  0  0  0  0  0  0  0  0  0  0
  1  6  2  0  0  0  0
  1  2  1  0  0  0  0
  1 22  1  0  0  0  0
  2  3  2  0  0  0  0
  2 23  1  0  0  0  0
  3  4  1  0  0  0  0
  3 24  1  0  0  0  0
  4  5  2  0  0  0  0
  4  7  1  0  0  0  0
  5  6  1  0  0  0  0
  5 25  1  0  0  0  0
  6 26  1  0  0  0  0
  7 19  1  0  0  0  0
  7 27  1  0  0  0  0
  7 28  1  0  0  0  0
  8  9  1  0  0  0  0
  8 17  1  0  0  0  0
  8 19  1  0  0  0  0
  8 29  1  0  0  0  0
  9 10  1  0  0  0  0
  9 30  1  0  0  0  0
  9 31  1  0  0  0  0
 10 14  1  0  0  0  0
 10 11  2  0  0  0  0
 11 12  1  0  0  0  0
 11 32  1  0  0  0  0
 12 13  2  0  0  0  0
 13 14  1  0  0  0  0
 13 15  1  0  0  0  0
 14 33  1  0  0  0  0
 15 16  2  0  0  0  0
 15 20  1  0  0  0  0
 17 18  2  0  0  0  0
 17 21  1  0  0  0  0
 19 34  1  0  0  0  0
 19 35  1  0  0  0  0
M  END
> <Name>
ZINC05974537

> <reference>
BDB5009

> <quality>
0.774

> <status>
decoy

> <atoms in reference ligand area>
23

> <score>
-27.7791

$$$$
ZINC19752740
      BALL 1.4.0 (Jan  4 2012, 23:22:29)

 44 46  0999  0  0  0  0  0  0999 V2000
    9.5245   17.2970    2.4785 C   0  0  0  0  0  0  0  0  0  0  0  0
    9.1439   15.8165    2.4133 C   0  0  0  0  0  0  0  0  0  0  0  0
   10.1975   15.0541    1.6074 C   0  0  0  0  0  0  0  0  0  0  0  0
    9.8729   15.1499    0.1388 C   0  0  0  0  0  0  0  0  0  0  0  0
    8.9128   14.5672   -0.3068 O   0  0  0  0  0  0  0  0  0  0  0  0
   10.6471   15.8869   -0.6729 O   0  5  0  0  0  0  0  0  0  0  0  0
   10.2013   13.6473    2.0160 N   0  0  0  0  0  0  0  0  0  0  0  0
   11.1992   13.0014    2.7213 C   0  0  0  0  0  0  0  0  0  0  0  0
   12.4171   13.4013    3.2535 C   0  0  0  0  0  0  0  0  0  0  0  0
   13.2071   12.4917    3.9328 C   0  0  0  0  0  0  0  0  0  0  0  0
   12.7810   11.1725    4.0923 C   0  0  0  0  0  0  0  0  0  0  0  0
   11.5697   10.7646    3.5706 C   0  0  0  0  0  0  0  0  0  0  0  0
   10.7642   11.6759    2.8817 C   0  0  0  0  0  0  0  0  0  0  0  0
    9.5539   11.5794    2.2720 N   0  0  0  0  0  0  0  0  0  0  0  0
    9.2253   12.7321    1.7663 C   0  0  0  0  0  0  0  0  0  0  0  0
    7.9504   13.0128    1.0134 C   0  0  0  0  0  0  0  0  0  0  0  0
    7.9913   12.3029   -0.3413 C   0  0  0  0  0  0  0  0  0  0  0  0
    6.6992   11.5080   -0.5398 C   0  0  0  0  0  0  0  0  0  0  0  0
    6.5103   11.2295   -1.9698 N   0  3  0  0  0  0  0  0  0  0  0  0
   13.5487   10.2713    4.7668 O   0  0  0  0  0  0  0  0  0  0  0  0
   14.9259   10.6131    4.9563 C   0  0  0  0  0  0  0  0  0  0  0  0
   14.9982   12.0678    5.4393 C   0  0  0  0  0  0  0  0  0  0  0  0
   14.4028   12.9021    4.4401 O   0  0  0  0  0  0  0  0  0  0  0  0
   10.4110   17.4210    3.1178 H   0  0  0  0  0  0  0  0  0  0  0  0
    8.6871   17.8738    2.8980 H   0  0  0  0  0  0  0  0  0  0  0  0
    9.7498   17.6633    1.4661 H   0  0  0  0  0  0  0  0  0  0  0  0
    9.0942   15.4053    3.4324 H   0  0  0  0  0  0  0  0  0  0  0  0
    8.1632   15.7099    1.9266 H   0  0  0  0  0  0  0  0  0  0  0  0
   11.1892   15.4925    1.7931 H   0  0  0  0  0  0  0  0  0  0  0  0
   12.7540   14.4417    3.1350 H   0  0  0  0  0  0  0  0  0  0  0  0
   11.2387    9.7232    3.6968 H   0  0  0  0  0  0  0  0  0  0  0  0
    7.0924   12.6436    1.5944 H   0  0  0  0  0  0  0  0  0  0  0  0
    7.8474   14.0966    0.8557 H   0  0  0  0  0  0  0  0  0  0  0  0
    8.0891   13.0490   -1.1436 H   0  0  0  0  0  0  0  0  0  0  0  0
    8.8510   11.6172   -0.3714 H   0  0  0  0  0  0  0  0  0  0  0  0
    6.7639   10.5589    0.0125 H   0  0  0  0  0  0  0  0  0  0  0  0
    5.8463   12.0929   -0.1652 H   0  0  0  0  0  0  0  0  0  0  0  0
    7.3077   10.6808   -2.3220 H   0  0  0  0  0  0  0  0  0  0  0  0
    6.4494   12.1173   -2.4884 H   0  0  0  0  0  0  0  0  0  0  0  0
    5.6405   10.6944   -2.1041 H   0  0  0  0  0  0  0  0  0  0  0  0
   15.3709    9.9506    5.7133 H   0  0  0  0  0  0  0  0  0  0  0  0
   15.4674   10.5136    4.0040 H   0  0  0  0  0  0  0  0  0  0  0  0
   16.0493   12.3581    5.5845 H   0  0  0  0  0  0  0  0  0  0  0  0
   14.4452   12.1711    6.3846 H   0  0  0  0  0  0  0  0  0  0  0  0
  1  2  1  0  0  0  0
  1 24  1  0  0  0  0
  1 25  1  0  0  0  0
  1 26  1  0  0  0  0
  2  3  1  0  0  0  0
  2 27  1  0  0  0  0
  2 28  1  0  0  0  0
  3  4  1  0  0  0  0
  3  7  1  0  0  0  0
  3 29  1  0  0  0  0
  4  5  2  0  0  0  0
  4  6  1  0  0  0  0
  7 15  1  0  0  0  0
  7  8  1  0  0  0  0
  8 13  1  0  0  0  0
  8  9  2  0  0  0  0
  9 10  1  0  0  0  0
  9 30  1  0  0  0  0
 10 23  1  0  0  0  0
 10 11  2  0  0  0  0
 11 12  1  0  0  0  0
 11 20  1  0  0  0  0
 12 13  2  0  0  0  0
 12 31  1  0  0  0  0
 13 14  1  0  0  0  0
 14 15  2  0  0  0  0
 15 16  1  0  0  0  0
 16 17  1  0  0  0  0
 16 32  1  0  0  0  0
 16 33  1  0  0  0  0
 17 18  1  0  0  0  0
 17 34  1  0  0  0  0
 17 35  1  0  0  0  0
 18 19  1  0  0  0  0
 18 36  1  0  0  0  0
 18 37  1  0  0  0  0
 19 38  1  0  0  0  0
 19 39  1  0  0  0  0
 19 40  1  0  0  0  0
 20 21  1  0  0  0  0
 21 22  1  0  0  0  0
 21 41  1  0  0  0  0
 21 42  1  0  0  0  0
 22 23  1  0  0  0  0
 22 43  1  0  0  0  0
 22 44  1  0  0  0  0
M  END
> <Name>
ZINC19752740

> <reference>
BDB5199

> <quality>
0.777

> <status>
decoy

> <atoms in reference ligand area>
20

> <score>
-27.7155

$$$$
ZINC05667259
      BALL 1.4.0 (Jan  4 2012, 23:22:29)

 39 40  0999  0  0  0  0  0  0999 V2000
   11.2154   14.3080    1.3064 C   0  0  0  0  0  0  0  0  0  0  0  0
   11.0860   13.4645    2.3132 C   0  0  0  0  0  0  0  0  0  0  0  0
   10.1588   12.2826    2.1919 C   0  5  0  0  0  0  0  0  0  0  0  0
    8.8638   12.6235    2.9047 C   0  0  0  0  0  0  0  0  0  0  0  0
    8.2026   13.5868    2.5809 O   0  0  0  0  0  0  0  0  0  0  0  0
    8.4746   11.8142    3.9126 N   0  0  0  0  0  0  0  0  0  0  0  0
    9.1925   10.7473    4.2818 C   0  0  0  0  0  0  0  0  0  0  0  0
    8.7683   10.0732    5.1991 O   0  0  0  0  0  0  0  0  0  0  0  0
   10.3461   10.3715    3.7178 N   0  0  0  0  0  0  0  0  0  0  0  0
   10.8942   11.0526    2.6893 C   0  0  0  0  0  0  0  0  0  0  0  0
   11.9379   10.6973    2.1849 O   0  0  0  0  0  0  0  0  0  0  0  0
   11.0025    9.2323    4.2060 C   0  0  0  0  0  0  0  0  0  0  0  0
   10.3654    8.3989    5.1151 C   0  0  0  0  0  0  0  0  0  0  0  0
   11.0117    7.2744    5.5900 C   0  0  0  0  0  0  0  0  0  0  0  0
   12.2978    6.9848    5.1694 C   0  0  0  0  0  0  0  0  0  0  0  0
   12.9369    7.8170    4.2672 C   0  0  0  0  0  0  0  0  0  0  0  0
   12.2925    8.9394    3.7851 C   0  0  0  0  0  0  0  0  0  0  0  0
   13.1105    5.5750    5.7740 Cl  0  0  0  0  0  0  0  0  0  0  0  0
   13.1361   12.9361    3.5896 C   0  0  0  0  0  0  0  0  0  0  0  0
   13.9378   13.6011    4.7103 C   0  0  0  0  0  0  0  0  0  0  0  0
   15.0709   12.6707    5.1479 C   0  0  0  0  0  0  0  0  0  0  0  0
   16.3267   13.3223    4.9467 O   0  0  0  0  0  0  0  0  0  0  0  0
   11.7967   13.6185    3.5404 N   0  3  0  0  0  0  0  0  0  0  0  0
   10.6463   14.1484    0.3786 H   0  0  0  0  0  0  0  0  0  0  0  0
   11.8921   15.1706    1.3950 H   0  0  0  0  0  0  0  0  0  0  0  0
    7.5988   12.0243    4.4123 H   0  0  0  0  0  0  0  0  0  0  0  0
    9.3467    8.6338    5.4570 H   0  0  0  0  0  0  0  0  0  0  0  0
   10.5037    6.6085    6.3032 H   0  0  0  0  0  0  0  0  0  0  0  0
   13.9590    7.5843    3.9338 H   0  0  0  0  0  0  0  0  0  0  0  0
   12.8011    9.6007    3.0681 H   0  0  0  0  0  0  0  0  0  0  0  0
   13.6568   13.0688    2.6299 H   0  0  0  0  0  0  0  0  0  0  0  0
   13.0008   11.8671    3.8110 H   0  0  0  0  0  0  0  0  0  0  0  0
   14.3620   14.5483    4.3455 H   0  0  0  0  0  0  0  0  0  0  0  0
   13.2769   13.8009    5.5667 H   0  0  0  0  0  0  0  0  0  0  0  0
   15.0385   11.7465    4.5524 H   0  0  0  0  0  0  0  0  0  0  0  0
   14.9526   12.4247    6.2136 H   0  0  0  0  0  0  0  0  0  0  0  0
   16.4245   14.0609    5.5984 H   0  0  0  0  0  0  0  0  0  0  0  0
   11.9325   14.6242    3.7163 H   0  0  0  0  0  0  0  0  0  0  0  0
   11.2127   13.2537    4.3063 H   0  0  0  0  0  0  0  0  0  0  0  0
  1  2  2  0  0  0  0
  1 24  1  0  0  0  0
  1 25  1  0  0  0  0
  2  3  1  0  0  0  0
  2 23  1  0  0  0  0
  3 10  1  0  0  0  0
  3  4  1  0  0  0  0
  4  5  2  0  0  0  0
  4  6  1  0  0  0  0
  6  7  1  0  0  0  0
  6 26  1  0  0  0  0
  7  8  2  0  0  0  0
  7  9  1  0  0  0  0
  9 10  1  0  0  0  0
  9 12  1  0  0  0  0
 10 11  2  0  0  0  0
 12 17  2  0  0  0  0
 12 13  1  0  0  0  0
 13 14  2  0  0  0  0
 13 27  1  0  0  0  0
 14 15  1  0  0  0  0
 14 28  1  0  0  0  0
 15 16  2  0  0  0  0
 15 18  1  0  0  0  0
 16 17  1  0  0  0  0
 16 29  1  0  0  0  0
 17 30  1  0  0  0  0
 19 20  1  0  0  0  0
 19 23  1  0  0  0  0
 19 31  1  0  0  0  0
 19 32  1  0  0  0  0
 20 21  1  0  0  0  0
 20 33  1  0  0  0  0
 20 34  1  0  0  0  0
 21 22  1  0  0  0  0
 21 35  1  0  0  0  0
 21 36  1  0  0  0  0
 22 37  1  0  0  0  0
 23 38  1  0  0  0  0
 23 39  1  0  0  0  0
M  END
> <Name>
ZINC05667259

> <reference>
BDB5198

> <quality>
0.867

> <status>
decoy

> <atoms in reference ligand area>
15

> <score>
-27.7007

$$$$
ZINC03215161
      BALL 1.4.0 (Jan  4 2012, 23:22:29)

 42 43  0999  0  0  0  0  0  0999 V2000
    7.6678   11.3910    1.3990 C   0  0  0  0  0  0  0  0  0  0  0  0
    8.9523   10.7743    1.2916 O   0  0  0  0  0  0  0  0  0  0  0  0
   10.0122   11.5927    1.0544 C   0  0  0  0  0  0  0  0  0  0  0  0
   10.9495   11.8126    2.0455 C   0  0  0  0  0  0  0  0  0  0  0  0
   12.0427   12.6519    1.7988 C   0  0  0  0  0  0  0  0  0  0  0  0
   12.1762   13.2730    0.5511 C   0  0  0  0  0  0  0  0  0  0  0  0
   11.2319   13.0518   -0.4332 C   0  0  0  0  0  0  0  0  0  0  0  0
   10.1483   12.2128   -0.1853 C   0  0  0  0  0  0  0  0  0  0  0  0
    9.2212   11.9980   -1.1560 O   0  0  0  0  0  0  0  0  0  0  0  0
    9.4219   12.6651   -2.4038 C   0  0  0  0  0  0  0  0  0  0  0  0
   11.3606   13.6545   -1.6455 O   0  0  0  0  0  0  0  0  0  0  0  0
   12.0154   14.9243   -1.6724 C   0  0  0  0  0  0  0  0  0  0  0  0
   13.0436   12.8846    2.8477 C   0  0  0  0  0  0  0  0  0  0  0  0
   13.7330   11.8395    3.3718 C   0  0  0  0  0  0  0  0  0  0  0  0
   13.7712   10.4273    2.9428 C   0  0  0  0  0  0  0  0  0  0  0  0
   13.1274   10.0314    1.9888 O   0  0  0  0  0  0  0  0  0  0  0  0
   14.5405    9.6145    3.6471 N   0  0  0  0  0  0  0  0  0  0  0  0
   15.2527   10.0575    4.7032 C   0  0  0  0  0  0  0  0  0  0  0  0
   15.9940    9.4266    5.4325 O   0  0  0  0  0  0  0  0  0  0  0  0
   14.8506   11.7960    4.7663 S   0  0  0  0  0  0  0  0  0  0  0  0
   14.6215    8.2008    3.2713 C   0  0  0  0  0  0  0  0  0  0  0  0
   14.9108    8.0872    1.7732 C   0  0  0  0  0  0  0  0  0  0  0  0
   13.6524    8.2629    1.0267 N   0  3  0  0  0  0  0  0  0  0  0  0
    7.7703   12.1908    2.1472 H   0  0  0  0  0  0  0  0  0  0  0  0
    6.9918   10.6277    1.8116 H   0  0  0  0  0  0  0  0  0  0  0  0
    7.3008   11.7801    0.4378 H   0  0  0  0  0  0  0  0  0  0  0  0
   10.8370   11.3288    3.0270 H   0  0  0  0  0  0  0  0  0  0  0  0
   13.0316   13.9360    0.3547 H   0  0  0  0  0  0  0  0  0  0  0  0
    9.5580   13.7305   -2.1665 H   0  0  0  0  0  0  0  0  0  0  0  0
    8.4811   12.5618   -2.9644 H   0  0  0  0  0  0  0  0  0  0  0  0
   10.2762   12.2633   -2.9684 H   0  0  0  0  0  0  0  0  0  0  0  0
   12.0654   15.2242   -2.7295 H   0  0  0  0  0  0  0  0  0  0  0  0
   13.0435   14.7496   -1.3223 H   0  0  0  0  0  0  0  0  0  0  0  0
   11.5022   15.6808   -1.0605 H   0  0  0  0  0  0  0  0  0  0  0  0
   13.2347   13.9060    3.2087 H   0  0  0  0  0  0  0  0  0  0  0  0
   13.6663    7.7046    3.4983 H   0  0  0  0  0  0  0  0  0  0  0  0
   15.4302    7.7163    3.8381 H   0  0  0  0  0  0  0  0  0  0  0  0
   15.3328    7.0955    1.5532 H   0  0  0  0  0  0  0  0  0  0  0  0
   15.6262    8.8682    1.4763 H   0  0  0  0  0  0  0  0  0  0  0  0
   12.9120    8.5880    1.6647 H   0  0  0  0  0  0  0  0  0  0  0  0
   13.3723    7.3676    0.6014 H   0  0  0  0  0  0  0  0  0  0  0  0
   13.7922    8.9627    0.2840 H   0  0  0  0  0  0  0  0  0  0  0  0
  1  2  1  0  0  0  0
  1 24  1  0  0  0  0
  1 25  1  0  0  0  0
  1 26  1  0  0  0  0
  2  3  1  0  0  0  0
  3  8  2  0  0  0  0
  3  4  1  0  0  0  0
  4  5  2  0  0  0  0
  4 27  1  0  0  0  0
  5  6  1  0  0  0  0
  5 13  1  0  0  0  0
  6  7  2  0  0  0  0
  6 28  1  0  0  0  0
  7  8  1  0  0  0  0
  7 11  1  0  0  0  0
  8  9  1  0  0  0  0
  9 10  1  0  0  0  0
 10 29  1  0  0  0  0
 10 30  1  0  0  0  0
 10 31  1  0  0  0  0
 11 12  1  0  0  0  0
 12 32  1  0  0  0  0
 12 33  1  0  0  0  0
 12 34  1  0  0  0  0
 13 14  2  0  0  0  0
 13 35  1  0  0  0  0
 14 20  1  0  0  0  0
 14 15  1  0  0  0  0
 15 16  2  0  0  0  0
 15 17  1  0  0  0  0
 17 18  1  0  0  0  0
 17 21  1  0  0  0  0
 18 19  2  0  0  0  0
 18 20  1  0  0  0  0
 21 22  1  0  0  0  0
 21 36  1  0  0  0  0
 21 37  1  0  0  0  0
 22 23  1  0  0  0  0
 22 38  1  0  0  0  0
 22 39  1  0  0  0  0
 23 40  1  0  0  0  0
 23 41  1  0  0  0  0
 23 42  1  0  0  0  0
M  END
> <Name>
ZINC03215161

> <reference>
BDB5198

> <quality>
0.776

> <status>
decoy

> <atoms in reference ligand area>
18

> <score>
-27.555

$$$$
ZINC16953706
      BALL 1.4.0 (Jan  4 2012, 23:22:29)

 40 43  0999  0  0  0  0  0  0999 V2000
   11.0000    7.6353    2.4814 C   0  0  0  0  0  0  0  0  0  0  0  0
   10.3302    8.9806    2.7685 C   0  0  0  0  0  0  0  0  0  0  0  0
    8.9005    8.8573    2.6183 O   0  0  0  0  0  0  0  0  0  0  0  0
    8.4360   10.0633    1.9974 C   0  0  0  0  0  0  0  0  0  0  0  0
    7.8167    9.7288    0.6280 C   0  0  0  0  0  0  0  0  0  0  0  0
    8.2712   10.7435   -0.2765 O   0  0  0  0  0  0  0  0  0  0  0  0
    9.5594   11.1992    0.1480 C   0  0  0  0  0  0  0  0  0  0  0  0
    9.7024   10.8809    1.6446 C   0  0  0  0  0  0  0  0  0  0  0  0
   10.7932    9.9630    1.8321 O   0  0  0  0  0  0  0  0  0  0  0  0
    9.6686   12.6447   -0.0640 N   0  0  0  0  0  0  0  0  0  0  0  0
    8.7156   13.5763    0.2226 C   0  0  0  0  0  0  0  0  0  0  0  0
    9.1457   14.7636   -0.0920 N   0  0  0  0  0  0  0  0  0  0  0  0
   10.3984   14.6698   -0.5990 C   0  0  0  0  0  0  0  0  0  0  0  0
   10.7491   13.3090   -0.5873 C   0  0  0  0  0  0  0  0  0  0  0  0
   11.9448   12.9463   -1.0397 N   0  0  0  0  0  0  0  0  0  0  0  0
   12.7918   13.8461   -1.4935 C   0  0  0  0  0  0  0  0  0  0  0  0
   12.5074   15.1351   -1.5243 N   0  0  0  0  0  0  0  0  0  0  0  0
   11.3362   15.5922   -1.0929 C   0  0  0  0  0  0  0  0  0  0  0  0
   11.0471   16.9450   -1.1297 N   0  0  0  0  0  0  0  0  0  0  0  0
    6.2898    9.7534    0.7214 C   0  0  0  0  0  0  0  0  0  0  0  0
    5.7161    9.5928   -0.6170 N   0  0  0  0  0  0  0  0  0  0  0  0
    5.0411    8.7217   -0.8383 N   0  3  0  0  0  0  0  0  0  0  0  0
    4.3660    7.8507   -1.0595 N   0  5  0  0  0  0  0  0  0  0  0  0
   10.6579    9.4292    4.1940 C   0  0  0  0  0  0  0  0  0  0  0  0
   11.9120    7.8005    1.8890 H   0  0  0  0  0  0  0  0  0  0  0  0
   10.3074    6.9961    1.9143 H   0  0  0  0  0  0  0  0  0  0  0  0
   11.2618    7.1430    3.4295 H   0  0  0  0  0  0  0  0  0  0  0  0
    7.7214   10.5756    2.6583 H   0  0  0  0  0  0  0  0  0  0  0  0
    8.1136    8.7258    0.2877 H   0  0  0  0  0  0  0  0  0  0  0  0
   10.3523   10.7002   -0.4284 H   0  0  0  0  0  0  0  0  0  0  0  0
    9.8483   11.7985    2.2335 H   0  0  0  0  0  0  0  0  0  0  0  0
    7.7287   13.3568    0.6559 H   0  0  0  0  0  0  0  0  0  0  0  0
   13.7732   13.5116   -1.8608 H   0  0  0  0  0  0  0  0  0  0  0  0
   10.9849   17.4735   -0.2478 H   0  0  0  0  0  0  0  0  0  0  0  0
   10.8951   17.4211   -2.0303 H   0  0  0  0  0  0  0  0  0  0  0  0
    5.9627   10.7135    1.1469 H   0  0  0  0  0  0  0  0  0  0  0  0
    5.9485    8.9308    1.3670 H   0  0  0  0  0  0  0  0  0  0  0  0
   11.5803   10.0286    4.1851 H   0  0  0  0  0  0  0  0  0  0  0  0
   10.8043    8.5441    4.8306 H   0  0  0  0  0  0  0  0  0  0  0  0
    9.8299   10.0347    4.5910 H   0  0  0  0  0  0  0  0  0  0  0  0
  1  2  1  0  0  0  0
  1 25  1  0  0  0  0
  1 26  1  0  0  0  0
  1 27  1  0  0  0  0
  2  9  1  0  0  0  0
  2  3  1  0  0  0  0
  2 24  1  0  0  0  0
  3  4  1  0  0  0  0
  4  8  1  0  0  0  0
  4  5  1  0  0  0  0
  4 28  1  0  0  0  0
  5  6  1  0  0  0  0
  5 20  1  0  0  0  0
  5 29  1  0  0  0  0
  6  7  1  0  0  0  0
  7  8  1  0  0  0  0
  7 10  1  0  0  0  0
  7 30  1  0  0  0  0
  8  9  1  0  0  0  0
  8 31  1  0  0  0  0
 10 14  1  0  0  0  0
 10 11  1  0  0  0  0
 11 12  2  0  0  0  0
 11 32  1  0  0  0  0
 12 13  1  0  0  0  0
 13 18  2  0  0  0  0
 13 14  1  0  0  0  0
 14 15  2  0  0  0  0
 15 16  1  0  0  0  0
 16 17  2  0  0  0  0
 16 33  1  0  0  0  0
 17 18  1  0  0  0  0
 18 19  1  0  0  0  0
 19 34  1  0  0  0  0
 19 35  1  0  0  0  0
 20 21  1  0  0  0  0
 20 36  1  0  0  0  0
 20 37  1  0  0  0  0
 21 22  2  0  0  0  0
 22 23  2  0  0  0  0
 24 38  1  0  0  0  0
 24 39  1  0  0  0  0
 24 40  1  0  0  0  0
M  END
> <Name>
ZINC16953706

> <reference>
BDB4977

> <quality>
0.780

> <status>
decoy

> <atoms in reference ligand area>
14

> <score>
-27.4628

$$$$
