ZINC31392821
      BALL 1.4.0 (Jan  4 2012, 23:22:29)

 50 52  0999  0  0  0  0  0  0999 V2000
  -32.0231   14.7131  -21.3505 C   0  0  0  0  0  0  0  0  0  0  0  0
  -31.7978   15.1241  -19.9582 N   0  3  0  0  0  0  0  0  0  0  0  0
  -31.2103   16.4690  -19.8949 C   0  0  0  0  0  0  0  0  0  0  0  0
  -32.3262   17.5151  -19.9284 C   0  0  0  0  0  0  0  0  0  0  0  0
  -31.7142   18.9159  -19.8624 C   0  0  0  0  0  0  0  0  0  0  0  0
  -32.7790   19.9061  -19.6535 N   0  0  0  0  0  0  0  0  0  0  0  0
  -32.4296   21.1821  -20.2566 N   0  0  0  0  0  0  0  0  0  0  0  0
  -30.9575   14.1487  -19.2508 C   0  0  0  0  0  0  0  0  0  0  0  0
  -31.7923   12.9150  -18.9012 C   0  0  0  0  0  0  0  0  0  0  0  0
  -30.8921   11.8347  -18.2710 C   0  0  0  0  0  0  0  0  0  0  0  0
  -31.0594   10.6101  -19.2034 C   0  0  0  0  0  0  0  0  0  0  0  0
  -32.4018   10.9228  -19.9123 C   0  0  0  0  0  0  0  0  0  0  0  0
  -32.3599   12.3542  -20.0969 O   0  0  0  0  0  0  0  0  0  0  0  0
  -32.4742   10.2378  -21.2053 N   0  0  0  0  0  0  0  0  0  0  0  0
  -33.5943    9.7130  -21.7785 C   0  0  0  0  0  0  0  0  0  0  0  0
  -33.2969    9.1775  -22.9267 N   0  0  0  0  0  0  0  0  0  0  0  0
  -31.9709    9.3240  -23.1627 C   0  0  0  0  0  0  0  0  0  0  0  0
  -31.4272   10.0062  -22.0610 C   0  0  0  0  0  0  0  0  0  0  0  0
  -30.1263   10.2769  -22.0469 N   0  0  0  0  0  0  0  0  0  0  0  0
  -29.3542    9.9129  -23.0493 C   0  0  0  0  0  0  0  0  0  0  0  0
  -29.8192    9.2701  -24.1048 N   0  0  0  0  0  0  0  0  0  0  0  0
  -31.1066    8.9560  -24.2075 C   0  0  0  0  0  0  0  0  0  0  0  0
  -31.5847    8.2826  -25.3179 N   0  0  0  0  0  0  0  0  0  0  0  0
  -31.1518    9.4017  -18.4465 O   0  0  0  0  0  0  0  0  0  0  0  0
  -31.3369   11.5215  -16.9496 O   0  0  0  0  0  0  0  0  0  0  0  0
  -32.4524   13.7004  -21.3572 H   0  0  0  0  0  0  0  0  0  0  0  0
  -31.0577   14.6983  -21.8775 H   0  0  0  0  0  0  0  0  0  0  0  0
  -32.7099   15.4144  -21.8469 H   0  0  0  0  0  0  0  0  0  0  0  0
  -32.7124   15.1556  -19.4855 H   0  0  0  0  0  0  0  0  0  0  0  0
  -30.6367   16.5753  -18.9623 H   0  0  0  0  0  0  0  0  0  0  0  0
  -30.5420   16.6193  -20.7556 H   0  0  0  0  0  0  0  0  0  0  0  0
  -32.8999   17.4098  -20.8610 H   0  0  0  0  0  0  0  0  0  0  0  0
  -32.9950   17.3671  -19.0676 H   0  0  0  0  0  0  0  0  0  0  0  0
  -30.9997   18.9651  -19.0275 H   0  0  0  0  0  0  0  0  0  0  0  0
  -31.1918   19.1338  -20.8055 H   0  0  0  0  0  0  0  0  0  0  0  0
  -32.9278   20.0384  -18.6429 H   0  0  0  0  0  0  0  0  0  0  0  0
  -32.7629   21.1921  -21.2311 H   0  0  0  0  0  0  0  0  0  0  0  0
  -31.4046   21.2838  -20.2500 H   0  0  0  0  0  0  0  0  0  0  0  0
  -30.5678   14.6006  -18.3269 H   0  0  0  0  0  0  0  0  0  0  0  0
  -30.1178   13.8516  -19.8962 H   0  0  0  0  0  0  0  0  0  0  0  0
  -32.5829   13.2216  -18.2006 H   0  0  0  0  0  0  0  0  0  0  0  0
  -29.8443   12.1573  -18.1807 H   0  0  0  0  0  0  0  0  0  0  0  0
  -30.2168   10.4596  -19.8944 H   0  0  0  0  0  0  0  0  0  0  0  0
  -33.2790   10.5887  -19.3387 H   0  0  0  0  0  0  0  0  0  0  0  0
  -34.6010    9.7385  -21.3358 H   0  0  0  0  0  0  0  0  0  0  0  0
  -28.2817   10.1533  -23.0059 H   0  0  0  0  0  0  0  0  0  0  0  0
  -31.1227    8.4163  -26.2288 H   0  0  0  0  0  0  0  0  0  0  0  0
  -32.3954    7.6526  -25.2362 H   0  0  0  0  0  0  0  0  0  0  0  0
  -30.3309    8.8681  -18.5937 H   0  0  0  0  0  0  0  0  0  0  0  0
  -30.5983   11.0866  -16.4543 H   0  0  0  0  0  0  0  0  0  0  0  0
  1  2  1  0  0  0  0
  1 26  1  0  0  0  0
  1 27  1  0  0  0  0
  1 28  1  0  0  0  0
  2  3  1  0  0  0  0
  2  8  1  0  0  0  0
  2 29  1  0  0  0  0
  3  4  1  0  0  0  0
  3 30  1  0  0  0  0
  3 31  1  0  0  0  0
  4  5  1  0  0  0  0
  4 32  1  0  0  0  0
  4 33  1  0  0  0  0
  5  6  1  0  0  0  0
  5 34  1  0  0  0  0
  5 35  1  0  0  0  0
  6  7  1  0  0  0  0
  6 36  1  0  0  0  0
  7 37  1  0  0  0  0
  7 38  1  0  0  0  0
  8  9  1  0  0  0  0
  8 39  1  0  0  0  0
  8 40  1  0  0  0  0
  9 13  1  0  0  0  0
  9 10  1  0  0  0  0
  9 41  1  0  0  0  0
 10 11  1  0  0  0  0
 10 25  1  0  0  0  0
 10 42  1  0  0  0  0
 11 12  1  0  0  0  0
 11 24  1  0  0  0  0
 11 43  1  0  0  0  0
 12 13  1  0  0  0  0
 12 14  1  0  0  0  0
 12 44  1  0  0  0  0
 14 18  1  0  0  0  0
 14 15  1  0  0  0  0
 15 16  2  0  0  0  0
 15 45  1  0  0  0  0
 16 17  1  0  0  0  0
 17 22  2  0  0  0  0
 17 18  1  0  0  0  0
 18 19  2  0  0  0  0
 19 20  1  0  0  0  0
 20 21  2  0  0  0  0
 20 46  1  0  0  0  0
 21 22  1  0  0  0  0
 22 23  1  0  0  0  0
 23 47  1  0  0  0  0
 23 48  1  0  0  0  0
 24 49  1  0  0  0  0
 25 50  1  0  0  0  0
M  END
> <Name>
ZINC31392821

> <reference>
BDB4942

> <quality>
0.783

> <status>
decoy

> <atoms in reference ligand area>
17

> <score>
-40.8337

$$$$
ZINC32036344
      BALL 1.4.0 (Jan  4 2012, 23:22:29)

 41 43  0999  0  0  0  0  0  0999 V2000
  -32.9441   13.0645  -18.8104 C   0  0  0  0  0  0  0  0  0  0  0  0
  -31.7830   13.5942  -18.5588 N   0  0  0  0  0  0  0  0  0  0  0  0
  -30.9012   13.2264  -19.5207 C   0  0  0  0  0  0  0  0  0  0  0  0
  -31.5944   12.4059  -20.4260 C   0  0  0  0  0  0  0  0  0  0  0  0
  -32.8793   12.3215  -19.9529 N   0  0  0  0  0  0  0  0  0  0  0  0
  -33.9799   11.5707  -20.5623 C   0  0  0  0  0  0  0  0  0  0  0  0
  -33.4844   10.1827  -20.9732 C   0  0  0  0  0  0  0  0  0  0  0  0
  -32.0955   10.2511  -21.3026 O   0  0  0  0  0  0  0  0  0  0  0  0
  -31.5840    9.0649  -21.9136 C   0  0  0  0  0  0  0  0  0  0  0  0
  -31.6280    9.2481  -23.7269 P   0  0  0  0  0  0  0  0  0  0  0  0
  -30.5281    8.4620  -24.3290 O   0  0  0  0  0  0  0  0  0  0  0  0
  -33.0394    8.7122  -24.2863 O   0  5  0  0  0  0  0  0  0  0  0  0
  -31.4521   10.8010  -24.1139 O   0  0  0  0  0  0  0  0  0  0  0  0
  -30.9471   11.9067  -21.4743 N   0  0  0  0  0  0  0  0  0  0  0  0
  -29.6663   12.1773  -21.6659 C   0  0  0  0  0  0  0  0  0  0  0  0
  -28.9732   12.9471  -20.8366 N   0  0  0  0  0  0  0  0  0  0  0  0
  -29.5416   13.4869  -19.7641 C   0  0  0  0  0  0  0  0  0  0  0  0
  -28.8094   14.2839  -18.9019 N   0  0  0  0  0  0  0  0  0  0  0  0
  -29.2922   14.1399  -17.5046 C   0  0  0  0  0  0  0  0  0  0  0  0
  -28.0918   14.6388  -16.6617 C   0  0  0  0  0  0  0  0  0  0  0  0
  -26.8720   14.1082  -17.4492 C   0  0  0  0  0  0  0  0  0  0  0  0
  -27.3879   13.8759  -18.8814 C   0  0  0  0  0  0  0  0  0  0  0  0
  -29.0267   11.6381  -22.7699 N   0  0  0  0  0  0  0  0  0  0  0  0
  -33.8451   13.1962  -18.1932 H   0  0  0  0  0  0  0  0  0  0  0  0
  -34.7995   11.4666  -19.8359 H   0  0  0  0  0  0  0  0  0  0  0  0
  -34.3436   12.1073  -21.4510 H   0  0  0  0  0  0  0  0  0  0  0  0
  -33.6287    9.4800  -20.1393 H   0  0  0  0  0  0  0  0  0  0  0  0
  -34.0514    9.8341  -21.8489 H   0  0  0  0  0  0  0  0  0  0  0  0
  -30.5462    8.9024  -21.5872 H   0  0  0  0  0  0  0  0  0  0  0  0
  -32.2007    8.2035  -21.6179 H   0  0  0  0  0  0  0  0  0  0  0  0
  -32.3414   11.2336  -24.1592 H   0  0  0  0  0  0  0  0  0  0  0  0
  -30.1680   14.7834  -17.3347 H   0  0  0  0  0  0  0  0  0  0  0  0
  -29.5008   13.0838  -17.2783 H   0  0  0  0  0  0  0  0  0  0  0  0
  -28.1191   14.1925  -15.6566 H   0  0  0  0  0  0  0  0  0  0  0  0
  -28.0773   15.7383  -16.6330 H   0  0  0  0  0  0  0  0  0  0  0  0
  -26.5267   13.1582  -17.0154 H   0  0  0  0  0  0  0  0  0  0  0  0
  -26.0710   14.8621  -17.4556 H   0  0  0  0  0  0  0  0  0  0  0  0
  -26.8118   14.4915  -19.5879 H   0  0  0  0  0  0  0  0  0  0  0  0
  -27.3019   12.8099  -19.1389 H   0  0  0  0  0  0  0  0  0  0  0  0
  -28.3173   10.8994  -22.6598 H   0  0  0  0  0  0  0  0  0  0  0  0
  -29.2648   11.9815  -23.7113 H   0  0  0  0  0  0  0  0  0  0  0  0
  1  5  1  0  0  0  0
  1  2  2  0  0  0  0
  1 24  1  0  0  0  0
  2  3  1  0  0  0  0
  3 17  2  0  0  0  0
  3  4  1  0  0  0  0
  4  5  1  0  0  0  0
  4 14  2  0  0  0  0
  5  6  1  0  0  0  0
  6  7  1  0  0  0  0
  6 25  1  0  0  0  0
  6 26  1  0  0  0  0
  7  8  1  0  0  0  0
  7 27  1  0  0  0  0
  7 28  1  0  0  0  0
  8  9  1  0  0  0  0
  9 10  1  0  0  0  0
  9 29  1  0  0  0  0
  9 30  1  0  0  0  0
 10 11  2  0  0  0  0
 10 12  1  0  0  0  0
 10 13  1  0  0  0  0
 13 31  1  0  0  0  0
 14 15  1  0  0  0  0
 15 16  2  0  0  0  0
 15 23  1  0  0  0  0
 16 17  1  0  0  0  0
 17 18  1  0  0  0  0
 18 22  1  0  0  0  0
 18 19  1  0  0  0  0
 19 20  1  0  0  0  0
 19 32  1  0  0  0  0
 19 33  1  0  0  0  0
 20 21  1  0  0  0  0
 20 34  1  0  0  0  0
 20 35  1  0  0  0  0
 21 22  1  0  0  0  0
 21 36  1  0  0  0  0
 21 37  1  0  0  0  0
 22 38  1  0  0  0  0
 22 39  1  0  0  0  0
 23 40  1  0  0  0  0
 23 41  1  0  0  0  0
M  END
> <Name>
ZINC32036344

> <reference>
BDB4942

> <quality>
0.650

> <status>
decoy

> <atoms in reference ligand area>
23

> <score>
-39.9383

$$$$
ZINC01818846
      BALL 1.4.0 (Jan  4 2012, 23:22:29)

 34 34  0999  0  0  0  0  0  0999 V2000
  -35.7597    7.5438  -26.9831 C   0  0  0  0  0  0  0  0  0  0  0  0
  -35.0640    8.3137  -25.8588 C   0  0  0  0  0  0  0  0  0  0  0  0
  -34.2555    7.3404  -24.9985 C   0  0  0  0  0  0  0  0  0  0  0  0
  -33.5703    8.0988  -23.8911 C   0  0  0  0  0  0  0  0  0  0  0  0
  -33.8087    7.8283  -22.7331 O   0  0  0  0  0  0  0  0  0  0  0  0
  -32.6927    9.0777  -24.1876 N   0  0  0  0  0  0  0  0  0  0  0  0
  -32.0556    9.7828  -23.1581 N   0  0  0  0  0  0  0  0  0  0  0  0
  -30.8900   10.4714  -23.4136 C   0  0  0  0  0  0  0  0  0  0  0  0
  -30.0981   11.0300  -22.2919 C   0  0  0  0  0  0  0  0  0  0  0  0
  -28.8309   11.7945  -22.3425 C   0  0  0  0  0  0  0  0  0  0  0  0
  -28.5863   12.0256  -21.0736 N   0  0  0  0  0  0  0  0  0  0  0  0
  -29.4669   11.5452  -20.3999 O   0  0  0  0  0  0  0  0  0  0  0  0
  -30.3441   10.9714  -21.0016 N   0  0  0  0  0  0  0  0  0  0  0  0
  -28.0855   12.1679  -23.4530 N   0  0  0  0  0  0  0  0  0  0  0  0
  -34.8435    7.4902  -28.2073 C   0  0  0  0  0  0  0  0  0  0  0  0
  -35.4241    6.5181  -29.2364 C   0  0  0  0  0  0  0  0  0  0  0  0
  -34.5683    6.4680  -30.3798 O   0  0  0  0  0  0  0  0  0  0  0  0
  -30.4238   10.6681  -24.6361 N   0  0  0  0  0  0  0  0  0  0  0  0
  -35.9797    6.5203  -26.6453 H   0  0  0  0  0  0  0  0  0  0  0  0
  -36.6983    8.0514  -27.2505 H   0  0  0  0  0  0  0  0  0  0  0  0
  -34.3893    9.0664  -26.2926 H   0  0  0  0  0  0  0  0  0  0  0  0
  -35.8186    8.8141  -25.2341 H   0  0  0  0  0  0  0  0  0  0  0  0
  -33.4996    6.8397  -25.6213 H   0  0  0  0  0  0  0  0  0  0  0  0
  -34.9298    6.5876  -24.5640 H   0  0  0  0  0  0  0  0  0  0  0  0
  -32.4904    9.3075  -25.1710 H   0  0  0  0  0  0  0  0  0  0  0  0
  -32.4586    9.7863  -22.2102 H   0  0  0  0  0  0  0  0  0  0  0  0
  -28.6612   12.4739  -24.2504 H   0  0  0  0  0  0  0  0  0  0  0  0
  -27.0568   12.1506  -23.5022 H   0  0  0  0  0  0  0  0  0  0  0  0
  -34.7676    8.4930  -28.6529 H   0  0  0  0  0  0  0  0  0  0  0  0
  -33.8435    7.1473  -27.9035 H   0  0  0  0  0  0  0  0  0  0  0  0
  -36.4238    6.8602  -29.5423 H   0  0  0  0  0  0  0  0  0  0  0  0
  -35.4999    5.5150  -28.7915 H   0  0  0  0  0  0  0  0  0  0  0  0
  -34.7427    7.2522  -30.9585 H   0  0  0  0  0  0  0  0  0  0  0  0
  -30.9645   10.2849  -25.4245 H   0  0  0  0  0  0  0  0  0  0  0  0
  1  2  1  0  0  0  0
  1 15  1  0  0  0  0
  1 19  1  0  0  0  0
  1 20  1  0  0  0  0
  2  3  1  0  0  0  0
  2 21  1  0  0  0  0
  2 22  1  0  0  0  0
  3  4  1  0  0  0  0
  3 23  1  0  0  0  0
  3 24  1  0  0  0  0
  4  5  2  0  0  0  0
  4  6  1  0  0  0  0
  6  7  1  0  0  0  0
  6 25  1  0  0  0  0
  7  8  1  0  0  0  0
  7 26  1  0  0  0  0
  8  9  1  0  0  0  0
  8 18  2  0  0  0  0
  9 13  2  0  0  0  0
  9 10  1  0  0  0  0
 10 11  2  0  0  0  0
 10 14  1  0  0  0  0
 11 12  1  0  0  0  0
 12 13  1  0  0  0  0
 14 27  1  0  0  0  0
 14 28  1  0  0  0  0
 15 16  1  0  0  0  0
 15 29  1  0  0  0  0
 15 30  1  0  0  0  0
 16 17  1  0  0  0  0
 16 31  1  0  0  0  0
 16 32  1  0  0  0  0
 17 33  1  0  0  0  0
 18 34  1  0  0  0  0
M  END
> <Name>
ZINC01818846

> <reference>
BDB5021

> <quality>
0.695

> <status>
decoy

> <atoms in reference ligand area>
10

> <score>
-39.2766

$$$$
ZINC06178420
      BALL 1.4.0 (Jan  4 2012, 23:22:29)

 41 41  0999  0  0  0  0  0  0999 V2000
  -32.7063   11.7616  -19.7217 C   0  0  0  0  0  0  0  0  0  0  0  0
  -31.3165   11.9189  -20.1572 N   0  0  0  0  0  0  0  0  0  0  0  0
  -30.3850   12.5218  -19.3122 C   0  0  0  0  0  0  0  0  0  0  0  0
  -30.7448   13.6325  -18.5578 C   0  0  0  0  0  0  0  0  0  0  0  0
  -29.8215   14.2231  -17.7179 C   0  0  0  0  0  0  0  0  0  0  0  0
  -28.5366   13.7179  -17.6355 C   0  0  0  0  0  0  0  0  0  0  0  0
  -28.1733   12.6163  -18.3888 C   0  0  0  0  0  0  0  0  0  0  0  0
  -29.0926   12.0169  -19.2265 C   0  0  0  0  0  0  0  0  0  0  0  0
  -30.9231   11.4638  -21.4225 N   0  0  0  0  0  0  0  0  0  0  0  0
  -31.6430   10.5779  -22.0486 C   0  0  0  0  0  0  0  0  0  0  0  0
  -31.2323   10.1029  -23.3692 C   0  0  0  0  0  0  0  0  0  0  0  0
  -30.2644   10.6989  -24.0031 N   0  0  0  0  0  0  0  0  0  0  0  0
  -29.7855   10.1689  -25.2083 N   0  0  0  0  0  0  0  0  0  0  0  0
  -31.9298    8.9233  -23.9962 C   0  0  0  0  0  0  0  0  0  0  0  0
  -31.3005    7.6267  -23.4824 C   0  0  0  0  0  0  0  0  0  0  0  0
  -29.7908    7.6602  -23.7280 C   0  0  0  0  0  0  0  0  0  0  0  0
  -29.1018    6.6505  -22.8079 C   0  0  0  0  0  0  0  0  0  0  0  0
  -27.8319    7.1650  -22.4020 O   0  0  0  0  0  0  0  0  0  0  0  0
  -29.5222    7.3236  -25.0906 O   0  0  0  0  0  0  0  0  0  0  0  0
  -31.5526    7.4972  -22.0818 O   0  0  0  0  0  0  0  0  0  0  0  0
  -33.3158    8.9501  -23.6496 O   0  0  0  0  0  0  0  0  0  0  0  0
  -33.0428   12.7783  -19.4704 H   0  0  0  0  0  0  0  0  0  0  0  0
  -32.6472   11.1978  -18.7790 H   0  0  0  0  0  0  0  0  0  0  0  0
  -33.3565   11.2744  -20.4633 H   0  0  0  0  0  0  0  0  0  0  0  0
  -31.7638   14.0404  -18.6299 H   0  0  0  0  0  0  0  0  0  0  0  0
  -30.1082   15.0963  -17.1137 H   0  0  0  0  0  0  0  0  0  0  0  0
  -27.8019   14.1934  -16.9692 H   0  0  0  0  0  0  0  0  0  0  0  0
  -27.1505   12.2173  -18.3205 H   0  0  0  0  0  0  0  0  0  0  0  0
  -28.8028   11.1409  -19.8253 H   0  0  0  0  0  0  0  0  0  0  0  0
  -32.5602   10.1867  -21.5841 H   0  0  0  0  0  0  0  0  0  0  0  0
  -28.7988    9.8852  -25.2902 H   0  0  0  0  0  0  0  0  0  0  0  0
  -30.4202   10.0630  -26.0126 H   0  0  0  0  0  0  0  0  0  0  0  0
  -31.8243    8.9738  -25.0900 H   0  0  0  0  0  0  0  0  0  0  0  0
  -31.7397    6.7700  -24.0147 H   0  0  0  0  0  0  0  0  0  0  0  0
  -29.4074    8.6694  -23.5173 H   0  0  0  0  0  0  0  0  0  0  0  0
  -29.7274    6.4770  -21.9199 H   0  0  0  0  0  0  0  0  0  0  0  0
  -28.9574    5.7018  -23.3457 H   0  0  0  0  0  0  0  0  0  0  0  0
  -27.9580    7.8142  -21.6654 H   0  0  0  0  0  0  0  0  0  0  0  0
  -29.8272    8.0587  -25.6794 H   0  0  0  0  0  0  0  0  0  0  0  0
  -30.8192    7.9249  -21.5726 H   0  0  0  0  0  0  0  0  0  0  0  0
  -33.6861    9.8491  -23.8356 H   0  0  0  0  0  0  0  0  0  0  0  0
  1  2  1  0  0  0  0
  1 22  1  0  0  0  0
  1 23  1  0  0  0  0
  1 24  1  0  0  0  0
  2  3  1  0  0  0  0
  2  9  1  0  0  0  0
  3  8  2  0  0  0  0
  3  4  1  0  0  0  0
  4  5  2  0  0  0  0
  4 25  1  0  0  0  0
  5  6  1  0  0  0  0
  5 26  1  0  0  0  0
  6  7  2  0  0  0  0
  6 27  1  0  0  0  0
  7  8  1  0  0  0  0
  7 28  1  0  0  0  0
  8 29  1  0  0  0  0
  9 10  2  0  0  0  0
 10 11  1  0  0  0  0
 10 30  1  0  0  0  0
 11 12  2  0  0  0  0
 11 14  1  0  0  0  0
 12 13  1  0  0  0  0
 13 31  1  0  0  0  0
 13 32  1  0  0  0  0
 14 15  1  0  0  0  0
 14 21  1  0  0  0  0
 14 33  1  0  0  0  0
 15 16  1  0  0  0  0
 15 20  1  0  0  0  0
 15 34  1  0  0  0  0
 16 17  1  0  0  0  0
 16 19  1  0  0  0  0
 16 35  1  0  0  0  0
 17 18  1  0  0  0  0
 17 36  1  0  0  0  0
 17 37  1  0  0  0  0
 18 38  1  0  0  0  0
 19 39  1  0  0  0  0
 20 40  1  0  0  0  0
 21 41  1  0  0  0  0
M  END
> <Name>
ZINC06178420

> <reference>
BDB5009

> <quality>
0.754

> <status>
decoy

> <atoms in reference ligand area>
19

> <score>
-39.2542

$$$$
ZINC26540596
      BALL 1.4.0 (Jan  4 2012, 23:22:29)

 37 38  0999  0  0  0  0  0  0999 V2000
  -31.6039    9.1627  -15.9425 C   0  0  0  0  0  0  0  0  0  0  0  0
  -31.9765    9.6038  -17.2888 N   0  0  0  0  0  0  0  0  0  0  0  0
  -31.7798    8.9222  -18.4394 C   0  0  0  0  0  0  0  0  0  0  0  0
  -32.2414    9.6332  -19.4312 N   0  0  0  0  0  0  0  0  0  0  0  0
  -32.7444   10.7825  -18.9557 C   0  0  0  0  0  0  0  0  0  0  0  0
  -32.5838   10.7857  -17.6173 C   0  0  0  0  0  0  0  0  0  0  0  0
  -33.0587   12.0452  -16.5210 Cl  0  0  0  0  0  0  0  0  0  0  0  0
  -33.4793   12.0660  -19.9135 S   0  0  0  0  0  0  0  0  0  0  0  0
  -34.3408   12.7824  -19.0397 O   0  0  0  0  0  0  0  0  0  0  0  0
  -33.9421   11.4626  -21.1140 O   0  0  0  0  0  0  0  0  0  0  0  0
  -32.2681   13.1097  -20.3448 N   0  5  0  0  0  0  0  0  0  0  0  0
  -31.2080   12.6610  -21.1420 C   0  0  0  0  0  0  0  0  0  0  0  0
  -31.4368   11.7290  -22.1428 C   0  0  0  0  0  0  0  0  0  0  0  0
  -30.3885   11.2877  -22.9292 C   0  0  0  0  0  0  0  0  0  0  0  0
  -29.1099   11.7688  -22.7173 C   0  0  0  0  0  0  0  0  0  0  0  0
  -28.8738   12.7025  -21.7253 C   0  0  0  0  0  0  0  0  0  0  0  0
  -29.9190   13.1506  -20.9319 C   0  0  0  0  0  0  0  0  0  0  0  0
  -29.6813   14.0923  -19.9233 N   0  0  0  0  0  0  0  0  0  0  0  0
  -29.7793   15.5236  -20.2197 C   0  0  0  0  0  0  0  0  0  0  0  0
  -29.7230   16.3198  -18.9144 C   0  0  0  0  0  0  0  0  0  0  0  0
  -28.3803   16.3389  -18.4257 O   0  0  0  0  0  0  0  0  0  0  0  0
  -30.6351   10.2928  -23.9969 N   0  0  0  0  0  0  0  0  0  0  0  0
  -31.7766    9.9999  -24.3046 O   0  0  0  0  0  0  0  0  0  0  0  0
  -29.6966    9.7706  -24.5712 O   0  0  0  0  0  0  0  0  0  0  0  0
  -31.3060   10.1055  -15.4604 H   0  0  0  0  0  0  0  0  0  0  0  0
  -30.6684    8.6137  -16.1255 H   0  0  0  0  0  0  0  0  0  0  0  0
  -32.3572    8.5905  -15.3813 H   0  0  0  0  0  0  0  0  0  0  0  0
  -31.3086    7.9319  -18.5252 H   0  0  0  0  0  0  0  0  0  0  0  0
  -32.4521   11.3407  -22.3112 H   0  0  0  0  0  0  0  0  0  0  0  0
  -28.2779   11.4077  -23.3397 H   0  0  0  0  0  0  0  0  0  0  0  0
  -27.8567   13.0898  -21.5654 H   0  0  0  0  0  0  0  0  0  0  0  0
  -29.4376   13.7786  -18.9730 H   0  0  0  0  0  0  0  0  0  0  0  0
  -30.7304   15.7287  -20.7327 H   0  0  0  0  0  0  0  0  0  0  0  0
  -28.9416   15.8223  -20.8671 H   0  0  0  0  0  0  0  0  0  0  0  0
  -30.0604   17.3504  -19.0986 H   0  0  0  0  0  0  0  0  0  0  0  0
  -30.3778   15.8476  -18.1671 H   0  0  0  0  0  0  0  0  0  0  0  0
  -27.8596   17.0238  -18.9154 H   0  0  0  0  0  0  0  0  0  0  0  0
  1  2  1  0  0  0  0
  1 25  1  0  0  0  0
  1 26  1  0  0  0  0
  1 27  1  0  0  0  0
  2  6  1  0  0  0  0
  2  3  1  0  0  0  0
  3  4  2  0  0  0  0
  3 28  1  0  0  0  0
  4  5  1  0  0  0  0
  5  6  2  0  0  0  0
  5  8  1  0  0  0  0
  6  7  1  0  0  0  0
  8  9  2  0  0  0  0
  8 10  2  0  0  0  0
  8 11  1  0  0  0  0
 11 12  1  0  0  0  0
 12 17  2  0  0  0  0
 12 13  1  0  0  0  0
 13 14  2  0  0  0  0
 13 29  1  0  0  0  0
 14 15  1  0  0  0  0
 14 22  1  0  0  0  0
 15 16  2  0  0  0  0
 15 30  1  0  0  0  0
 16 17  1  0  0  0  0
 16 31  1  0  0  0  0
 17 18  1  0  0  0  0
 18 19  1  0  0  0  0
 18 32  1  0  0  0  0
 19 20  1  0  0  0  0
 19 33  1  0  0  0  0
 19 34  1  0  0  0  0
 20 21  1  0  0  0  0
 20 35  1  0  0  0  0
 20 36  1  0  0  0  0
 21 37  1  0  0  0  0
 22 23  2  0  0  0  0
 22 24  2  0  0  0  0
M  END
> <Name>
ZINC26540596

> <reference>
BDB4952

> <quality>
0.738

> <status>
decoy

> <atoms in reference ligand area>
18

> <score>
-38.6924

$$$$
ZINC19639944
      BALL 1.4.0 (Jan  4 2012, 23:22:29)

 64 66  0999  0  0  0  0  0  0999 V2000
  -35.8188    8.4083  -28.2014 C   0  0  0  0  0  0  0  0  0  0  0  0
  -35.2185    7.1767  -27.5204 C   0  0  0  0  0  0  0  0  0  0  0  0
  -36.2353    6.5903  -26.5390 C   0  0  0  0  0  0  0  0  0  0  0  0
  -35.4963    5.9163  -25.3811 C   0  0  0  0  0  0  0  0  0  0  0  0
  -35.4807    6.8535  -24.1717 C   0  0  0  0  0  0  0  0  0  0  0  0
  -34.1151    6.7781  -23.4858 C   0  0  0  0  0  0  0  0  0  0  0  0
  -33.7537    8.1516  -22.9169 C   0  0  0  0  0  0  0  0  0  0  0  0
  -32.5851    8.0431  -21.9013 C   0  0  0  0  0  0  0  0  0  0  0  0
  -31.3434    8.0121  -22.8148 C   0  0  0  0  0  0  0  0  0  0  0  0
  -30.3263    9.1139  -22.5296 C   0  0  0  0  0  0  0  0  0  0  0  0
  -30.7711    9.6012  -23.8827 C   0  0  0  0  0  0  0  0  0  0  0  0
  -30.4025   10.5317  -24.5677 O   0  0  0  0  0  0  0  0  0  0  0  0
  -31.7153    8.6586  -24.0801 N   0  0  0  0  0  0  0  0  0  0  0  0
  -33.1346    9.0588  -24.0085 C   0  0  0  0  0  0  0  0  0  0  0  0
  -30.6989   10.0239  -21.3875 C   0  0  0  0  0  0  0  0  0  0  0  0
  -30.9619    9.4932  -20.1383 C   0  0  0  0  0  0  0  0  0  0  0  0
  -31.3037   10.3277  -19.0909 C   0  0  0  0  0  0  0  0  0  0  0  0
  -31.3821   11.6933  -19.2923 C   0  0  0  0  0  0  0  0  0  0  0  0
  -31.1180   12.2240  -20.5408 C   0  0  0  0  0  0  0  0  0  0  0  0
  -30.7723   11.3895  -21.5876 C   0  0  0  0  0  0  0  0  0  0  0  0
  -31.2030   13.7125  -20.7603 C   0  0  0  0  0  0  0  0  0  0  0  0
  -30.3139   14.4180  -19.7689 C   0  0  0  0  0  0  0  0  0  0  0  0
  -30.1678   15.6156  -19.8338 O   0  0  0  0  0  0  0  0  0  0  0  0
  -32.5534   14.1441  -20.5802 O   0  0  0  0  0  0  0  0  0  0  0  0
  -31.7553   12.6032  -18.1504 C   0  0  0  0  0  0  0  0  0  0  0  0
  -31.5912    9.7491  -17.7294 C   0  0  0  0  0  0  0  0  0  0  0  0
  -28.9701    8.6664  -22.4803 O   0  0  0  0  0  0  0  0  0  0  0  0
  -34.9751    8.8161  -22.2784 C   0  0  0  0  0  0  0  0  0  0  0  0
  -29.6842   13.7158  -18.8139 O   0  5  0  0  0  0  0  0  0  0  0  0
  -35.9603    9.1170  -23.3321 N   0  3  0  0  0  0  0  0  0  0  0  0
  -36.4896    8.0896  -29.0129 H   0  0  0  0  0  0  0  0  0  0  0  0
  -35.0112    9.0291  -28.6166 H   0  0  0  0  0  0  0  0  0  0  0  0
  -36.3886    8.9941  -27.4651 H   0  0  0  0  0  0  0  0  0  0  0  0
  -34.9671    6.4230  -28.2810 H   0  0  0  0  0  0  0  0  0  0  0  0
  -34.3079    7.4652  -26.9749 H   0  0  0  0  0  0  0  0  0  0  0  0
  -36.8732    7.3960  -26.1467 H   0  0  0  0  0  0  0  0  0  0  0  0
  -36.8597    5.8472  -27.0566 H   0  0  0  0  0  0  0  0  0  0  0  0
  -36.0098    4.9812  -25.1131 H   0  0  0  0  0  0  0  0  0  0  0  0
  -34.4628    5.6932  -25.6846 H   0  0  0  0  0  0  0  0  0  0  0  0
  -36.2642    6.5505  -23.4615 H   0  0  0  0  0  0  0  0  0  0  0  0
  -35.6667    7.8852  -24.5047 H   0  0  0  0  0  0  0  0  0  0  0  0
  -33.3525    6.4727  -24.2173 H   0  0  0  0  0  0  0  0  0  0  0  0
  -34.1551    6.0425  -22.6689 H   0  0  0  0  0  0  0  0  0  0  0  0
  -32.6611    7.1062  -21.3300 H   0  0  0  0  0  0  0  0  0  0  0  0
  -32.5594    8.9317  -21.2534 H   0  0  0  0  0  0  0  0  0  0  0  0
  -30.9978    6.9704  -22.7425 H   0  0  0  0  0  0  0  0  0  0  0  0
  -33.6278    8.8751  -24.9743 H   0  0  0  0  0  0  0  0  0  0  0  0
  -33.2141   10.1148  -23.7107 H   0  0  0  0  0  0  0  0  0  0  0  0
  -30.8990    8.4068  -19.9780 H   0  0  0  0  0  0  0  0  0  0  0  0
  -30.5556   11.8124  -22.5797 H   0  0  0  0  0  0  0  0  0  0  0  0
  -30.8747   13.9518  -21.7825 H   0  0  0  0  0  0  0  0  0  0  0  0
  -32.8826   14.5588  -21.4168 H   0  0  0  0  0  0  0  0  0  0  0  0
  -32.3695   13.3946  -18.6046 H   0  0  0  0  0  0  0  0  0  0  0  0
  -30.8095   13.0670  -17.8337 H   0  0  0  0  0  0  0  0  0  0  0  0
  -32.2710   12.0919  -17.3242 H   0  0  0  0  0  0  0  0  0  0  0  0
  -32.1151   10.5480  -17.1842 H   0  0  0  0  0  0  0  0  0  0  0  0
  -30.6054    9.6255  -17.2573 H   0  0  0  0  0  0  0  0  0  0  0  0
  -32.1655    8.8114  -17.7566 H   0  0  0  0  0  0  0  0  0  0  0  0
  -28.6135    8.9055  -21.5883 H   0  0  0  0  0  0  0  0  0  0  0  0
  -34.6705    9.7496  -21.7828 H   0  0  0  0  0  0  0  0  0  0  0  0
  -35.4223    8.1331  -21.5411 H   0  0  0  0  0  0  0  0  0  0  0  0
  -36.1370   10.1312  -23.3648 H   0  0  0  0  0  0  0  0  0  0  0  0
  -36.8410    8.6194  -23.1383 H   0  0  0  0  0  0  0  0  0  0  0  0
  -35.5893    8.8079  -24.2419 H   0  0  0  0  0  0  0  0  0  0  0  0
  1  2  1  0  0  0  0
  1 31  1  0  0  0  0
  1 32  1  0  0  0  0
  1 33  1  0  0  0  0
  2  3  1  0  0  0  0
  2 34  1  0  0  0  0
  2 35  1  0  0  0  0
  3  4  1  0  0  0  0
  3 36  1  0  0  0  0
  3 37  1  0  0  0  0
  4  5  1  0  0  0  0
  4 38  1  0  0  0  0
  4 39  1  0  0  0  0
  5  6  1  0  0  0  0
  5 40  1  0  0  0  0
  5 41  1  0  0  0  0
  6  7  1  0  0  0  0
  6 42  1  0  0  0  0
  6 43  1  0  0  0  0
  7 14  1  0  0  0  0
  7  8  1  0  0  0  0
  7 28  1  0  0  0  0
  8  9  1  0  0  0  0
  8 44  1  0  0  0  0
  8 45  1  0  0  0  0
  9 13  1  0  0  0  0
  9 10  1  0  0  0  0
  9 46  1  0  0  0  0
 10 11  1  0  0  0  0
 10 15  1  0  0  0  0
 10 27  1  0  0  0  0
 11 12  2  0  0  0  0
 11 13  1  0  0  0  0
 13 14  1  0  0  0  0
 14 47  1  0  0  0  0
 14 48  1  0  0  0  0
 15 20  2  0  0  0  0
 15 16  1  0  0  0  0
 16 17  2  0  0  0  0
 16 49  1  0  0  0  0
 17 18  1  0  0  0  0
 17 26  1  0  0  0  0
 18 19  2  0  0  0  0
 18 25  1  0  0  0  0
 19 20  1  0  0  0  0
 19 21  1  0  0  0  0
 20 50  1  0  0  0  0
 21 22  1  0  0  0  0
 21 24  1  0  0  0  0
 21 51  1  0  0  0  0
 22 23  2  0  0  0  0
 22 29  1  0  0  0  0
 24 52  1  0  0  0  0
 25 53  1  0  0  0  0
 25 54  1  0  0  0  0
 25 55  1  0  0  0  0
 26 56  1  0  0  0  0
 26 57  1  0  0  0  0
 26 58  1  0  0  0  0
 27 59  1  0  0  0  0
 28 30  1  0  0  0  0
 28 60  1  0  0  0  0
 28 61  1  0  0  0  0
 30 62  1  0  0  0  0
 30 63  1  0  0  0  0
 30 64  1  0  0  0  0
M  END
> <Name>
ZINC19639944

> <reference>
BDB4965

> <quality>
0.776

> <status>
decoy

> <atoms in reference ligand area>
16

> <score>
-38.1931

$$$$
ZINC05974537
      BALL 1.4.0 (Jan  4 2012, 23:22:29)

 35 36  0999  0  0  0  0  0  0999 V2000
  -33.3193   13.0202  -18.1624 C   0  0  0  0  0  0  0  0  0  0  0  0
  -33.2788   13.6585  -19.3879 C   0  0  0  0  0  0  0  0  0  0  0  0
  -33.0588   12.9281  -20.5407 C   0  0  0  0  0  0  0  0  0  0  0  0
  -32.8797   11.5594  -20.4681 C   0  0  0  0  0  0  0  0  0  0  0  0
  -32.9259   10.9202  -19.2432 C   0  0  0  0  0  0  0  0  0  0  0  0
  -33.1402   11.6514  -18.0897 C   0  0  0  0  0  0  0  0  0  0  0  0
  -32.6402   10.7630  -21.7249 C   0  0  0  0  0  0  0  0  0  0  0  0
  -30.3102   10.8349  -22.3795 C   0  0  0  0  0  0  0  0  0  0  0  0
  -30.4469   12.3260  -22.0654 C   0  0  0  0  0  0  0  0  0  0  0  0
  -29.2100   12.8040  -21.3494 C   0  0  0  0  0  0  0  0  0  0  0  0
  -28.3095   13.7061  -21.8126 C   0  0  0  0  0  0  0  0  0  0  0  0
  -27.3619   13.8629  -20.8921 N   0  0  0  0  0  0  0  0  0  0  0  0
  -27.6314   13.0903  -19.8606 C   0  0  0  0  0  0  0  0  0  0  0  0
  -28.7928   12.4177  -20.1210 N   0  0  0  0  0  0  0  0  0  0  0  0
  -26.8240   12.9752  -18.6344 C   0  0  0  0  0  0  0  0  0  0  0  0
  -25.6109   12.9656  -18.7043 O   0  0  0  0  0  0  0  0  0  0  0  0
  -30.5093   10.6125  -23.8567 C   0  0  0  0  0  0  0  0  0  0  0  0
  -29.5524   10.4704  -24.5805 O   0  0  0  0  0  0  0  0  0  0  0  0
  -31.3336   10.0857  -21.6263 N   0  3  0  0  0  0  0  0  0  0  0  0
  -27.4308   12.8807  -17.4344 O   0  5  0  0  0  0  0  0  0  0  0  0
  -31.7496   10.5723  -24.3682 O   0  5  0  0  0  0  0  0  0  0  0  0
  -33.4941   13.6015  -17.2450 H   0  0  0  0  0  0  0  0  0  0  0  0
  -33.4217   14.7477  -19.4457 H   0  0  0  0  0  0  0  0  0  0  0  0
  -33.0262   13.4360  -21.5158 H   0  0  0  0  0  0  0  0  0  0  0  0
  -32.7920    9.8299  -19.1863 H   0  0  0  0  0  0  0  0  0  0  0  0
  -33.1683   11.1441  -17.1141 H   0  0  0  0  0  0  0  0  0  0  0  0
  -33.4352   10.0117  -21.8411 H   0  0  0  0  0  0  0  0  0  0  0  0
  -32.6392   11.4374  -22.5939 H   0  0  0  0  0  0  0  0  0  0  0  0
  -29.3081   10.4855  -22.0901 H   0  0  0  0  0  0  0  0  0  0  0  0
  -30.5679   12.8888  -23.0028 H   0  0  0  0  0  0  0  0  0  0  0  0
  -31.3262   12.4878  -21.4245 H   0  0  0  0  0  0  0  0  0  0  0  0
  -28.3549   14.2205  -22.7839 H   0  0  0  0  0  0  0  0  0  0  0  0
  -29.2621   11.7438  -19.4994 H   0  0  0  0  0  0  0  0  0  0  0  0
  -31.0534   10.0265  -20.6370 H   0  0  0  0  0  0  0  0  0  0  0  0
  -31.4114    9.1338  -22.0121 H   0  0  0  0  0  0  0  0  0  0  0  0
  1  6  2  0  0  0  0
  1  2  1  0  0  0  0
  1 22  1  0  0  0  0
  2  3  2  0  0  0  0
  2 23  1  0  0  0  0
  3  4  1  0  0  0  0
  3 24  1  0  0  0  0
  4  5  2  0  0  0  0
  4  7  1  0  0  0  0
  5  6  1  0  0  0  0
  5 25  1  0  0  0  0
  6 26  1  0  0  0  0
  7 19  1  0  0  0  0
  7 27  1  0  0  0  0
  7 28  1  0  0  0  0
  8  9  1  0  0  0  0
  8 17  1  0  0  0  0
  8 19  1  0  0  0  0
  8 29  1  0  0  0  0
  9 10  1  0  0  0  0
  9 30  1  0  0  0  0
  9 31  1  0  0  0  0
 10 14  1  0  0  0  0
 10 11  2  0  0  0  0
 11 12  1  0  0  0  0
 11 32  1  0  0  0  0
 12 13  2  0  0  0  0
 13 14  1  0  0  0  0
 13 15  1  0  0  0  0
 14 33  1  0  0  0  0
 15 16  2  0  0  0  0
 15 20  1  0  0  0  0
 17 18  2  0  0  0  0
 17 21  1  0  0  0  0
 19 34  1  0  0  0  0
 19 35  1  0  0  0  0
M  END
> <Name>
ZINC05974537

> <reference>
BDB5009

> <quality>
0.774

> <status>
decoy

> <atoms in reference ligand area>
26

> <score>
-37.6309

$$$$
ZINC05637890
      BALL 1.4.0 (Jan  4 2012, 23:22:29)

 41 42  0999  0  0  0  0  0  0999 V2000
  -30.4401    9.2838  -21.4257 C   0  0  0  0  0  0  0  0  0  0  0  0
  -30.8884    9.4455  -20.1293 C   0  0  0  0  0  0  0  0  0  0  0  0
  -32.1806    9.8975  -19.8943 C   0  0  0  0  0  0  0  0  0  0  0  0
  -33.0160   10.1908  -20.9649 C   0  0  0  0  0  0  0  0  0  0  0  0
  -32.5595   10.0323  -22.2584 C   0  0  0  0  0  0  0  0  0  0  0  0
  -31.2723    9.5820  -22.4889 C   0  0  0  0  0  0  0  0  0  0  0  0
  -30.6939    9.3811  -24.1410 S   0  0  0  0  0  0  0  0  0  0  0  0
  -30.8585   10.6374  -24.7845 O   0  0  0  0  0  0  0  0  0  0  0  0
  -31.2859    8.1881  -24.6364 O   0  0  0  0  0  0  0  0  0  0  0  0
  -29.0637    9.1017  -24.0585 N   0  0  0  0  0  0  0  0  0  0  0  0
  -34.3935   10.6731  -20.7192 N   0  0  0  0  0  0  0  0  0  0  0  0
  -34.5794   11.8116  -20.3285 O   0  0  0  0  0  0  0  0  0  0  0  0
  -35.3411    9.9314  -20.9078 O   0  0  0  0  0  0  0  0  0  0  0  0
  -32.6388   10.0571  -18.5845 N   0  0  0  0  0  0  0  0  0  0  0  0
  -32.5749   11.3718  -17.9412 C   0  0  0  0  0  0  0  0  0  0  0  0
  -31.3888   12.1577  -18.5038 C   0  0  0  0  0  0  0  0  0  0  0  0
  -30.4216   12.5028  -17.3698 C   0  0  0  0  0  0  0  0  0  0  0  0
  -29.5682   13.6210  -17.7790 N   0  0  0  0  0  0  0  0  0  0  0  0
  -30.0676   14.9471  -18.1613 C   0  0  0  0  0  0  0  0  0  0  0  0
  -28.8420   15.8868  -18.0780 C   0  0  0  0  0  0  0  0  0  0  0  0
  -27.6740   14.8986  -18.3027 C   0  0  0  0  0  0  0  0  0  0  0  0
  -28.2277   13.5627  -17.8581 C   0  0  0  0  0  0  0  0  0  0  0  0
  -27.5592   12.5816  -17.6098 O   0  0  0  0  0  0  0  0  0  0  0  0
  -29.4199    8.9173  -21.6125 H   0  0  0  0  0  0  0  0  0  0  0  0
  -30.2229    9.2166  -19.2839 H   0  0  0  0  0  0  0  0  0  0  0  0
  -33.2204   10.2643  -23.1066 H   0  0  0  0  0  0  0  0  0  0  0  0
  -28.4457    9.4317  -24.8136 H   0  0  0  0  0  0  0  0  0  0  0  0
  -28.6677    8.5979  -23.2521 H   0  0  0  0  0  0  0  0  0  0  0  0
  -33.0218    9.2505  -18.0710 H   0  0  0  0  0  0  0  0  0  0  0  0
  -33.5061   11.9227  -18.1392 H   0  0  0  0  0  0  0  0  0  0  0  0
  -32.4477   11.2444  -16.8560 H   0  0  0  0  0  0  0  0  0  0  0  0
  -30.8679   11.5472  -19.2562 H   0  0  0  0  0  0  0  0  0  0  0  0
  -31.7508   13.0854  -18.9712 H   0  0  0  0  0  0  0  0  0  0  0  0
  -29.7946   11.6282  -17.1422 H   0  0  0  0  0  0  0  0  0  0  0  0
  -30.9933   12.7873  -16.4740 H   0  0  0  0  0  0  0  0  0  0  0  0
  -30.8421   15.2783  -17.4538 H   0  0  0  0  0  0  0  0  0  0  0  0
  -30.4520   14.9231  -19.1917 H   0  0  0  0  0  0  0  0  0  0  0  0
  -28.8742   16.6315  -18.8869 H   0  0  0  0  0  0  0  0  0  0  0  0
  -28.7726   16.3401  -17.0783 H   0  0  0  0  0  0  0  0  0  0  0  0
  -26.8142   15.1792  -17.6765 H   0  0  0  0  0  0  0  0  0  0  0  0
  -27.4091   14.8625  -19.3697 H   0  0  0  0  0  0  0  0  0  0  0  0
  1  6  2  0  0  0  0
  1  2  1  0  0  0  0
  1 24  1  0  0  0  0
  2  3  2  0  0  0  0
  2 25  1  0  0  0  0
  3  4  1  0  0  0  0
  3 14  1  0  0  0  0
  4  5  2  0  0  0  0
  4 11  1  0  0  0  0
  5  6  1  0  0  0  0
  5 26  1  0  0  0  0
  6  7  1  0  0  0  0
  7  8  2  0  0  0  0
  7  9  2  0  0  0  0
  7 10  1  0  0  0  0
 10 27  1  0  0  0  0
 10 28  1  0  0  0  0
 11 12  2  0  0  0  0
 11 13  2  0  0  0  0
 14 15  1  0  0  0  0
 14 29  1  0  0  0  0
 15 16  1  0  0  0  0
 15 30  1  0  0  0  0
 15 31  1  0  0  0  0
 16 17  1  0  0  0  0
 16 32  1  0  0  0  0
 16 33  1  0  0  0  0
 17 18  1  0  0  0  0
 17 34  1  0  0  0  0
 17 35  1  0  0  0  0
 18 22  1  0  0  0  0
 18 19  1  0  0  0  0
 19 20  1  0  0  0  0
 19 36  1  0  0  0  0
 19 37  1  0  0  0  0
 20 21  1  0  0  0  0
 20 38  1  0  0  0  0
 20 39  1  0  0  0  0
 21 22  1  0  0  0  0
 21 40  1  0  0  0  0
 21 41  1  0  0  0  0
 22 23  2  0  0  0  0
M  END
> <Name>
ZINC05637890

> <reference>
BDB5244

> <quality>
0.665

> <status>
decoy

> <atoms in reference ligand area>
11

> <score>
-37.1227

$$$$
ZINC00531613
      BALL 1.4.0 (Jan  4 2012, 23:22:29)

 36 37  0999  0  0  0  0  0  0999 V2000
  -30.0031   16.2122  -20.2694 C   0  0  0  0  0  0  0  0  0  0  0  0
  -30.6523   15.0249  -19.8104 O   0  0  0  0  0  0  0  0  0  0  0  0
  -30.5814   13.9319  -20.6159 C   0  0  0  0  0  0  0  0  0  0  0  0
  -31.7445   13.3561  -21.1050 C   0  0  0  0  0  0  0  0  0  0  0  0
  -31.6778   12.2470  -21.9225 C   0  0  0  0  0  0  0  0  0  0  0  0
  -30.4378   11.7017  -22.2593 C   0  0  0  0  0  0  0  0  0  0  0  0
  -29.2673   12.2776  -21.7623 C   0  0  0  0  0  0  0  0  0  0  0  0
  -29.3408   13.3929  -20.9483 C   0  0  0  0  0  0  0  0  0  0  0  0
  -28.2021   13.9601  -20.4674 O   0  0  0  0  0  0  0  0  0  0  0  0
  -27.2645   14.4484  -21.4288 C   0  0  0  0  0  0  0  0  0  0  0  0
  -30.3645   10.5133  -23.1353 C   0  0  0  0  0  0  0  0  0  0  0  0
  -29.3517   10.1647  -23.8943 N   0  0  0  0  0  0  0  0  0  0  0  0
  -29.6274    9.0778  -24.5219 N   0  0  0  0  0  0  0  0  0  0  0  0
  -30.8311    8.6622  -24.1978 C   0  0  0  0  0  0  0  0  0  0  0  0
  -31.3448    9.5638  -23.3091 N   0  0  0  0  0  0  0  0  0  0  0  0
  -32.5734    9.5270  -22.7128 N   0  0  0  0  0  0  0  0  0  0  0  0
  -31.6347    7.2145  -24.8004 S   0  0  0  0  0  0  0  0  0  0  0  0
  -33.3570    7.6374  -24.4385 C   0  0  0  0  0  0  0  0  0  0  0  0
  -34.0929    7.8941  -25.7284 C   0  0  0  0  0  0  0  0  0  0  0  0
  -35.1256    8.5299  -25.7213 O   0  0  0  0  0  0  0  0  0  0  0  0
  -33.6034    7.4169  -26.8899 N   0  0  0  0  0  0  0  0  0  0  0  0
  -28.9226   16.0327  -20.1681 H   0  0  0  0  0  0  0  0  0  0  0  0
  -30.2805   17.0089  -19.5635 H   0  0  0  0  0  0  0  0  0  0  0  0
  -30.2753   16.4736  -21.3027 H   0  0  0  0  0  0  0  0  0  0  0  0
  -32.7224   13.7849  -20.8405 H   0  0  0  0  0  0  0  0  0  0  0  0
  -32.6019   11.7923  -22.3090 H   0  0  0  0  0  0  0  0  0  0  0  0
  -28.2886   11.8451  -22.0178 H   0  0  0  0  0  0  0  0  0  0  0  0
  -26.5418   15.0627  -20.8717 H   0  0  0  0  0  0  0  0  0  0  0  0
  -27.8275   15.1146  -22.0992 H   0  0  0  0  0  0  0  0  0  0  0  0
  -26.7659   13.6410  -21.9852 H   0  0  0  0  0  0  0  0  0  0  0  0
  -33.2803   10.1430  -23.1391 H   0  0  0  0  0  0  0  0  0  0  0  0
  -32.7958    8.9360  -21.8992 H   0  0  0  0  0  0  0  0  0  0  0  0
  -33.3900    8.5411  -23.8123 H   0  0  0  0  0  0  0  0  0  0  0  0
  -33.8350    6.8032  -23.9041 H   0  0  0  0  0  0  0  0  0  0  0  0
  -32.9529    7.9881  -27.4481 H   0  0  0  0  0  0  0  0  0  0  0  0
  -33.8797    6.4810  -27.2192 H   0  0  0  0  0  0  0  0  0  0  0  0
  1  2  1  0  0  0  0
  1 22  1  0  0  0  0
  1 23  1  0  0  0  0
  1 24  1  0  0  0  0
  2  3  1  0  0  0  0
  3  8  2  0  0  0  0
  3  4  1  0  0  0  0
  4  5  2  0  0  0  0
  4 25  1  0  0  0  0
  5  6  1  0  0  0  0
  5 26  1  0  0  0  0
  6  7  2  0  0  0  0
  6 11  1  0  0  0  0
  7  8  1  0  0  0  0
  7 27  1  0  0  0  0
  8  9  1  0  0  0  0
  9 10  1  0  0  0  0
 10 28  1  0  0  0  0
 10 29  1  0  0  0  0
 10 30  1  0  0  0  0
 11 15  1  0  0  0  0
 11 12  2  0  0  0  0
 12 13  1  0  0  0  0
 13 14  2  0  0  0  0
 14 15  1  0  0  0  0
 14 17  1  0  0  0  0
 15 16  1  0  0  0  0
 16 31  1  0  0  0  0
 16 32  1  0  0  0  0
 17 18  1  0  0  0  0
 18 19  1  0  0  0  0
 18 33  1  0  0  0  0
 18 34  1  0  0  0  0
 19 20  2  0  0  0  0
 19 21  1  0  0  0  0
 21 35  1  0  0  0  0
 21 36  1  0  0  0  0
M  END
> <Name>
ZINC00531613

> <reference>
BDB5199

> <quality>
0.762

> <status>
decoy

> <atoms in reference ligand area>
15

> <score>
-36.7818

$$$$
ZINC01591785
      BALL 1.4.0 (Jan  4 2012, 23:22:29)

 37 37  0999  0  0  0  0  0  0999 V2000
  -30.4445   10.7720  -24.0424 C   0  0  0  0  0  0  0  0  0  0  0  0
  -29.5195   10.2729  -24.9287 N   0  0  0  0  0  0  0  0  0  0  0  0
  -30.0550   11.1377  -22.7756 N   0  0  0  0  0  0  0  0  0  0  0  0
  -30.9831   11.8633  -21.9048 C   0  0  0  0  0  0  0  0  0  0  0  0
  -31.2422   11.0433  -20.6394 C   0  0  0  0  0  0  0  0  0  0  0  0
  -32.5393   11.5174  -19.9809 C   0  0  0  0  0  0  0  0  0  0  0  0
  -32.2396   12.0188  -18.5668 C   0  0  0  0  0  0  0  0  0  0  0  0
  -32.5243   13.4965  -18.4871 C   0  0  0  0  0  0  0  0  0  0  0  0
  -33.5600   13.8870  -18.0028 O   0  0  0  0  0  0  0  0  0  0  0  0
  -33.0856   11.3061  -17.6063 N   0  0  0  0  0  0  0  0  0  0  0  0
  -33.4539   11.8888  -16.5123 C   0  0  0  0  0  0  0  0  0  0  0  0
  -34.3064   11.1706  -15.5444 C   0  0  0  0  0  0  0  0  0  0  0  0
  -34.2271    9.7807  -15.4362 C   0  0  0  0  0  0  0  0  0  0  0  0
  -35.0227    9.1165  -14.5258 C   0  0  0  0  0  0  0  0  0  0  0  0
  -35.9060    9.8233  -13.7291 C   0  0  0  0  0  0  0  0  0  0  0  0
  -35.9935   11.2000  -13.8348 C   0  0  0  0  0  0  0  0  0  0  0  0
  -35.1996   11.8775  -14.7370 C   0  0  0  0  0  0  0  0  0  0  0  0
  -31.7249   10.9252  -24.3473 N   0  3  0  0  0  0  0  0  0  0  0  0
  -31.6270   14.3791  -18.9541 O   0  5  0  0  0  0  0  0  0  0  0  0
  -29.8308    9.8566  -25.8180 H   0  0  0  0  0  0  0  0  0  0  0  0
  -28.5153   10.3152  -24.7035 H   0  0  0  0  0  0  0  0  0  0  0  0
  -29.1107   10.9015  -22.4387 H   0  0  0  0  0  0  0  0  0  0  0  0
  -30.5446   12.8337  -21.6289 H   0  0  0  0  0  0  0  0  0  0  0  0
  -31.9327   12.0276  -22.4352 H   0  0  0  0  0  0  0  0  0  0  0  0
  -31.3334    9.9795  -20.9040 H   0  0  0  0  0  0  0  0  0  0  0  0
  -30.4058   11.1760  -19.9375 H   0  0  0  0  0  0  0  0  0  0  0  0
  -33.2525   10.6815  -19.9293 H   0  0  0  0  0  0  0  0  0  0  0  0
  -32.9746   12.3348  -20.5746 H   0  0  0  0  0  0  0  0  0  0  0  0
  -31.1812   11.8358  -18.3296 H   0  0  0  0  0  0  0  0  0  0  0  0
  -33.1321   12.9196  -16.3028 H   0  0  0  0  0  0  0  0  0  0  0  0
  -33.5317    9.2168  -16.0753 H   0  0  0  0  0  0  0  0  0  0  0  0
  -34.9548    8.0225  -14.4332 H   0  0  0  0  0  0  0  0  0  0  0  0
  -36.5416    9.2881  -13.0082 H   0  0  0  0  0  0  0  0  0  0  0  0
  -36.6977   11.7556  -13.1981 H   0  0  0  0  0  0  0  0  0  0  0  0
  -35.2702   12.9721  -14.8201 H   0  0  0  0  0  0  0  0  0  0  0  0
  -32.0299   10.6551  -25.2933 H   0  0  0  0  0  0  0  0  0  0  0  0
  -32.3996   11.3014  -23.6660 H   0  0  0  0  0  0  0  0  0  0  0  0
  1  2  1  0  0  0  0
  1  3  1  0  0  0  0
  1 18  2  0  0  0  0
  2 20  1  0  0  0  0
  2 21  1  0  0  0  0
  3  4  1  0  0  0  0
  3 22  1  0  0  0  0
  4  5  1  0  0  0  0
  4 23  1  0  0  0  0
  4 24  1  0  0  0  0
  5  6  1  0  0  0  0
  5 25  1  0  0  0  0
  5 26  1  0  0  0  0
  6  7  1  0  0  0  0
  6 27  1  0  0  0  0
  6 28  1  0  0  0  0
  7  8  1  0  0  0  0
  7 10  1  0  0  0  0
  7 29  1  0  0  0  0
  8  9  2  0  0  0  0
  8 19  1  0  0  0  0
 10 11  2  0  0  0  0
 11 12  1  0  0  0  0
 11 30  1  0  0  0  0
 12 17  2  0  0  0  0
 12 13  1  0  0  0  0
 13 14  2  0  0  0  0
 13 31  1  0  0  0  0
 14 15  1  0  0  0  0
 14 32  1  0  0  0  0
 15 16  2  0  0  0  0
 15 33  1  0  0  0  0
 16 17  1  0  0  0  0
 16 34  1  0  0  0  0
 17 35  1  0  0  0  0
 18 36  1  0  0  0  0
 18 37  1  0  0  0  0
M  END
> <Name>
ZINC01591785

> <reference>
BDB4986

> <quality>
0.745

> <status>
decoy

> <atoms in reference ligand area>
21

> <score>
-36.6739

$$$$
ZINC05521415
      BALL 1.4.0 (Jan  4 2012, 23:22:29)

 30 31  0999  0  0  0  0  0  0999 V2000
  -26.6630   13.2585  -18.5334 C   0  0  0  0  0  0  0  0  0  0  0  0
  -27.2487   13.5716  -19.7128 C   0  0  0  0  0  0  0  0  0  0  0  0
  -28.5468   13.2076  -19.5974 N   0  0  0  0  0  0  0  0  0  0  0  0
  -28.7216   12.7023  -18.4266 N   0  0  0  0  0  0  0  0  0  0  0  0
  -27.6172   12.7181  -17.7671 N   0  0  0  0  0  0  0  0  0  0  0  0
  -29.5752   13.3572  -20.6300 C   0  0  0  0  0  0  0  0  0  0  0  0
  -30.9834   13.3503  -19.9949 C   0  0  0  0  0  0  0  0  0  0  0  0
  -31.8519   12.5813  -21.0155 C   0  0  0  0  0  0  0  0  0  0  0  0
  -30.8657   12.2146  -22.1466 C   0  0  0  0  0  0  0  0  0  0  0  0
  -29.5654   12.2182  -21.5180 O   0  0  0  0  0  0  0  0  0  0  0  0
  -31.1838   10.8258  -22.7044 C   0  0  0  0  0  0  0  0  0  0  0  0
  -31.5678   10.9399  -24.0760 O   0  0  0  0  0  0  0  0  0  0  0  0
  -32.3946   11.4001  -20.4219 O   0  0  0  0  0  0  0  0  0  0  0  0
  -30.9633   12.6675  -18.7397 O   0  0  0  0  0  0  0  0  0  0  0  0
  -26.5885   14.2015  -20.9121 C   0  0  0  0  0  0  0  0  0  0  0  0
  -27.4566   14.0509  -22.0826 N   0  0  0  0  0  0  0  0  0  0  0  0
  -27.7458   13.0250  -22.4394 N   0  3  0  0  0  0  0  0  0  0  0  0
  -28.0351   11.9992  -22.7961 N   0  5  0  0  0  0  0  0  0  0  0  0
  -25.6097   13.4172  -18.2590 H   0  0  0  0  0  0  0  0  0  0  0  0
  -29.3620   14.2988  -21.1571 H   0  0  0  0  0  0  0  0  0  0  0  0
  -31.3626   14.3630  -19.7932 H   0  0  0  0  0  0  0  0  0  0  0  0
  -32.7078   13.1720  -21.3740 H   0  0  0  0  0  0  0  0  0  0  0  0
  -30.9225   12.9170  -22.9912 H   0  0  0  0  0  0  0  0  0  0  0  0
  -30.2924   10.1859  -22.6257 H   0  0  0  0  0  0  0  0  0  0  0  0
  -32.0081   10.3785  -22.1295 H   0  0  0  0  0  0  0  0  0  0  0  0
  -32.2640   11.6378  -24.1678 H   0  0  0  0  0  0  0  0  0  0  0  0
  -33.0749   11.0161  -21.0300 H   0  0  0  0  0  0  0  0  0  0  0  0
  -31.8936   12.5396  -18.4264 H   0  0  0  0  0  0  0  0  0  0  0  0
  -25.6255   13.7059  -21.1045 H   0  0  0  0  0  0  0  0  0  0  0  0
  -26.4182   15.2708  -20.7177 H   0  0  0  0  0  0  0  0  0  0  0  0
  1  5  1  0  0  0  0
  1  2  2  0  0  0  0
  1 19  1  0  0  0  0
  2  3  1  0  0  0  0
  2 15  1  0  0  0  0
  3  4  1  0  0  0  0
  3  6  1  0  0  0  0
  4  5  2  0  0  0  0
  6 10  1  0  0  0  0
  6  7  1  0  0  0  0
  6 20  1  0  0  0  0
  7  8  1  0  0  0  0
  7 14  1  0  0  0  0
  7 21  1  0  0  0  0
  8  9  1  0  0  0  0
  8 13  1  0  0  0  0
  8 22  1  0  0  0  0
  9 10  1  0  0  0  0
  9 11  1  0  0  0  0
  9 23  1  0  0  0  0
 11 12  1  0  0  0  0
 11 24  1  0  0  0  0
 11 25  1  0  0  0  0
 12 26  1  0  0  0  0
 13 27  1  0  0  0  0
 14 28  1  0  0  0  0
 15 16  1  0  0  0  0
 15 29  1  0  0  0  0
 15 30  1  0  0  0  0
 16 17  2  0  0  0  0
 17 18  2  0  0  0  0
M  END
> <Name>
ZINC05521415

> <reference>
BDB5233

> <quality>
0.733

> <status>
decoy

> <atoms in reference ligand area>
29

> <score>
-36.6511

$$$$
ZINC19751955
      BALL 1.4.0 (Jan  4 2012, 23:22:29)

 34 35  0999  0  0  0  0  0  0999 V2000
  -25.0045   13.4839  -20.5141 C   0  0  0  0  0  0  0  0  0  0  0  0
  -26.1021   14.1678  -19.9061 O   0  0  0  0  0  0  0  0  0  0  0  0
  -27.3382   13.6259  -20.0765 C   0  0  0  0  0  0  0  0  0  0  0  0
  -27.6213   12.9102  -21.2209 C   0  0  0  0  0  0  0  0  0  0  0  0
  -28.8917   12.3530  -21.3954 C   0  0  0  0  0  0  0  0  0  0  0  0
  -29.8687   12.5283  -20.4017 C   0  0  0  0  0  0  0  0  0  0  0  0
  -29.5718   13.2509  -19.2542 C   0  0  0  0  0  0  0  0  0  0  0  0
  -28.3113   13.7928  -19.0894 C   0  0  0  0  0  0  0  0  0  0  0  0
  -28.0189   14.4961  -17.9624 O   0  0  0  0  0  0  0  0  0  0  0  0
  -28.0598   15.9212  -18.0581 C   0  0  0  0  0  0  0  0  0  0  0  0
  -30.9972   11.8727  -20.8571 N   0  0  0  0  0  0  0  0  0  0  0  0
  -30.6910   11.3354  -22.0696 C   0  0  0  0  0  0  0  0  0  0  0  0
  -29.4606   11.6158  -22.3848 N   0  0  0  0  0  0  0  0  0  0  0  0
  -31.6393   10.5327  -22.9226 C   0  0  0  0  0  0  0  0  0  0  0  0
  -31.4620   10.9027  -24.3331 N   0  3  0  0  0  0  0  0  0  0  0  0
  -32.2839   11.7743  -20.1636 C   0  0  0  0  0  0  0  0  0  0  0  0
  -33.3126   12.5983  -20.8941 C   0  0  0  0  0  0  0  0  0  0  0  0
  -32.9740   13.5840  -21.5053 O   0  0  0  0  0  0  0  0  0  0  0  0
  -34.6052   12.2372  -20.8658 O   0  5  0  0  0  0  0  0  0  0  0  0
  -24.1610   13.5682  -19.8130 H   0  0  0  0  0  0  0  0  0  0  0  0
  -24.7486   14.0535  -21.4197 H   0  0  0  0  0  0  0  0  0  0  0  0
  -25.2340   12.4337  -20.7474 H   0  0  0  0  0  0  0  0  0  0  0  0
  -26.8499   12.7780  -21.9938 H   0  0  0  0  0  0  0  0  0  0  0  0
  -30.3382   13.3918  -18.4777 H   0  0  0  0  0  0  0  0  0  0  0  0
  -28.2919   16.1541  -19.1078 H   0  0  0  0  0  0  0  0  0  0  0  0
  -27.0386   16.2744  -17.8520 H   0  0  0  0  0  0  0  0  0  0  0  0
  -28.7910   16.3730  -17.3717 H   0  0  0  0  0  0  0  0  0  0  0  0
  -31.4285    9.4606  -22.7960 H   0  0  0  0  0  0  0  0  0  0  0  0
  -32.6752   10.7413  -22.6170 H   0  0  0  0  0  0  0  0  0  0  0  0
  -31.3480   10.0508  -24.9008 H   0  0  0  0  0  0  0  0  0  0  0  0
  -30.6248   11.4945  -24.4312 H   0  0  0  0  0  0  0  0  0  0  0  0
  -32.2892   11.4229  -24.6588 H   0  0  0  0  0  0  0  0  0  0  0  0
  -32.1771   12.1500  -19.1353 H   0  0  0  0  0  0  0  0  0  0  0  0
  -32.6075   10.7232  -20.1382 H   0  0  0  0  0  0  0  0  0  0  0  0
  1  2  1  0  0  0  0
  1 20  1  0  0  0  0
  1 21  1  0  0  0  0
  1 22  1  0  0  0  0
  2  3  1  0  0  0  0
  3  8  2  0  0  0  0
  3  4  1  0  0  0  0
  4  5  2  0  0  0  0
  4 23  1  0  0  0  0
  5 13  1  0  0  0  0
  5  6  1  0  0  0  0
  6  7  2  0  0  0  0
  6 11  1  0  0  0  0
  7  8  1  0  0  0  0
  7 24  1  0  0  0  0
  8  9  1  0  0  0  0
  9 10  1  0  0  0  0
 10 25  1  0  0  0  0
 10 26  1  0  0  0  0
 10 27  1  0  0  0  0
 11 12  1  0  0  0  0
 11 16  1  0  0  0  0
 12 13  2  0  0  0  0
 12 14  1  0  0  0  0
 14 15  1  0  0  0  0
 14 28  1  0  0  0  0
 14 29  1  0  0  0  0
 15 30  1  0  0  0  0
 15 31  1  0  0  0  0
 15 32  1  0  0  0  0
 16 17  1  0  0  0  0
 16 33  1  0  0  0  0
 16 34  1  0  0  0  0
 17 18  2  0  0  0  0
 17 19  1  0  0  0  0
M  END
> <Name>
ZINC19751955

> <reference>
BDB5242

> <quality>
0.756

> <status>
decoy

> <atoms in reference ligand area>
24

> <score>
-36.1071

$$$$
ZINC01187537
      BALL 1.4.0 (Jan  4 2012, 23:22:29)

 18 18  0999  0  0  0  0  0  0999 V2000
  -32.3532   13.5181  -20.0455 C   0  0  0  0  0  0  0  0  0  0  0  0
  -32.5862   12.5166  -20.9148 N   0  5  0  0  0  0  0  0  0  0  0  0
  -31.3696   12.0696  -21.3640 C   0  0  0  0  0  0  0  0  0  0  0  0
  -30.4132   12.8526  -20.7317 C   0  0  0  0  0  0  0  0  0  0  0  0
  -31.0680   13.7182  -19.9401 N   0  0  0  0  0  0  0  0  0  0  0  0
  -28.9476   12.7528  -20.8989 C   0  0  0  0  0  0  0  0  0  0  0  0
  -28.3019   12.0194  -20.1759 O   0  0  0  0  0  0  0  0  0  0  0  0
  -28.3275   13.4750  -21.8531 N   0  0  0  0  0  0  0  0  0  0  0  0
  -26.9136   13.5465  -21.8802 O   0  0  0  0  0  0  0  0  0  0  0  0
  -31.1270   10.9826  -22.3278 C   0  0  0  0  0  0  0  0  0  0  0  0
  -30.4704   10.0133  -21.9986 O   0  0  0  0  0  0  0  0  0  0  0  0
  -31.6327   11.0621  -23.5746 N   0  0  0  0  0  0  0  0  0  0  0  0
  -30.8596   10.6334  -24.6808 O   0  0  0  0  0  0  0  0  0  0  0  0
  -33.1285   14.0820  -19.5060 H   0  0  0  0  0  0  0  0  0  0  0  0
  -28.8822   13.9750  -22.5626 H   0  0  0  0  0  0  0  0  0  0  0  0
  -26.6508   13.1207  -22.7345 H   0  0  0  0  0  0  0  0  0  0  0  0
  -32.5815   11.4346  -23.7228 H   0  0  0  0  0  0  0  0  0  0  0  0
  -31.5189   10.4166  -25.3869 H   0  0  0  0  0  0  0  0  0  0  0  0
  1  5  2  0  0  0  0
  1  2  1  0  0  0  0
  1 14  1  0  0  0  0
  2  3  1  0  0  0  0
  3  4  2  0  0  0  0
  3 10  1  0  0  0  0
  4  5  1  0  0  0  0
  4  6  1  0  0  0  0
  6  7  2  0  0  0  0
  6  8  1  0  0  0  0
  8  9  1  0  0  0  0
  8 15  1  0  0  0  0
  9 16  1  0  0  0  0
 10 11  2  0  0  0  0
 10 12  1  0  0  0  0
 12 13  1  0  0  0  0
 12 17  1  0  0  0  0
 13 18  1  0  0  0  0
M  END
> <Name>
ZINC01187537

> <reference>
BDB5257

> <quality>
0.783

> <status>
decoy

> <atoms in reference ligand area>
16

> <score>
-35.8561

$$$$
ZINC05192440
      BALL 1.4.0 (Jan  4 2012, 23:22:29)

 43 44  0999  0  0  0  0  0  0999 V2000
  -32.7894   14.0291  -21.0581 C   0  0  0  0  0  0  0  0  0  0  0  0
  -33.7557   13.3719  -20.0493 C   0  0  0  0  0  0  0  0  0  0  0  0
  -33.5386   11.8650  -19.8814 C   0  0  0  0  0  0  0  0  0  0  0  0
  -32.3966   11.3020  -20.7544 C   0  0  0  0  0  0  0  0  0  0  0  0
  -31.3952   12.8201  -21.0680 S   0  0  0  0  0  0  0  0  0  0  0  0
  -31.5839   10.2564  -19.9882 C   0  0  0  0  0  0  0  0  0  0  0  0
  -31.5467    8.9527  -20.7882 C   0  0  0  0  0  0  0  0  0  0  0  0
  -31.4410    7.7673  -19.8267 C   0  0  0  0  0  0  0  0  0  0  0  0
  -30.4793    6.7267  -20.4040 C   0  0  0  0  0  0  0  0  0  0  0  0
  -30.3750    5.5591  -19.4571 C   0  0  0  0  0  0  0  0  0  0  0  0
  -31.3171    4.8090  -19.3131 O   0  0  0  0  0  0  0  0  0  0  0  0
  -29.2347    5.3481  -18.7702 N   0  0  0  0  0  0  0  0  0  0  0  0
  -29.0574    5.9338  -17.5100 N   0  0  0  0  0  0  0  0  0  0  0  0
  -27.8177    6.0736  -17.0002 C   0  0  0  0  0  0  0  0  0  0  0  0
  -26.8555    5.6924  -17.6325 O   0  0  0  0  0  0  0  0  0  0  0  0
  -27.6270    6.7036  -15.6445 C   0  0  0  0  0  0  0  0  0  0  0  0
  -26.2800    7.1637  -15.5183 O   0  0  0  0  0  0  0  0  0  0  0  0
  -26.1287    8.3299  -14.6480 N   0  0  0  0  0  0  0  0  0  0  0  0
  -33.1798   11.7116  -18.4626 N   0  0  0  0  0  0  0  0  0  0  0  0
  -33.1812   12.9180  -17.8791 C   0  0  0  0  0  0  0  0  0  0  0  0
  -32.9190   13.0867  -16.7038 O   0  0  0  0  0  0  0  0  0  0  0  0
  -33.4982   13.9215  -18.7088 N   0  0  0  0  0  0  0  0  0  0  0  0
  -33.2475   14.0829  -22.0567 H   0  0  0  0  0  0  0  0  0  0  0  0
  -32.4393   15.0023  -20.6838 H   0  0  0  0  0  0  0  0  0  0  0  0
  -34.7641   13.5694  -20.4420 H   0  0  0  0  0  0  0  0  0  0  0  0
  -34.4392   11.3143  -20.1906 H   0  0  0  0  0  0  0  0  0  0  0  0
  -32.7366   10.7893  -21.6664 H   0  0  0  0  0  0  0  0  0  0  0  0
  -30.5580   10.6249  -19.8410 H   0  0  0  0  0  0  0  0  0  0  0  0
  -32.0512   10.0720  -19.0096 H   0  0  0  0  0  0  0  0  0  0  0  0
  -32.4675    8.8609  -21.3828 H   0  0  0  0  0  0  0  0  0  0  0  0
  -30.6755    8.9580  -21.4598 H   0  0  0  0  0  0  0  0  0  0  0  0
  -31.0625    8.1161  -18.8546 H   0  0  0  0  0  0  0  0  0  0  0  0
  -32.4338    7.3132  -19.6922 H   0  0  0  0  0  0  0  0  0  0  0  0
  -29.4855    7.1789  -20.5382 H   0  0  0  0  0  0  0  0  0  0  0  0
  -30.8574    6.3772  -21.3761 H   0  0  0  0  0  0  0  0  0  0  0  0
  -28.4936    4.7562  -19.1719 H   0  0  0  0  0  0  0  0  0  0  0  0
  -29.8746    6.2576  -16.9730 H   0  0  0  0  0  0  0  0  0  0  0  0
  -28.3162    7.5539  -15.5350 H   0  0  0  0  0  0  0  0  0  0  0  0
  -27.8347    5.9600  -14.8610 H   0  0  0  0  0  0  0  0  0  0  0  0
  -27.0709    8.7000  -14.4579 H   0  0  0  0  0  0  0  0  0  0  0  0
  -25.5985    9.0413  -15.1712 H   0  0  0  0  0  0  0  0  0  0  0  0
  -32.9625   10.8207  -17.9937 H   0  0  0  0  0  0  0  0  0  0  0  0
  -33.5529   14.9170  -18.4499 H   0  0  0  0  0  0  0  0  0  0  0  0
  1  5  1  0  0  0  0
  1  2  1  0  0  0  0
  1 23  1  0  0  0  0
  1 24  1  0  0  0  0
  2 22  1  0  0  0  0
  2  3  1  0  0  0  0
  2 25  1  0  0  0  0
  3  4  1  0  0  0  0
  3 19  1  0  0  0  0
  3 26  1  0  0  0  0
  4  5  1  0  0  0  0
  4  6  1  0  0  0  0
  4 27  1  0  0  0  0
  6  7  1  0  0  0  0
  6 28  1  0  0  0  0
  6 29  1  0  0  0  0
  7  8  1  0  0  0  0
  7 30  1  0  0  0  0
  7 31  1  0  0  0  0
  8  9  1  0  0  0  0
  8 32  1  0  0  0  0
  8 33  1  0  0  0  0
  9 10  1  0  0  0  0
  9 34  1  0  0  0  0
  9 35  1  0  0  0  0
 10 11  2  0  0  0  0
 10 12  1  0  0  0  0
 12 13  1  0  0  0  0
 12 36  1  0  0  0  0
 13 14  1  0  0  0  0
 13 37  1  0  0  0  0
 14 15  2  0  0  0  0
 14 16  1  0  0  0  0
 16 17  1  0  0  0  0
 16 38  1  0  0  0  0
 16 39  1  0  0  0  0
 17 18  1  0  0  0  0
 18 40  1  0  0  0  0
 18 41  1  0  0  0  0
 19 20  1  0  0  0  0
 19 42  1  0  0  0  0
 20 21  2  0  0  0  0
 20 22  1  0  0  0  0
 22 43  1  0  0  0  0
M  END
> <Name>
ZINC05192440

> <reference>
BDB5013

> <quality>
0.720

> <status>
decoy

> <atoms in reference ligand area>
13

> <score>
-35.38

$$$$
ZINC22047827
      BALL 1.4.0 (Jan  4 2012, 23:22:29)

 41 42  0999  0  0  0  0  0  0999 V2000
  -28.3587   11.4931  -23.3838 C   0  0  0  0  0  0  0  0  0  0  0  0
  -29.2767   10.5490  -23.8378 C   0  0  0  0  0  0  0  0  0  0  0  0
  -30.2596   10.0735  -23.0204 C   0  0  0  0  0  0  0  0  0  0  0  0
  -30.3522   10.5500  -21.7088 C   0  0  0  0  0  0  0  0  0  0  0  0
  -29.4174   11.5120  -21.2452 C   0  0  0  0  0  0  0  0  0  0  0  0
  -28.4172   11.9750  -22.1098 C   0  0  0  0  0  0  0  0  0  0  0  0
  -29.5428   11.9608  -19.9174 C   0  0  0  0  0  0  0  0  0  0  0  0
  -30.5076   11.4780  -19.1684 N   0  0  0  0  0  0  0  0  0  0  0  0
  -31.3550   10.6098  -19.5792 N   0  0  0  0  0  0  0  0  0  0  0  0
  -31.3445   10.1098  -20.8031 C   0  0  0  0  0  0  0  0  0  0  0  0
  -32.2873    9.1722  -21.1904 N   0  0  0  0  0  0  0  0  0  0  0  0
  -32.5449    8.9584  -22.5508 N   0  0  0  0  0  0  0  0  0  0  0  0
  -33.7521    8.8694  -22.9674 C   0  0  0  0  0  0  0  0  0  0  0  0
  -34.8968    9.1137  -22.0181 C   0  0  0  0  0  0  0  0  0  0  0  0
  -36.1078    9.2658  -22.7613 O   0  0  0  0  0  0  0  0  0  0  0  0
  -34.0285    8.5201  -24.4071 C   0  0  0  0  0  0  0  0  0  0  0  0
  -34.5034    7.0685  -24.4976 C   0  0  0  0  0  0  0  0  0  0  0  0
  -35.1334    6.8227  -25.8701 C   0  0  0  0  0  0  0  0  0  0  0  0
  -34.0557    6.3520  -26.8490 C   0  0  0  0  0  0  0  0  0  0  0  0
  -33.8863    7.3298  -27.8772 O   0  0  0  0  0  0  0  0  0  0  0  0
  -35.7164    8.0356  -26.3507 O   0  0  0  0  0  0  0  0  0  0  0  0
  -35.4725    6.8198  -23.4773 O   0  0  0  0  0  0  0  0  0  0  0  0
  -35.0425    9.3860  -24.9210 O   0  0  0  0  0  0  0  0  0  0  0  0
  -27.5740   11.8556  -24.0640 H   0  0  0  0  0  0  0  0  0  0  0  0
  -29.2079   10.1811  -24.8721 H   0  0  0  0  0  0  0  0  0  0  0  0
  -30.9729    9.3219  -23.3895 H   0  0  0  0  0  0  0  0  0  0  0  0
  -27.6859   12.7204  -21.7641 H   0  0  0  0  0  0  0  0  0  0  0  0
  -28.8423   12.7059  -19.5123 H   0  0  0  0  0  0  0  0  0  0  0  0
  -32.7991    8.6321  -20.4782 H   0  0  0  0  0  0  0  0  0  0  0  0
  -34.7054   10.0291  -21.4390 H   0  0  0  0  0  0  0  0  0  0  0  0
  -34.9930    8.2592  -21.3320 H   0  0  0  0  0  0  0  0  0  0  0  0
  -36.4944   10.1598  -22.5845 H   0  0  0  0  0  0  0  0  0  0  0  0
  -33.1083    8.6423  -24.9973 H   0  0  0  0  0  0  0  0  0  0  0  0
  -33.6459    6.3930  -24.3615 H   0  0  0  0  0  0  0  0  0  0  0  0
  -35.9122    6.0508  -25.7832 H   0  0  0  0  0  0  0  0  0  0  0  0
  -34.3606    5.3961  -27.2997 H   0  0  0  0  0  0  0  0  0  0  0  0
  -33.1055    6.2175  -26.3114 H   0  0  0  0  0  0  0  0  0  0  0  0
  -33.1946    7.9826  -27.6024 H   0  0  0  0  0  0  0  0  0  0  0  0
  -35.0161    8.7308  -26.4295 H   0  0  0  0  0  0  0  0  0  0  0  0
  -36.3081    7.3069  -23.6886 H   0  0  0  0  0  0  0  0  0  0  0  0
  -34.7417    9.7744  -25.7805 H   0  0  0  0  0  0  0  0  0  0  0  0
  1  6  1  0  0  0  0
  1  2  2  0  0  0  0
  1 24  1  0  0  0  0
  2  3  1  0  0  0  0
  2 25  1  0  0  0  0
  3  4  2  0  0  0  0
  3 26  1  0  0  0  0
  4 10  1  0  0  0  0
  4  5  1  0  0  0  0
  5  6  2  0  0  0  0
  5  7  1  0  0  0  0
  6 27  1  0  0  0  0
  7  8  2  0  0  0  0
  7 28  1  0  0  0  0
  8  9  1  0  0  0  0
  9 10  2  0  0  0  0
 10 11  1  0  0  0  0
 11 12  1  0  0  0  0
 11 29  1  0  0  0  0
 12 13  2  0  0  0  0
 13 14  1  0  0  0  0
 13 16  1  0  0  0  0
 14 15  1  0  0  0  0
 14 30  1  0  0  0  0
 14 31  1  0  0  0  0
 15 32  1  0  0  0  0
 16 17  1  0  0  0  0
 16 23  1  0  0  0  0
 16 33  1  0  0  0  0
 17 18  1  0  0  0  0
 17 22  1  0  0  0  0
 17 34  1  0  0  0  0
 18 19  1  0  0  0  0
 18 21  1  0  0  0  0
 18 35  1  0  0  0  0
 19 20  1  0  0  0  0
 19 36  1  0  0  0  0
 19 37  1  0  0  0  0
 20 38  1  0  0  0  0
 21 39  1  0  0  0  0
 22 40  1  0  0  0  0
 23 41  1  0  0  0  0
M  END
> <Name>
ZINC22047827

> <reference>
BDB5013

> <quality>
0.688

> <status>
decoy

> <atoms in reference ligand area>
13

> <score>
-35.2766

$$$$
ZINC20636295
      BALL 1.4.0 (Jan  4 2012, 23:22:29)

 36 37  0999  0  0  0  0  0  0999 V2000
  -33.2374   11.1217  -17.9559 C   0  0  0  0  0  0  0  0  0  0  0  0
  -32.4074   10.6862  -18.9720 C   0  0  0  0  0  0  0  0  0  0  0  0
  -32.0340   11.5556  -19.9798 C   0  0  0  0  0  0  0  0  0  0  0  0
  -32.4902   12.8605  -19.9713 C   0  0  0  0  0  0  0  0  0  0  0  0
  -33.3155   13.2975  -18.9521 C   0  0  0  0  0  0  0  0  0  0  0  0
  -33.6935   12.4266  -17.9473 C   0  0  0  0  0  0  0  0  0  0  0  0
  -32.0827   13.8083  -21.0698 C   0  0  0  0  0  0  0  0  0  0  0  0
  -30.8471   14.4964  -20.6876 N   0  0  0  0  0  0  0  0  0  0  0  0
  -30.5808   14.7305  -19.3873 C   0  0  0  0  0  0  0  0  0  0  0  0
  -31.3640   14.3717  -18.5336 O   0  0  0  0  0  0  0  0  0  0  0  0
  -29.3097   15.4382  -18.9941 C   0  0  0  0  0  0  0  0  0  0  0  0
  -28.1137   14.5197  -19.2523 C   0  5  0  0  0  0  0  0  0  0  0  0
  -28.4638   13.0609  -18.9832 C   0  0  0  0  0  0  0  0  0  0  0  0
  -28.7943   12.6512  -17.8876 O   0  0  0  0  0  0  0  0  0  0  0  0
  -28.3771   12.2894  -20.0352 N   0  0  0  0  0  0  0  0  0  0  0  0
  -28.0204   12.7079  -21.2377 C   0  0  0  0  0  0  0  0  0  0  0  0
  -27.7276   14.4085  -21.0450 S   0  0  0  0  0  0  0  0  0  0  0  0
  -27.9072   11.9646  -22.3819 N   0  0  0  0  0  0  0  0  0  0  0  0
  -28.9397   11.1352  -22.7712 C   0  0  0  0  0  0  0  0  0  0  0  0
  -29.8301   10.7520  -21.9019 N   0  3  0  0  0  0  0  0  0  0  0  0
  -29.0279   10.7139  -24.0767 N   0  0  0  0  0  0  0  0  0  0  0  0
  -33.5348   10.4298  -17.1541 H   0  0  0  0  0  0  0  0  0  0  0  0
  -32.0441    9.6480  -18.9786 H   0  0  0  0  0  0  0  0  0  0  0  0
  -31.3740   11.2090  -20.7887 H   0  0  0  0  0  0  0  0  0  0  0  0
  -33.6713   14.3383  -18.9406 H   0  0  0  0  0  0  0  0  0  0  0  0
  -34.3573   12.7720  -17.1410 H   0  0  0  0  0  0  0  0  0  0  0  0
  -31.9149   13.2432  -21.9985 H   0  0  0  0  0  0  0  0  0  0  0  0
  -32.8795   14.5495  -21.2305 H   0  0  0  0  0  0  0  0  0  0  0  0
  -30.1820   14.8012  -21.4126 H   0  0  0  0  0  0  0  0  0  0  0  0
  -29.2016   16.3563  -19.5903 H   0  0  0  0  0  0  0  0  0  0  0  0
  -29.3483   15.6971  -17.9257 H   0  0  0  0  0  0  0  0  0  0  0  0
  -27.0516   12.0243  -22.9522 H   0  0  0  0  0  0  0  0  0  0  0  0
  -29.7641   11.0677  -20.9237 H   0  0  0  0  0  0  0  0  0  0  0  0
  -30.6005   10.1332  -22.1924 H   0  0  0  0  0  0  0  0  0  0  0  0
  -29.9489   10.5133  -24.4920 H   0  0  0  0  0  0  0  0  0  0  0  0
  -28.1730   10.5988  -24.6395 H   0  0  0  0  0  0  0  0  0  0  0  0
  1  6  2  0  0  0  0
  1  2  1  0  0  0  0
  1 22  1  0  0  0  0
  2  3  2  0  0  0  0
  2 23  1  0  0  0  0
  3  4  1  0  0  0  0
  3 24  1  0  0  0  0
  4  5  2  0  0  0  0
  4  7  1  0  0  0  0
  5  6  1  0  0  0  0
  5 25  1  0  0  0  0
  6 26  1  0  0  0  0
  7  8  1  0  0  0  0
  7 27  1  0  0  0  0
  7 28  1  0  0  0  0
  8  9  1  0  0  0  0
  8 29  1  0  0  0  0
  9 10  2  0  0  0  0
  9 11  1  0  0  0  0
 11 12  1  0  0  0  0
 11 30  1  0  0  0  0
 11 31  1  0  0  0  0
 12 17  1  0  0  0  0
 12 13  1  0  0  0  0
 13 14  2  0  0  0  0
 13 15  1  0  0  0  0
 15 16  2  0  0  0  0
 16 17  1  0  0  0  0
 16 18  1  0  0  0  0
 18 19  1  0  0  0  0
 18 32  1  0  0  0  0
 19 20  2  0  0  0  0
 19 21  1  0  0  0  0
 20 33  1  0  0  0  0
 20 34  1  0  0  0  0
 21 35  1  0  0  0  0
 21 36  1  0  0  0  0
M  END
> <Name>
ZINC20636295

> <reference>
BDB5200

> <quality>
0.830

> <status>
decoy

> <atoms in reference ligand area>
28

> <score>
-34.2788

$$$$
ZINC15771728
      BALL 1.4.0 (Jan  4 2012, 23:22:29)

 52 52  0999  0  0  0  0  0  0999 V2000
  -32.6196   17.9195  -20.1115 C   0  0  0  0  0  0  0  0  0  0  0  0
  -33.1276   16.6409  -20.4976 O   0  0  0  0  0  0  0  0  0  0  0  0
  -32.2230   15.6363  -20.6459 C   0  0  0  0  0  0  0  0  0  0  0  0
  -32.6088   14.4328  -21.2141 C   0  0  0  0  0  0  0  0  0  0  0  0
  -31.6869   13.4145  -21.3689 C   0  0  0  0  0  0  0  0  0  0  0  0
  -30.3818   13.5895  -20.9474 C   0  0  0  0  0  0  0  0  0  0  0  0
  -29.9903   14.7877  -20.3798 C   0  0  0  0  0  0  0  0  0  0  0  0
  -30.9080   15.8144  -20.2270 C   0  0  0  0  0  0  0  0  0  0  0  0
  -30.5246   16.9936  -19.6683 O   0  0  0  0  0  0  0  0  0  0  0  0
  -29.4846   17.7169  -20.3296 C   0  0  0  0  0  0  0  0  0  0  0  0
  -29.3823   12.4738  -21.1129 C   0  0  0  0  0  0  0  0  0  0  0  0
  -29.7203   11.3386  -20.1444 C   0  0  0  0  0  0  0  0  0  0  0  0
  -31.4292    9.7407  -19.5206 C   0  0  0  0  0  0  0  0  0  0  0  0
  -32.3866    8.7806  -20.2294 C   0  0  0  0  0  0  0  0  0  0  0  0
  -32.4588    9.1372  -21.7156 C   0  0  0  0  0  0  0  0  0  0  0  0
  -31.0482    9.1406  -22.3084 C   0  0  0  0  0  0  0  0  0  0  0  0
  -31.0887    9.7345  -23.7178 C   0  0  0  0  0  0  0  0  0  0  0  0
  -29.6783    9.7379  -24.3105 C   0  0  0  0  0  0  0  0  0  0  0  0
  -29.5817   10.7599  -25.3047 O   0  0  0  0  0  0  0  0  0  0  0  0
  -31.5826   11.0741  -23.6561 O   0  0  0  0  0  0  0  0  0  0  0  0
  -30.5543    7.8011  -22.3700 O   0  0  0  0  0  0  0  0  0  0  0  0
  -33.0420   10.4330  -21.8668 O   0  0  0  0  0  0  0  0  0  0  0  0
  -31.9121    7.4406  -20.0836 O   0  0  0  0  0  0  0  0  0  0  0  0
  -31.0760   10.8380  -20.4408 N   0  3  0  0  0  0  0  0  0  0  0  0
  -33.4962   18.5536  -19.9135 H   0  0  0  0  0  0  0  0  0  0  0  0
  -32.1018   18.3256  -20.9930 H   0  0  0  0  0  0  0  0  0  0  0  0
  -31.9523   17.8663  -19.2386 H   0  0  0  0  0  0  0  0  0  0  0  0
  -33.6487   14.2878  -21.5420 H   0  0  0  0  0  0  0  0  0  0  0  0
  -31.9923   12.4629  -21.8284 H   0  0  0  0  0  0  0  0  0  0  0  0
  -28.9502   14.9259  -20.0494 H   0  0  0  0  0  0  0  0  0  0  0  0
  -29.9779   18.3472  -21.0842 H   0  0  0  0  0  0  0  0  0  0  0  0
  -28.8766   16.9690  -20.8598 H   0  0  0  0  0  0  0  0  0  0  0  0
  -28.8760   18.3162  -19.6364 H   0  0  0  0  0  0  0  0  0  0  0  0
  -29.4203   12.0974  -22.1458 H   0  0  0  0  0  0  0  0  0  0  0  0
  -28.3716   12.8503  -20.8967 H   0  0  0  0  0  0  0  0  0  0  0  0
  -28.9929   10.5224  -20.2664 H   0  0  0  0  0  0  0  0  0  0  0  0
  -29.6854   11.7132  -19.1108 H   0  0  0  0  0  0  0  0  0  0  0  0
  -31.9186   10.1545  -18.6266 H   0  0  0  0  0  0  0  0  0  0  0  0
  -30.5170    9.2010  -19.2261 H   0  0  0  0  0  0  0  0  0  0  0  0
  -33.3882    8.8655  -19.7829 H   0  0  0  0  0  0  0  0  0  0  0  0
  -33.0757    8.3938  -22.2415 H   0  0  0  0  0  0  0  0  0  0  0  0
  -30.3853    9.7471  -21.6737 H   0  0  0  0  0  0  0  0  0  0  0  0
  -31.7517    9.1281  -24.3523 H   0  0  0  0  0  0  0  0  0  0  0  0
  -29.4699    8.7601  -24.7694 H   0  0  0  0  0  0  0  0  0  0  0  0
  -28.9458    9.9322  -23.5133 H   0  0  0  0  0  0  0  0  0  0  0  0
  -30.1202   10.5045  -26.0951 H   0  0  0  0  0  0  0  0  0  0  0  0
  -32.5682   11.0680  -23.7498 H   0  0  0  0  0  0  0  0  0  0  0  0
  -30.2247    7.5285  -21.4772 H   0  0  0  0  0  0  0  0  0  0  0  0
  -33.5247   10.4800  -22.7298 H   0  0  0  0  0  0  0  0  0  0  0  0
  -32.6558    6.8070  -20.2434 H   0  0  0  0  0  0  0  0  0  0  0  0
  -31.7545   11.6053  -20.3325 H   0  0  0  0  0  0  0  0  0  0  0  0
  -31.1091   10.4931  -21.4108 H   0  0  0  0  0  0  0  0  0  0  0  0
  1  2  1  0  0  0  0
  1 25  1  0  0  0  0
  1 26  1  0  0  0  0
  1 27  1  0  0  0  0
  2  3  1  0  0  0  0
  3  8  2  0  0  0  0
  3  4  1  0  0  0  0
  4  5  2  0  0  0  0
  4 28  1  0  0  0  0
  5  6  1  0  0  0  0
  5 29  1  0  0  0  0
  6  7  2  0  0  0  0
  6 11  1  0  0  0  0
  7  8  1  0  0  0  0
  7 30  1  0  0  0  0
  8  9  1  0  0  0  0
  9 10  1  0  0  0  0
 10 31  1  0  0  0  0
 10 32  1  0  0  0  0
 10 33  1  0  0  0  0
 11 12  1  0  0  0  0
 11 34  1  0  0  0  0
 11 35  1  0  0  0  0
 12 24  1  0  0  0  0
 12 36  1  0  0  0  0
 12 37  1  0  0  0  0
 13 14  1  0  0  0  0
 13 24  1  0  0  0  0
 13 38  1  0  0  0  0
 13 39  1  0  0  0  0
 14 15  1  0  0  0  0
 14 23  1  0  0  0  0
 14 40  1  0  0  0  0
 15 16  1  0  0  0  0
 15 22  1  0  0  0  0
 15 41  1  0  0  0  0
 16 17  1  0  0  0  0
 16 21  1  0  0  0  0
 16 42  1  0  0  0  0
 17 18  1  0  0  0  0
 17 20  1  0  0  0  0
 17 43  1  0  0  0  0
 18 19  1  0  0  0  0
 18 44  1  0  0  0  0
 18 45  1  0  0  0  0
 19 46  1  0  0  0  0
 20 47  1  0  0  0  0
 21 48  1  0  0  0  0
 22 49  1  0  0  0  0
 23 50  1  0  0  0  0
 24 51  1  0  0  0  0
 24 52  1  0  0  0  0
M  END
> <Name>
ZINC15771728

> <reference>
BDB4997

> <quality>
0.657

> <status>
decoy

> <atoms in reference ligand area>
19

> <score>
-34.1368

$$$$
ZINC15690560
      BALL 1.4.0 (Jan  4 2012, 23:22:29)

 30 31  0999  0  0  0  0  0  0999 V2000
  -34.3362    9.3617  -22.2873 C   0  0  0  0  0  0  0  0  0  0  0  0
  -35.6493    9.0525  -23.0458 C   0  0  0  0  0  0  0  0  0  0  0  0
  -35.0546    8.1349  -24.5246 S   0  0  0  0  0  0  0  0  0  0  0  0
  -35.3760    8.8801  -25.6911 O   0  0  0  0  0  0  0  0  0  0  0  0
  -35.4674    6.7789  -24.4254 O   0  0  0  0  0  0  0  0  0  0  0  0
  -33.2378    8.2313  -24.2335 C   0  0  0  0  0  0  0  0  0  0  0  0
  -33.1669    9.4591  -23.2811 C   0  0  0  0  0  0  0  0  0  0  0  0
  -31.9073    9.4476  -22.5590 O   0  0  0  0  0  0  0  0  0  0  0  0
  -31.1935   10.5843  -22.5606 C   0  0  0  0  0  0  0  0  0  0  0  0
  -31.3939   11.4224  -23.4076 O   0  0  0  0  0  0  0  0  0  0  0  0
  -30.1420   10.8153  -21.5060 C   0  0  0  0  0  0  0  0  0  0  0  0
  -30.1959   12.5467  -20.9675 S   0  0  0  0  0  0  0  0  0  0  0  0
  -28.5002   12.9903  -20.7879 C   0  0  0  0  0  0  0  0  0  0  0  0
  -27.4275   12.1761  -21.0214 N   0  0  0  0  0  0  0  0  0  0  0  0
  -26.2916   12.8904  -20.7650 C   0  0  0  0  0  0  0  0  0  0  0  0
  -26.6459   14.0972  -20.3979 N   0  0  0  0  0  0  0  0  0  0  0  0
  -28.0454   14.1610  -20.4122 N   0  0  0  0  0  0  0  0  0  0  0  0
  -24.9892   12.4213  -20.8792 N   0  0  0  0  0  0  0  0  0  0  0  0
  -34.4413   10.3160  -21.7502 H   0  0  0  0  0  0  0  0  0  0  0  0
  -34.1349    8.5582  -21.5635 H   0  0  0  0  0  0  0  0  0  0  0  0
  -36.3011    8.4046  -22.4413 H   0  0  0  0  0  0  0  0  0  0  0  0
  -36.1444    9.9837  -23.3584 H   0  0  0  0  0  0  0  0  0  0  0  0
  -32.7152    8.4398  -25.1787 H   0  0  0  0  0  0  0  0  0  0  0  0
  -32.8900    7.3209  -23.7235 H   0  0  0  0  0  0  0  0  0  0  0  0
  -33.2337   10.3933  -23.8580 H   0  0  0  0  0  0  0  0  0  0  0  0
  -30.3351   10.1581  -20.6453 H   0  0  0  0  0  0  0  0  0  0  0  0
  -29.1485   10.5924  -21.9221 H   0  0  0  0  0  0  0  0  0  0  0  0
  -27.4683   11.1960  -21.3355 H   0  0  0  0  0  0  0  0  0  0  0  0
  -24.6024   12.4025  -21.8336 H   0  0  0  0  0  0  0  0  0  0  0  0
  -24.4328   12.1087  -20.0708 H   0  0  0  0  0  0  0  0  0  0  0  0
  1  7  1  0  0  0  0
  1  2  1  0  0  0  0
  1 19  1  0  0  0  0
  1 20  1  0  0  0  0
  2  3  1  0  0  0  0
  2 21  1  0  0  0  0
  2 22  1  0  0  0  0
  3  4  2  0  0  0  0
  3  5  2  0  0  0  0
  3  6  1  0  0  0  0
  6  7  1  0  0  0  0
  6 23  1  0  0  0  0
  6 24  1  0  0  0  0
  7  8  1  0  0  0  0
  7 25  1  0  0  0  0
  8  9  1  0  0  0  0
  9 10  2  0  0  0  0
  9 11  1  0  0  0  0
 11 12  1  0  0  0  0
 11 26  1  0  0  0  0
 11 27  1  0  0  0  0
 12 13  1  0  0  0  0
 13 17  2  0  0  0  0
 13 14  1  0  0  0  0
 14 15  1  0  0  0  0
 14 28  1  0  0  0  0
 15 16  2  0  0  0  0
 15 18  1  0  0  0  0
 16 17  1  0  0  0  0
 18 29  1  0  0  0  0
 18 30  1  0  0  0  0
M  END
> <Name>
ZINC15690560

> <reference>
BDB4937

> <quality>
0.737

> <status>
decoy

> <atoms in reference ligand area>
13

> <score>
-34.0863

$$$$
ZINC17107909
      BALL 1.4.0 (Jan  4 2012, 23:22:29)

 34 36  0999  0  0  0  0  0  0999 V2000
  -27.4836   15.9447  -17.6761 C   0  0  0  0  0  0  0  0  0  0  0  0
  -28.6675   15.0138  -17.6243 C   0  0  0  0  0  0  0  0  0  0  0  0
  -29.6198   15.2855  -16.9320 O   0  0  0  0  0  0  0  0  0  0  0  0
  -28.6643   13.8829  -18.3472 O   0  0  0  0  0  0  0  0  0  0  0  0
  -28.5429   14.0215  -19.7875 C   0  0  0  0  0  0  0  0  0  0  0  0
  -27.0848   13.7186  -20.2584 C   0  0  0  0  0  0  0  0  0  0  0  0
  -27.1860   12.6310  -21.2267 O   0  0  0  0  0  0  0  0  0  0  0  0
  -28.4673   12.8444  -21.8373 C   0  0  0  0  0  0  0  0  0  0  0  0
  -29.3110   12.9571  -20.4935 C   0  0  0  0  0  0  0  0  0  0  0  0
  -30.6191   12.8859  -21.0032 O   0  0  0  0  0  0  0  0  0  0  0  0
  -30.5434   11.9745  -22.0111 C   0  0  0  0  0  0  0  0  0  0  0  0
  -31.5224   11.3552  -22.6377 N   0  0  0  0  0  0  0  0  0  0  0  0
  -31.2093   10.4925  -23.6275 C   0  0  0  0  0  0  0  0  0  0  0  0
  -29.9979   10.1111  -23.9101 N   0  3  0  0  0  0  0  0  0  0  0  0
  -28.8361   10.5314  -23.1122 C   0  0  0  0  0  0  0  0  0  0  0  0
  -29.2203   11.7222  -22.3671 N   0  0  0  0  0  0  0  0  0  0  0  0
  -32.2409    9.9816  -24.3886 N   0  0  0  0  0  0  0  0  0  0  0  0
  -26.2269   13.2851  -19.0679 C   0  0  0  0  0  0  0  0  0  0  0  0
  -24.8464   13.3291  -19.4346 O   0  0  0  0  0  0  0  0  0  0  0  0
  -27.9000   16.9561  -17.5599 H   0  0  0  0  0  0  0  0  0  0  0  0
  -27.0894   15.8616  -18.6997 H   0  0  0  0  0  0  0  0  0  0  0  0
  -26.7209   15.7184  -16.9164 H   0  0  0  0  0  0  0  0  0  0  0  0
  -28.8838   15.0438  -20.0083 H   0  0  0  0  0  0  0  0  0  0  0  0
  -26.6135   14.6080  -20.7019 H   0  0  0  0  0  0  0  0  0  0  0  0
  -28.3299   13.5920  -22.6325 H   0  0  0  0  0  0  0  0  0  0  0  0
  -29.4443   12.2710  -19.6442 H   0  0  0  0  0  0  0  0  0  0  0  0
  -29.8474    9.4936  -24.7206 H   0  0  0  0  0  0  0  0  0  0  0  0
  -28.5569    9.7300  -22.4122 H   0  0  0  0  0  0  0  0  0  0  0  0
  -27.9927   10.7668  -23.7780 H   0  0  0  0  0  0  0  0  0  0  0  0
  -33.2138    9.9874  -24.0506 H   0  0  0  0  0  0  0  0  0  0  0  0
  -32.0284    9.5863  -25.3158 H   0  0  0  0  0  0  0  0  0  0  0  0
  -26.4953   12.2593  -18.7754 H   0  0  0  0  0  0  0  0  0  0  0  0
  -26.4030   13.9657  -18.2219 H   0  0  0  0  0  0  0  0  0  0  0  0
  -24.3768   12.5470  -19.0502 H   0  0  0  0  0  0  0  0  0  0  0  0
  1  2  1  0  0  0  0
  1 20  1  0  0  0  0
  1 21  1  0  0  0  0
  1 22  1  0  0  0  0
  2  3  2  0  0  0  0
  2  4  1  0  0  0  0
  4  5  1  0  0  0  0
  5  9  1  0  0  0  0
  5  6  1  0  0  0  0
  5 23  1  0  0  0  0
  6  7  1  0  0  0  0
  6 18  1  0  0  0  0
  6 24  1  0  0  0  0
  7  8  1  0  0  0  0
  8 16  1  0  0  0  0
  8  9  1  0  0  0  0
  8 25  1  0  0  0  0
  9 10  1  0  0  0  0
  9 26  1  0  0  0  0
 10 11  1  0  0  0  0
 11 16  1  0  0  0  0
 11 12  2  0  0  0  0
 12 13  1  0  0  0  0
 13 14  2  0  0  0  0
 13 17  1  0  0  0  0
 14 15  1  0  0  0  0
 14 27  1  0  0  0  0
 15 16  1  0  0  0  0
 15 28  1  0  0  0  0
 15 29  1  0  0  0  0
 17 30  1  0  0  0  0
 17 31  1  0  0  0  0
 18 19  1  0  0  0  0
 18 32  1  0  0  0  0
 18 33  1  0  0  0  0
 19 34  1  0  0  0  0
M  END
> <Name>
ZINC17107909

> <reference>
BDB5008

> <quality>
0.762

> <status>
decoy

> <atoms in reference ligand area>
20

> <score>
-33.8451

$$$$
ZINC01646936
      BALL 1.4.0 (Jan  4 2012, 23:22:29)

 34 35  0999  0  0  0  0  0  0999 V2000
  -30.9337    9.1667  -20.5504 C   0  0  0  0  0  0  0  0  0  0  0  0
  -31.0492    9.0985  -21.8508 N   0  0  0  0  0  0  0  0  0  0  0  0
  -31.1970   10.3277  -22.3586 C   0  0  0  0  0  0  0  0  0  0  0  0
  -31.1806   11.2192  -21.2974 C   0  0  0  0  0  0  0  0  0  0  0  0
  -31.0111   10.4499  -20.1560 N   0  0  0  0  0  0  0  0  0  0  0  0
  -30.9320   10.9428  -18.7787 C   0  0  0  0  0  0  0  0  0  0  0  0
  -32.2501   10.6529  -18.0561 C   0  0  0  0  0  0  0  0  0  0  0  0
  -32.1817   11.2242  -16.6365 C   0  0  0  0  0  0  0  0  0  0  0  0
  -31.8798   12.7239  -16.7156 C   0  0  0  0  0  0  0  0  0  0  0  0
  -30.5760   12.9339  -17.4899 C   0  0  0  0  0  0  0  0  0  0  0  0
  -30.6964   12.3523  -18.7896 O   0  0  0  0  0  0  0  0  0  0  0  0
  -32.9484   13.3913  -17.3898 O   0  0  0  0  0  0  0  0  0  0  0  0
  -33.4345   11.0228  -15.9793 O   0  0  0  0  0  0  0  0  0  0  0  0
  -33.3286   11.2654  -18.7659 O   0  0  0  0  0  0  0  0  0  0  0  0
  -31.3151   12.6725  -21.3671 C   0  0  0  0  0  0  0  0  0  0  0  0
  -30.3940   13.3867  -21.0148 O   0  0  0  0  0  0  0  0  0  0  0  0
  -32.4586   13.2224  -21.8214 N   0  0  0  0  0  0  0  0  0  0  0  0
  -31.3459   10.6510  -23.7044 N   0  0  0  0  0  0  0  0  0  0  0  0
  -30.4796   10.1634  -24.6144 C   0  0  0  0  0  0  0  0  0  0  0  0
  -29.5720   10.8578  -25.0207 O   0  0  0  0  0  0  0  0  0  0  0  0
  -30.7943    8.3052  -19.8807 H   0  0  0  0  0  0  0  0  0  0  0  0
  -30.1072   10.4367  -18.2555 H   0  0  0  0  0  0  0  0  0  0  0  0
  -32.4156    9.5664  -18.0102 H   0  0  0  0  0  0  0  0  0  0  0  0
  -31.3888   10.7151  -16.0690 H   0  0  0  0  0  0  0  0  0  0  0  0
  -31.7776   13.1348  -15.7004 H   0  0  0  0  0  0  0  0  0  0  0  0
  -30.3768   14.0113  -17.5877 H   0  0  0  0  0  0  0  0  0  0  0  0
  -29.7461   12.4546  -16.9498 H   0  0  0  0  0  0  0  0  0  0  0  0
  -32.9281   14.3559  -17.1679 H   0  0  0  0  0  0  0  0  0  0  0  0
  -33.5838   11.7489  -15.3231 H   0  0  0  0  0  0  0  0  0  0  0  0
  -33.1839   12.2438  -18.8068 H   0  0  0  0  0  0  0  0  0  0  0  0
  -32.7850   13.0169  -22.7764 H   0  0  0  0  0  0  0  0  0  0  0  0
  -33.0062   13.8480  -21.2134 H   0  0  0  0  0  0  0  0  0  0  0  0
  -32.1181   11.2630  -24.0046 H   0  0  0  0  0  0  0  0  0  0  0  0
  -30.5957    9.1356  -24.9888 H   0  0  0  0  0  0  0  0  0  0  0  0
  1  5  1  0  0  0  0
  1  2  2  0  0  0  0
  1 21  1  0  0  0  0
  2  3  1  0  0  0  0
  3  4  2  0  0  0  0
  3 18  1  0  0  0  0
  4  5  1  0  0  0  0
  4 15  1  0  0  0  0
  5  6  1  0  0  0  0
  6 11  1  0  0  0  0
  6  7  1  0  0  0  0
  6 22  1  0  0  0  0
  7  8  1  0  0  0  0
  7 14  1  0  0  0  0
  7 23  1  0  0  0  0
  8  9  1  0  0  0  0
  8 13  1  0  0  0  0
  8 24  1  0  0  0  0
  9 10  1  0  0  0  0
  9 12  1  0  0  0  0
  9 25  1  0  0  0  0
 10 11  1  0  0  0  0
 10 26  1  0  0  0  0
 10 27  1  0  0  0  0
 12 28  1  0  0  0  0
 13 29  1  0  0  0  0
 14 30  1  0  0  0  0
 15 16  2  0  0  0  0
 15 17  1  0  0  0  0
 17 31  1  0  0  0  0
 17 32  1  0  0  0  0
 18 19  1  0  0  0  0
 18 33  1  0  0  0  0
 19 20  2  0  0  0  0
 19 34  1  0  0  0  0
M  END
> <Name>
ZINC01646936

> <reference>
BDB5008

> <quality>
0.705

> <status>
decoy

> <atoms in reference ligand area>
18

> <score>
-33.4726

$$$$
ZINC15939612
      BALL 1.4.0 (Jan  4 2012, 23:22:29)

 54 56  0999  0  0  0  0  0  0999 V2000
  -30.5097   10.7569  -23.7279 C   0  0  0  0  0  0  0  0  0  0  0  0
  -30.5087    9.8061  -22.5291 C   0  0  0  0  0  0  0  0  0  0  0  0
  -30.2004   10.5576  -21.3100 N   0  0  0  0  0  0  0  0  0  0  0  0
  -29.4113   11.6467  -21.4137 C   0  0  0  0  0  0  0  0  0  0  0  0
  -28.9674   11.9937  -22.4929 O   0  0  0  0  0  0  0  0  0  0  0  0
  -29.0996   12.4041  -20.1937 C   0  0  0  0  0  0  0  0  0  0  0  0
  -28.2966   13.5404  -20.1939 C   0  0  0  0  0  0  0  0  0  0  0  0
  -28.0521   14.1950  -19.0055 C   0  0  0  0  0  0  0  0  0  0  0  0
  -28.5979   13.7328  -17.8151 C   0  0  0  0  0  0  0  0  0  0  0  0
  -29.3962   12.6087  -17.7941 C   0  0  0  0  0  0  0  0  0  0  0  0
  -29.6600   11.9365  -18.9824 C   0  0  0  0  0  0  0  0  0  0  0  0
  -30.4961   10.7270  -19.0457 C   0  0  0  0  0  0  0  0  0  0  0  0
  -30.6944   10.1460  -20.2039 N   0  0  0  0  0  0  0  0  0  0  0  0
  -31.1092   10.1779  -17.8199 C   0  0  0  0  0  0  0  0  0  0  0  0
  -31.7294   10.9077  -17.0709 O   0  0  0  0  0  0  0  0  0  0  0  0
  -30.9812    8.8676  -17.5312 N   0  0  0  0  0  0  0  0  0  0  0  0
  -30.3563    8.4703  -16.3419 N   0  0  0  0  0  0  0  0  0  0  0  0
  -30.2283    7.1600  -16.0532 C   0  0  0  0  0  0  0  0  0  0  0  0
  -30.7318    6.7088  -15.0463 O   0  0  0  0  0  0  0  0  0  0  0  0
  -29.4594    6.2555  -16.9815 C   0  0  0  0  0  0  0  0  0  0  0  0
  -30.2369    6.2692  -18.6205 S   0  0  0  0  0  0  0  0  0  0  0  0
  -28.9301    5.6781  -19.7311 C   0  0  0  0  0  0  0  0  0  0  0  0
  -28.7601    4.1672  -19.5600 C   0  0  0  0  0  0  0  0  0  0  0  0
  -29.3077    5.9826  -21.1578 C   0  0  0  0  0  0  0  0  0  0  0  0
  -30.4658    6.1986  -21.4458 O   0  0  0  0  0  0  0  0  0  0  0  0
  -28.3583    6.0151  -22.1139 N   0  0  0  0  0  0  0  0  0  0  0  0
  -28.7078    6.2972  -23.4347 C   0  0  0  0  0  0  0  0  0  0  0  0
  -27.8333    6.3686  -24.5514 C   0  0  0  0  0  0  0  0  0  0  0  0
  -28.6503    6.6669  -25.5871 C   0  0  0  0  0  0  0  0  0  0  0  0
  -29.8901    6.7551  -25.0841 O   0  0  0  0  0  0  0  0  0  0  0  0
  -29.9068    6.5431  -23.8937 N   0  0  0  0  0  0  0  0  0  0  0  0
  -28.2464    6.8612  -27.0259 C   0  0  0  0  0  0  0  0  0  0  0  0
  -31.5453   11.0261  -23.9829 H   0  0  0  0  0  0  0  0  0  0  0  0
  -30.0372   10.2626  -24.5896 H   0  0  0  0  0  0  0  0  0  0  0  0
  -29.9470   11.6676  -23.4749 H   0  0  0  0  0  0  0  0  0  0  0  0
  -31.4998    9.3391  -22.4306 H   0  0  0  0  0  0  0  0  0  0  0  0
  -29.7488    9.0252  -22.6797 H   0  0  0  0  0  0  0  0  0  0  0  0
  -27.8611   13.9127  -21.1330 H   0  0  0  0  0  0  0  0  0  0  0  0
  -27.4176   15.0935  -19.0001 H   0  0  0  0  0  0  0  0  0  0  0  0
  -28.3910   14.2699  -16.8777 H   0  0  0  0  0  0  0  0  0  0  0  0
  -29.8205   12.2470  -16.8458 H   0  0  0  0  0  0  0  0  0  0  0  0
  -31.3428    8.1585  -18.1849 H   0  0  0  0  0  0  0  0  0  0  0  0
  -29.9946    9.1794  -15.6883 H   0  0  0  0  0  0  0  0  0  0  0  0
  -28.4222    6.6120  -17.0655 H   0  0  0  0  0  0  0  0  0  0  0  0
  -29.4636    5.2302  -16.5832 H   0  0  0  0  0  0  0  0  0  0  0  0
  -27.9844    6.1836  -19.4861 H   0  0  0  0  0  0  0  0  0  0  0  0
  -28.1559    3.9642  -18.6634 H   0  0  0  0  0  0  0  0  0  0  0  0
  -28.2545    3.7515  -20.4440 H   0  0  0  0  0  0  0  0  0  0  0  0
  -29.7481    3.6965  -19.4490 H   0  0  0  0  0  0  0  0  0  0  0  0
  -27.3747    5.8318  -21.8695 H   0  0  0  0  0  0  0  0  0  0  0  0
  -26.7440    6.2167  -24.5698 H   0  0  0  0  0  0  0  0  0  0  0  0
  -28.4857    7.9212  -27.1961 H   0  0  0  0  0  0  0  0  0  0  0  0
  -29.0169    6.2909  -27.5654 H   0  0  0  0  0  0  0  0  0  0  0  0
  -27.2148    6.5848  -27.2895 H   0  0  0  0  0  0  0  0  0  0  0  0
  1  2  1  0  0  0  0
  1 33  1  0  0  0  0
  1 34  1  0  0  0  0
  1 35  1  0  0  0  0
  2  3  1  0  0  0  0
  2 36  1  0  0  0  0
  2 37  1  0  0  0  0
  3 13  1  0  0  0  0
  3  4  1  0  0  0  0
  4  5  2  0  0  0  0
  4  6  1  0  0  0  0
  6 11  2  0  0  0  0
  6  7  1  0  0  0  0
  7  8  2  0  0  0  0
  7 38  1  0  0  0  0
  8  9  1  0  0  0  0
  8 39  1  0  0  0  0
  9 10  2  0  0  0  0
  9 40  1  0  0  0  0
 10 11  1  0  0  0  0
 10 41  1  0  0  0  0
 11 12  1  0  0  0  0
 12 13  2  0  0  0  0
 12 14  1  0  0  0  0
 14 15  2  0  0  0  0
 14 16  1  0  0  0  0
 16 17  1  0  0  0  0
 16 42  1  0  0  0  0
 17 18  1  0  0  0  0
 17 43  1  0  0  0  0
 18 19  2  0  0  0  0
 18 20  1  0  0  0  0
 20 21  1  0  0  0  0
 20 44  1  0  0  0  0
 20 45  1  0  0  0  0
 21 22  1  0  0  0  0
 22 23  1  0  0  0  0
 22 24  1  0  0  0  0
 22 46  1  0  0  0  0
 23 47  1  0  0  0  0
 23 48  1  0  0  0  0
 23 49  1  0  0  0  0
 24 25  2  0  0  0  0
 24 26  1  0  0  0  0
 26 27  1  0  0  0  0
 26 50  1  0  0  0  0
 27 31  2  0  0  0  0
 27 28  1  0  0  0  0
 28 29  2  0  0  0  0
 28 51  1  0  0  0  0
 29 30  1  0  0  0  0
 29 32  1  0  0  0  0
 30 31  1  0  0  0  0
 32 52  1  0  0  0  0
 32 53  1  0  0  0  0
 32 54  1  0  0  0  0
M  END
> <Name>
ZINC15939612

> <reference>
BDB4968

> <quality>
0.764

> <status>
decoy

> <atoms in reference ligand area>
17

> <score>
-33.3963

$$$$
ZINC20920233
      BALL 1.4.0 (Jan  4 2012, 23:22:29)

 49 51  0999  0  0  0  0  0  0999 V2000
  -30.7255    4.3742  -29.4305 C   0  0  0  0  0  0  0  0  0  0  0  0
  -32.1253    4.8128  -29.7762 C   0  0  0  0  0  0  0  0  0  0  0  0
  -32.7206    4.6570  -30.9244 N   0  0  0  0  0  0  0  0  0  0  0  0
  -33.9090    5.1457  -30.8591 N   0  0  0  0  0  0  0  0  0  0  0  0
  -34.1124    5.6298  -29.6669 C   0  0  0  0  0  0  0  0  0  0  0  0
  -32.9905    5.4310  -28.9548 O   0  0  0  0  0  0  0  0  0  0  0  0
  -35.3745    6.2915  -29.1764 C   0  0  0  0  0  0  0  0  0  0  0  0
  -36.0363    5.3612  -27.7668 S   0  0  0  0  0  0  0  0  0  0  0  0
  -35.2705    6.1074  -26.3663 C   0  0  0  0  0  0  0  0  0  0  0  0
  -35.4490    5.7607  -25.1140 N   0  0  0  0  0  0  0  0  0  0  0  0
  -34.6603    6.5996  -24.3159 N   0  0  0  0  0  0  0  0  0  0  0  0
  -34.0257    7.4313  -25.1062 C   0  0  0  0  0  0  0  0  0  0  0  0
  -34.3819    7.1446  -26.3947 N   0  0  0  0  0  0  0  0  0  0  0  0
  -33.9313    7.7853  -27.5137 N   0  0  0  0  0  0  0  0  0  0  0  0
  -33.1430    8.4239  -24.7057 N   0  0  0  0  0  0  0  0  0  0  0  0
  -33.1679    8.8926  -23.3856 N   0  0  0  0  0  0  0  0  0  0  0  0
  -32.3417    9.8218  -23.0108 C   0  0  0  0  0  0  0  0  0  0  0  0
  -32.3679   10.3150  -21.6219 C   0  0  0  0  0  0  0  0  0  0  0  0
  -32.4133   11.6881  -21.3674 C   0  0  0  0  0  0  0  0  0  0  0  0
  -32.4423   12.1477  -20.0629 C   0  0  0  0  0  0  0  0  0  0  0  0
  -32.4164   11.2445  -19.0049 C   0  0  0  0  0  0  0  0  0  0  0  0
  -32.3659    9.8769  -19.2550 C   0  0  0  0  0  0  0  0  0  0  0  0
  -32.3416    9.4107  -20.5572 C   0  0  0  0  0  0  0  0  0  0  0  0
  -32.3398    8.9973  -18.2180 O   0  0  0  0  0  0  0  0  0  0  0  0
  -31.9295    9.5050  -16.9468 C   0  0  0  0  0  0  0  0  0  0  0  0
  -32.4401   11.6999  -17.7230 O   0  0  0  0  0  0  0  0  0  0  0  0
  -33.4522   12.6527  -17.3915 C   0  0  0  0  0  0  0  0  0  0  0  0
  -32.4907   13.4839  -19.8144 O   0  0  0  0  0  0  0  0  0  0  0  0
  -32.7360   14.3427  -20.9298 C   0  0  0  0  0  0  0  0  0  0  0  0
  -30.1086    5.0043  -30.0882 H   0  0  0  0  0  0  0  0  0  0  0  0
  -30.6808    3.3608  -29.8561 H   0  0  0  0  0  0  0  0  0  0  0  0
  -30.4454    4.4268  -28.3682 H   0  0  0  0  0  0  0  0  0  0  0  0
  -35.1504    7.3216  -28.8624 H   0  0  0  0  0  0  0  0  0  0  0  0
  -36.1193    6.3085  -29.9857 H   0  0  0  0  0  0  0  0  0  0  0  0
  -34.4215    7.5536  -28.3894 H   0  0  0  0  0  0  0  0  0  0  0  0
  -33.1528    8.4595  -27.4997 H   0  0  0  0  0  0  0  0  0  0  0  0
  -32.4693    8.8162  -25.3788 H   0  0  0  0  0  0  0  0  0  0  0  0
  -31.6224   10.2408  -23.7298 H   0  0  0  0  0  0  0  0  0  0  0  0
  -32.4260   12.4028  -22.2034 H   0  0  0  0  0  0  0  0  0  0  0  0
  -32.3017    8.3292  -20.7543 H   0  0  0  0  0  0  0  0  0  0  0  0
  -30.8295    9.5008  -16.9524 H   0  0  0  0  0  0  0  0  0  0  0  0
  -32.2659    8.7727  -16.1981 H   0  0  0  0  0  0  0  0  0  0  0  0
  -32.3297   10.5086  -16.7402 H   0  0  0  0  0  0  0  0  0  0  0  0
  -33.1324   13.1297  -16.4533 H   0  0  0  0  0  0  0  0  0  0  0  0
  -34.3644   12.0747  -17.1823 H   0  0  0  0  0  0  0  0  0  0  0  0
  -33.6159   13.3939  -18.1876 H   0  0  0  0  0  0  0  0  0  0  0  0
  -31.8128   14.3443  -21.5278 H   0  0  0  0  0  0  0  0  0  0  0  0
  -32.8728   15.3534  -20.5177 H   0  0  0  0  0  0  0  0  0  0  0  0
  -33.6046   14.0275  -21.5266 H   0  0  0  0  0  0  0  0  0  0  0  0
  1  2  1  0  0  0  0
  1 30  1  0  0  0  0
  1 31  1  0  0  0  0
  1 32  1  0  0  0  0
  2  6  1  0  0  0  0
  2  3  2  0  0  0  0
  3  4  1  0  0  0  0
  4  5  2  0  0  0  0
  5  6  1  0  0  0  0
  5  7  1  0  0  0  0
  7  8  1  0  0  0  0
  7 33  1  0  0  0  0
  7 34  1  0  0  0  0
  8  9  1  0  0  0  0
  9 13  1  0  0  0  0
  9 10  2  0  0  0  0
 10 11  1  0  0  0  0
 11 12  2  0  0  0  0
 12 13  1  0  0  0  0
 12 15  1  0  0  0  0
 13 14  1  0  0  0  0
 14 35  1  0  0  0  0
 14 36  1  0  0  0  0
 15 16  1  0  0  0  0
 15 37  1  0  0  0  0
 16 17  2  0  0  0  0
 17 18  1  0  0  0  0
 17 38  1  0  0  0  0
 18 23  2  0  0  0  0
 18 19  1  0  0  0  0
 19 20  2  0  0  0  0
 19 39  1  0  0  0  0
 20 21  1  0  0  0  0
 20 28  1  0  0  0  0
 21 22  2  0  0  0  0
 21 26  1  0  0  0  0
 22 23  1  0  0  0  0
 22 24  1  0  0  0  0
 23 40  1  0  0  0  0
 24 25  1  0  0  0  0
 25 41  1  0  0  0  0
 25 42  1  0  0  0  0
 25 43  1  0  0  0  0
 26 27  1  0  0  0  0
 27 44  1  0  0  0  0
 27 45  1  0  0  0  0
 27 46  1  0  0  0  0
 28 29  1  0  0  0  0
 29 47  1  0  0  0  0
 29 48  1  0  0  0  0
 29 49  1  0  0  0  0
M  END
> <Name>
ZINC20920233

> <reference>
BDB4965

> <quality>
0.809

> <status>
decoy

> <atoms in reference ligand area>
12

> <score>
-33.3646

$$$$
ZINC19328598
      BALL 1.4.0 (Jan  4 2012, 23:22:29)

 39 39  0999  0  0  0  0  0  0999 V2000
  -25.8992    6.5360  -27.3693 C   0  0  0  0  0  0  0  0  0  0  0  0
  -27.1945    6.8092  -26.6023 C   0  0  0  0  0  0  0  0  0  0  0  0
  -28.3260    6.8169  -27.5390 N   0  3  0  0  0  0  0  0  0  0  0  0
  -27.3987    5.7583  -25.5964 N   0  0  0  0  0  0  0  0  0  0  0  0
  -28.6926    5.9213  -24.9200 C   0  0  0  0  0  0  0  0  0  0  0  0
  -28.5155    6.8108  -23.6878 C   0  0  0  0  0  0  0  0  0  0  0  0
  -29.5697    7.9196  -23.7034 C   0  0  0  0  0  0  0  0  0  0  0  0
  -29.0123    9.1630  -23.0077 C   0  0  0  0  0  0  0  0  0  0  0  0
  -29.4441   10.4138  -23.7757 C   0  0  0  0  0  0  0  0  0  0  0  0
  -30.8167   10.8353  -23.3182 C   0  0  0  0  0  0  0  0  0  0  0  0
  -31.6854   11.0603  -24.1341 O   0  0  0  0  0  0  0  0  0  0  0  0
  -31.0790   10.9623  -22.0023 N   0  0  0  0  0  0  0  0  0  0  0  0
  -32.3532   11.3535  -21.5776 C   0  0  0  0  0  0  0  0  0  0  0  0
  -32.8903   12.5467  -21.7234 N   0  5  0  0  0  0  0  0  0  0  0  0
  -34.1722   12.4647  -21.1549 N   0  0  0  0  0  0  0  0  0  0  0  0
  -34.3106   11.2639  -20.7061 N   0  0  0  0  0  0  0  0  0  0  0  0
  -33.2459   10.5860  -20.9509 N   0  0  0  0  0  0  0  0  0  0  0  0
  -29.4769   10.1182  -25.2143 N   0  3  0  0  0  0  0  0  0  0  0  0
  -25.3412    5.7284  -26.8728 H   0  0  0  0  0  0  0  0  0  0  0  0
  -25.2840    7.4478  -27.3886 H   0  0  0  0  0  0  0  0  0  0  0  0
  -26.1390    6.2349  -28.3998 H   0  0  0  0  0  0  0  0  0  0  0  0
  -27.1256    7.7867  -26.1026 H   0  0  0  0  0  0  0  0  0  0  0  0
  -28.0140    6.4736  -28.4587 H   0  0  0  0  0  0  0  0  0  0  0  0
  -28.6864    7.7769  -27.6358 H   0  0  0  0  0  0  0  0  0  0  0  0
  -29.0733    6.2053  -27.1808 H   0  0  0  0  0  0  0  0  0  0  0  0
  -27.3703    4.8373  -26.0566 H   0  0  0  0  0  0  0  0  0  0  0  0
  -29.4105    6.3896  -25.6095 H   0  0  0  0  0  0  0  0  0  0  0  0
  -29.0717    4.9366  -24.6091 H   0  0  0  0  0  0  0  0  0  0  0  0
  -28.6351    6.2047  -22.7776 H   0  0  0  0  0  0  0  0  0  0  0  0
  -27.5116    7.2602  -23.6998 H   0  0  0  0  0  0  0  0  0  0  0  0
  -29.8268    8.1666  -24.7441 H   0  0  0  0  0  0  0  0  0  0  0  0
  -30.4713    7.5774  -23.1743 H   0  0  0  0  0  0  0  0  0  0  0  0
  -29.3999    9.2127  -21.9794 H   0  0  0  0  0  0  0  0  0  0  0  0
  -27.9139    9.1096  -22.9834 H   0  0  0  0  0  0  0  0  0  0  0  0
  -28.7282   11.2268  -23.5847 H   0  0  0  0  0  0  0  0  0  0  0  0
  -30.3413   10.7713  -21.3093 H   0  0  0  0  0  0  0  0  0  0  0  0
  -28.5211   10.1594  -25.5960 H   0  0  0  0  0  0  0  0  0  0  0  0
  -30.0682   10.8113  -25.6948 H   0  0  0  0  0  0  0  0  0  0  0  0
  -29.8645    9.1756  -25.3631 H   0  0  0  0  0  0  0  0  0  0  0  0
  1  2  1  0  0  0  0
  1 19  1  0  0  0  0
  1 20  1  0  0  0  0
  1 21  1  0  0  0  0
  2  3  1  0  0  0  0
  2  4  1  0  0  0  0
  2 22  1  0  0  0  0
  3 23  1  0  0  0  0
  3 24  1  0  0  0  0
  3 25  1  0  0  0  0
  4  5  1  0  0  0  0
  4 26  1  0  0  0  0
  5  6  1  0  0  0  0
  5 27  1  0  0  0  0
  5 28  1  0  0  0  0
  6  7  1  0  0  0  0
  6 29  1  0  0  0  0
  6 30  1  0  0  0  0
  7  8  1  0  0  0  0
  7 31  1  0  0  0  0
  7 32  1  0  0  0  0
  8  9  1  0  0  0  0
  8 33  1  0  0  0  0
  8 34  1  0  0  0  0
  9 10  1  0  0  0  0
  9 18  1  0  0  0  0
  9 35  1  0  0  0  0
 10 11  2  0  0  0  0
 10 12  1  0  0  0  0
 12 13  1  0  0  0  0
 12 36  1  0  0  0  0
 13 14  1  0  0  0  0
 13 17  2  0  0  0  0
 14 15  1  0  0  0  0
 15 16  2  0  0  0  0
 16 17  1  0  0  0  0
 18 37  1  0  0  0  0
 18 38  1  0  0  0  0
 18 39  1  0  0  0  0
M  END
> <Name>
ZINC19328598

> <reference>
BDB4986

> <quality>
0.714

> <status>
decoy

> <atoms in reference ligand area>
11

> <score>
-32.8005

$$$$
ZINC04777692
      BALL 1.4.0 (Jan  4 2012, 23:22:29)

 41 42  0999  0  0  0  0  0  0999 V2000
  -33.8783    9.3060  -22.2750 C   0  0  0  0  0  0  0  0  0  0  0  0
  -34.5190    8.6475  -23.4291 C   0  0  0  0  0  0  0  0  0  0  0  0
  -35.7074    7.9458  -23.5880 C   0  0  0  0  0  0  0  0  0  0  0  0
  -35.7968    7.5751  -24.8421 N   0  0  0  0  0  0  0  0  0  0  0  0
  -34.6657    8.0234  -25.5443 N   0  0  0  0  0  0  0  0  0  0  0  0
  -33.8689    8.6825  -24.6825 C   0  0  0  0  0  0  0  0  0  0  0  0
  -32.6791    9.3002  -24.8164 N   0  0  0  0  0  0  0  0  0  0  0  0
  -32.0635    9.7428  -23.7499 C   0  0  0  0  0  0  0  0  0  0  0  0
  -32.5161    9.5451  -22.4793 N   0  0  0  0  0  0  0  0  0  0  0  0
  -31.5892    9.5823  -21.3454 C   0  0  0  0  0  0  0  0  0  0  0  0
  -31.3007   11.0373  -20.9701 C   0  0  0  0  0  0  0  0  0  0  0  0
  -29.9424   11.1239  -20.2710 C   0  0  0  0  0  0  0  0  0  0  0  0
  -29.5396   12.5922  -20.1195 C   0  0  0  0  0  0  0  0  0  0  0  0
  -28.3149   12.6935  -19.2079 C   0  0  0  0  0  0  0  0  0  0  0  0
  -27.6161   14.0347  -19.4399 C   0  0  0  0  0  0  0  0  0  0  0  0
  -27.0762   14.5102  -18.2052 O   0  0  0  0  0  0  0  0  0  0  0  0
  -28.7281   12.6013  -17.8430 O   0  0  0  0  0  0  0  0  0  0  0  0
  -29.2241   13.1345  -21.4032 O   0  0  0  0  0  0  0  0  0  0  0  0
  -30.0318   10.5186  -18.9797 O   0  0  0  0  0  0  0  0  0  0  0  0
  -31.2797   11.8391  -22.1528 O   0  0  0  0  0  0  0  0  0  0  0  0
  -34.3995    7.8109  -26.9691 C   0  0  0  0  0  0  0  0  0  0  0  0
  -34.4688    9.6619  -21.1350 N   0  0  0  0  0  0  0  0  0  0  0  0
  -36.4448    7.7376  -22.7988 H   0  0  0  0  0  0  0  0  0  0  0  0
  -31.1285   10.3060  -23.8863 H   0  0  0  0  0  0  0  0  0  0  0  0
  -30.6492    9.0825  -21.6222 H   0  0  0  0  0  0  0  0  0  0  0  0
  -32.0403    9.0650  -20.4858 H   0  0  0  0  0  0  0  0  0  0  0  0
  -32.0859   11.4038  -20.2925 H   0  0  0  0  0  0  0  0  0  0  0  0
  -29.1866   10.5965  -20.8715 H   0  0  0  0  0  0  0  0  0  0  0  0
  -30.3734   13.1574  -19.6776 H   0  0  0  0  0  0  0  0  0  0  0  0
  -27.6188   11.8730  -19.4364 H   0  0  0  0  0  0  0  0  0  0  0  0
  -26.8027   13.9032  -20.1687 H   0  0  0  0  0  0  0  0  0  0  0  0
  -28.3415   14.7651  -19.8276 H   0  0  0  0  0  0  0  0  0  0  0  0
  -26.1284   14.7651  -18.3347 H   0  0  0  0  0  0  0  0  0  0  0  0
  -28.5704   11.6822  -17.5108 H   0  0  0  0  0  0  0  0  0  0  0  0
  -29.9235   13.7827  -21.6696 H   0  0  0  0  0  0  0  0  0  0  0  0
  -29.5172    9.6729  -18.9742 H   0  0  0  0  0  0  0  0  0  0  0  0
  -31.9763   12.5398  -22.0899 H   0  0  0  0  0  0  0  0  0  0  0  0
  -33.3408    7.5122  -26.9701 H   0  0  0  0  0  0  0  0  0  0  0  0
  -34.4193    8.8355  -27.3690 H   0  0  0  0  0  0  0  0  0  0  0  0
  -35.0624    7.1109  -27.4988 H   0  0  0  0  0  0  0  0  0  0  0  0
  -33.9128   10.1182  -20.3978 H   0  0  0  0  0  0  0  0  0  0  0  0
  1  9  1  0  0  0  0
  1  2  1  0  0  0  0
  1 22  2  0  0  0  0
  2  6  2  0  0  0  0
  2  3  1  0  0  0  0
  3  4  2  0  0  0  0
  3 23  1  0  0  0  0
  4  5  1  0  0  0  0
  5  6  1  0  0  0  0
  5 21  1  0  0  0  0
  6  7  1  0  0  0  0
  7  8  2  0  0  0  0
  8  9  1  0  0  0  0
  8 24  1  0  0  0  0
  9 10  1  0  0  0  0
 10 11  1  0  0  0  0
 10 25  1  0  0  0  0
 10 26  1  0  0  0  0
 11 12  1  0  0  0  0
 11 20  1  0  0  0  0
 11 27  1  0  0  0  0
 12 13  1  0  0  0  0
 12 19  1  0  0  0  0
 12 28  1  0  0  0  0
 13 14  1  0  0  0  0
 13 18  1  0  0  0  0
 13 29  1  0  0  0  0
 14 15  1  0  0  0  0
 14 17  1  0  0  0  0
 14 30  1  0  0  0  0
 15 16  1  0  0  0  0
 15 31  1  0  0  0  0
 15 32  1  0  0  0  0
 16 33  1  0  0  0  0
 17 34  1  0  0  0  0
 18 35  1  0  0  0  0
 19 36  1  0  0  0  0
 20 37  1  0  0  0  0
 21 38  1  0  0  0  0
 21 39  1  0  0  0  0
 21 40  1  0  0  0  0
 22 41  1  0  0  0  0
M  END
> <Name>
ZINC04777692

> <reference>
BDB4934

> <quality>
0.663

> <status>
decoy

> <atoms in reference ligand area>
19

> <score>
-32.2792

$$$$
ZINC20261639
      BALL 1.4.0 (Jan  4 2012, 23:22:29)

 36 36  0999  0  0  0  0  0  0999 V2000
  -26.8203    6.4478  -25.3226 C   0  0  0  0  0  0  0  0  0  0  0  0
  -27.3425    6.7393  -23.9144 C   0  0  0  0  0  0  0  0  0  0  0  0
  -28.5386    7.5165  -24.0012 O   0  0  0  0  0  0  0  0  0  0  0  0
  -29.6466    6.8928  -24.4839 C   0  0  0  0  0  0  0  0  0  0  0  0
  -29.5202    5.7373  -25.2372 C   0  0  0  0  0  0  0  0  0  0  0  0
  -30.6477    5.1037  -25.7264 C   0  0  0  0  0  0  0  0  0  0  0  0
  -31.9034    5.6202  -25.4661 C   0  0  0  0  0  0  0  0  0  0  0  0
  -32.0385    6.7702  -24.7113 C   0  0  0  0  0  0  0  0  0  0  0  0
  -30.9115    7.4143  -24.2215 C   0  0  0  0  0  0  0  0  0  0  0  0
  -31.0453    8.5816  -23.4610 N   0  0  0  0  0  0  0  0  0  0  0  0
  -31.7099    8.5337  -22.1563 C   0  0  0  0  0  0  0  0  0  0  0  0
  -30.4526   10.0170  -24.0361 S   0  0  0  0  0  0  0  0  0  0  0  0
  -31.6024   10.8234  -24.2528 O   0  0  0  0  0  0  0  0  0  0  0  0
  -29.6086    9.6525  -25.1197 O   0  0  0  0  0  0  0  0  0  0  0  0
  -29.4635   10.6923  -22.6736 C   0  0  0  0  0  0  0  0  0  0  0  0
  -28.0842   11.0980  -23.1970 C   0  0  0  0  0  0  0  0  0  0  0  0
  -27.8785   12.5350  -22.9721 N   0  3  0  0  0  0  0  0  0  0  0  0
  -26.1314    7.2476  -25.6322 H   0  0  0  0  0  0  0  0  0  0  0  0
  -27.6652    6.4000  -26.0255 H   0  0  0  0  0  0  0  0  0  0  0  0
  -26.2878    5.4853  -25.3251 H   0  0  0  0  0  0  0  0  0  0  0  0
  -27.5583    5.7914  -23.3998 H   0  0  0  0  0  0  0  0  0  0  0  0
  -26.5828    7.2988  -23.3490 H   0  0  0  0  0  0  0  0  0  0  0  0
  -28.5226    5.3236  -25.4462 H   0  0  0  0  0  0  0  0  0  0  0  0
  -30.5452    4.1861  -26.3244 H   0  0  0  0  0  0  0  0  0  0  0  0
  -32.7972    5.1149  -25.8607 H   0  0  0  0  0  0  0  0  0  0  0  0
  -33.0391    7.1746  -24.4989 H   0  0  0  0  0  0  0  0  0  0  0  0
  -32.3603    7.6477  -22.2008 H   0  0  0  0  0  0  0  0  0  0  0  0
  -32.3661    9.4163  -22.1387 H   0  0  0  0  0  0  0  0  0  0  0  0
  -31.0188    8.5060  -21.3010 H   0  0  0  0  0  0  0  0  0  0  0  0
  -29.9701   11.5742  -22.2547 H   0  0  0  0  0  0  0  0  0  0  0  0
  -29.3477    9.9291  -21.8898 H   0  0  0  0  0  0  0  0  0  0  0  0
  -27.3079   10.5292  -22.6643 H   0  0  0  0  0  0  0  0  0  0  0  0
  -28.0219   10.8835  -24.2741 H   0  0  0  0  0  0  0  0  0  0  0  0
  -26.8965   12.7769  -23.1672 H   0  0  0  0  0  0  0  0  0  0  0  0
  -28.1003   12.7655  -21.9930 H   0  0  0  0  0  0  0  0  0  0  0  0
  -28.4945   13.0728  -23.5983 H   0  0  0  0  0  0  0  0  0  0  0  0
  1  2  1  0  0  0  0
  1 18  1  0  0  0  0
  1 19  1  0  0  0  0
  1 20  1  0  0  0  0
  2  3  1  0  0  0  0
  2 21  1  0  0  0  0
  2 22  1  0  0  0  0
  3  4  1  0  0  0  0
  4  9  2  0  0  0  0
  4  5  1  0  0  0  0
  5  6  2  0  0  0  0
  5 23  1  0  0  0  0
  6  7  1  0  0  0  0
  6 24  1  0  0  0  0
  7  8  2  0  0  0  0
  7 25  1  0  0  0  0
  8  9  1  0  0  0  0
  8 26  1  0  0  0  0
  9 10  1  0  0  0  0
 10 11  1  0  0  0  0
 10 12  1  0  0  0  0
 11 27  1  0  0  0  0
 11 28  1  0  0  0  0
 11 29  1  0  0  0  0
 12 13  2  0  0  0  0
 12 14  2  0  0  0  0
 12 15  1  0  0  0  0
 15 16  1  0  0  0  0
 15 30  1  0  0  0  0
 15 31  1  0  0  0  0
 16 17  1  0  0  0  0
 16 32  1  0  0  0  0
 16 33  1  0  0  0  0
 17 34  1  0  0  0  0
 17 35  1  0  0  0  0
 17 36  1  0  0  0  0
M  END
> <Name>
ZINC20261639

> <reference>
BDB5204

> <quality>
0.750

> <status>
decoy

> <atoms in reference ligand area>
10

> <score>
-32.2721

$$$$
ZINC11661273
      BALL 1.4.0 (Jan  4 2012, 23:22:29)

 41 42  0999  0  0  0  0  0  0999 V2000
  -27.1212   12.6695  -21.2154 C   0  0  0  0  0  0  0  0  0  0  0  0
  -27.3825   12.6883  -19.7314 C   0  0  0  0  0  0  0  0  0  0  0  0
  -28.6609   12.7255  -19.1260 C   0  0  0  0  0  0  0  0  0  0  0  0
  -28.5216   12.7269  -17.8298 N   0  0  0  0  0  0  0  0  0  0  0  0
  -27.1306   12.6965  -17.5530 O   0  0  0  0  0  0  0  0  0  0  0  0
  -26.4699   12.6771  -18.8080 N   0  0  0  0  0  0  0  0  0  0  0  0
  -29.8444   12.7498  -19.7895 O   0  0  0  0  0  0  0  0  0  0  0  0
  -29.8155   13.1793  -21.1521 C   0  0  0  0  0  0  0  0  0  0  0  0
  -30.7629   12.3097  -21.9812 C   0  0  0  0  0  0  0  0  0  0  0  0
  -30.8064   10.2268  -23.2150 C   0  0  0  0  0  0  0  0  0  0  0  0
  -29.9889    9.3208  -24.1379 C   0  0  0  0  0  0  0  0  0  0  0  0
  -28.7121    8.8806  -23.4176 C   0  0  0  0  0  0  0  0  0  0  0  0
  -28.0509    7.7678  -24.2397 C   0  0  0  0  0  0  0  0  0  0  0  0
  -28.9467    6.5291  -24.1964 C   0  0  0  0  0  0  0  0  0  0  0  0
  -30.3172    6.8780  -24.5491 N   0  0  0  0  0  0  0  0  0  0  0  0
  -30.8073    8.1174  -24.5085 C   0  0  0  0  0  0  0  0  0  0  0  0
  -31.9765    8.2818  -24.7860 O   0  0  0  0  0  0  0  0  0  0  0  0
  -31.2123    5.7994  -24.9753 C   0  0  0  0  0  0  0  0  0  0  0  0
  -29.6399   10.0406  -25.3220 O   0  0  0  0  0  0  0  0  0  0  0  0
  -29.9691   11.3638  -22.7880 N   0  3  0  0  0  0  0  0  0  0  0  0
  -27.7052   11.8035  -21.5604 H   0  0  0  0  0  0  0  0  0  0  0  0
  -26.0637   12.3734  -21.2786 H   0  0  0  0  0  0  0  0  0  0  0  0
  -27.3525   13.6013  -21.7523 H   0  0  0  0  0  0  0  0  0  0  0  0
  -28.7929   13.0845  -21.5461 H   0  0  0  0  0  0  0  0  0  0  0  0
  -30.1358   14.2299  -21.2124 H   0  0  0  0  0  0  0  0  0  0  0  0
  -31.4301   11.7494  -21.3096 H   0  0  0  0  0  0  0  0  0  0  0  0
  -31.3611   12.9484  -22.6478 H   0  0  0  0  0  0  0  0  0  0  0  0
  -31.6878   10.6027  -23.7552 H   0  0  0  0  0  0  0  0  0  0  0  0
  -31.1299    9.6572  -22.3314 H   0  0  0  0  0  0  0  0  0  0  0  0
  -28.0235    9.7341  -23.3316 H   0  0  0  0  0  0  0  0  0  0  0  0
  -28.9640    8.4994  -22.4169 H   0  0  0  0  0  0  0  0  0  0  0  0
  -27.0674    7.5257  -23.8108 H   0  0  0  0  0  0  0  0  0  0  0  0
  -27.9323    8.0999  -25.2817 H   0  0  0  0  0  0  0  0  0  0  0  0
  -28.5679    5.7804  -24.9077 H   0  0  0  0  0  0  0  0  0  0  0  0
  -28.9302    6.1015  -23.1831 H   0  0  0  0  0  0  0  0  0  0  0  0
  -31.9070    5.6387  -24.1378 H   0  0  0  0  0  0  0  0  0  0  0  0
  -30.5813    4.9021  -25.0577 H   0  0  0  0  0  0  0  0  0  0  0  0
  -31.7422    6.0179  -25.9142 H   0  0  0  0  0  0  0  0  0  0  0  0
  -30.4108   10.0509  -25.9431 H   0  0  0  0  0  0  0  0  0  0  0  0
  -29.6025   11.8484  -23.6197 H   0  0  0  0  0  0  0  0  0  0  0  0
  -29.1797   11.0136  -22.2266 H   0  0  0  0  0  0  0  0  0  0  0  0
  1  2  1  0  0  0  0
  1 21  1  0  0  0  0
  1 22  1  0  0  0  0
  1 23  1  0  0  0  0
  2  6  2  0  0  0  0
  2  3  1  0  0  0  0
  3  4  2  0  0  0  0
  3  7  1  0  0  0  0
  4  5  1  0  0  0  0
  5  6  1  0  0  0  0
  7  8  1  0  0  0  0
  8  9  1  0  0  0  0
  8 24  1  0  0  0  0
  8 25  1  0  0  0  0
  9 20  1  0  0  0  0
  9 26  1  0  0  0  0
  9 27  1  0  0  0  0
 10 11  1  0  0  0  0
 10 20  1  0  0  0  0
 10 28  1  0  0  0  0
 10 29  1  0  0  0  0
 11 16  1  0  0  0  0
 11 12  1  0  0  0  0
 11 19  1  0  0  0  0
 12 13  1  0  0  0  0
 12 30  1  0  0  0  0
 12 31  1  0  0  0  0
 13 14  1  0  0  0  0
 13 32  1  0  0  0  0
 13 33  1  0  0  0  0
 14 15  1  0  0  0  0
 14 34  1  0  0  0  0
 14 35  1  0  0  0  0
 15 16  1  0  0  0  0
 15 18  1  0  0  0  0
 16 17  2  0  0  0  0
 18 36  1  0  0  0  0
 18 37  1  0  0  0  0
 18 38  1  0  0  0  0
 19 39  1  0  0  0  0
 20 40  1  0  0  0  0
 20 41  1  0  0  0  0
M  END
> <Name>
ZINC11661273

> <reference>
BDB5232

> <quality>
0.754

> <status>
decoy

> <atoms in reference ligand area>
21

> <score>
-32.264

$$$$
ZINC25049844
      BALL 1.4.0 (Jan  4 2012, 23:22:29)

 59 61  0999  0  0  0  0  0  0999 V2000
  -32.1831    9.6499  -17.9945 C   0  0  0  0  0  0  0  0  0  0  0  0
  -31.3046   10.4853  -18.8895 C   0  0  0  0  0  0  0  0  0  0  0  0
  -31.0915   10.1343  -20.2147 C   0  0  0  0  0  0  0  0  0  0  0  0
  -30.0139   11.4611  -20.7369 S   0  0  0  0  0  0  0  0  0  0  0  0
  -29.9461   12.3080  -19.2226 C   0  0  0  0  0  0  0  0  0  0  0  0
  -30.7146   11.5631  -18.4419 N   0  0  0  0  0  0  0  0  0  0  0  0
  -29.2645   13.4650  -18.9113 N   0  0  0  0  0  0  0  0  0  0  0  0
  -28.7945   13.4410  -17.5186 C   0  0  0  0  0  0  0  0  0  0  0  0
  -27.9939   14.7146  -17.2338 C   0  0  0  0  0  0  0  0  0  0  0  0
  -28.8096   15.8563  -17.5104 O   0  0  0  0  0  0  0  0  0  0  0  0
  -29.2842   15.9118  -18.8583 C   0  0  0  0  0  0  0  0  0  0  0  0
  -30.0980   14.6504  -19.1595 C   0  0  0  0  0  0  0  0  0  0  0  0
  -31.6097    8.9978  -20.9749 C   0  0  0  0  0  0  0  0  0  0  0  0
  -31.0880    7.9032  -20.8651 O   0  0  0  0  0  0  0  0  0  0  0  0
  -32.6651    9.1620  -21.7970 N   0  0  0  0  0  0  0  0  0  0  0  0
  -32.9073    8.2352  -22.8195 N   0  0  0  0  0  0  0  0  0  0  0  0
  -32.7214    8.5883  -24.1068 C   0  0  0  0  0  0  0  0  0  0  0  0
  -32.0208    9.5399  -24.3795 O   0  0  0  0  0  0  0  0  0  0  0  0
  -33.3842    7.8006  -25.2075 C   0  0  0  0  0  0  0  0  0  0  0  0
  -34.4854    8.6473  -25.8486 C   0  0  0  0  0  0  0  0  0  0  0  0
  -34.9882    7.9547  -27.1169 C   0  0  0  0  0  0  0  0  0  0  0  0
  -34.4331    6.6008  -27.1866 N   0  0  0  0  0  0  0  0  0  0  0  0
  -34.0167    6.1032  -28.3679 C   0  0  0  0  0  0  0  0  0  0  0  0
  -34.1017    6.7780  -29.3758 O   0  0  0  0  0  0  0  0  0  0  0  0
  -33.4574    4.7391  -28.4382 C   0  0  0  0  0  0  0  0  0  0  0  0
  -32.1504    4.5403  -28.8907 C   0  0  0  0  0  0  0  0  0  0  0  0
  -31.6321    3.2661  -28.9544 C   0  0  0  0  0  0  0  0  0  0  0  0
  -32.4073    2.1785  -28.5693 C   0  0  0  0  0  0  0  0  0  0  0  0
  -33.7078    2.3720  -28.1187 C   0  0  0  0  0  0  0  0  0  0  0  0
  -34.2334    3.6430  -28.0520 C   0  0  0  0  0  0  0  0  0  0  0  0
  -31.8928    0.9243  -28.6335 O   0  0  0  0  0  0  0  0  0  0  0  0
  -32.0223    0.1096  -27.4667 C   0  0  0  0  0  0  0  0  0  0  0  0
  -33.1226   10.2165  -17.9153 H   0  0  0  0  0  0  0  0  0  0  0  0
  -31.6968    9.6885  -17.0086 H   0  0  0  0  0  0  0  0  0  0  0  0
  -32.3369    8.6209  -18.3518 H   0  0  0  0  0  0  0  0  0  0  0  0
  -28.1523   12.5618  -17.3616 H   0  0  0  0  0  0  0  0  0  0  0  0
  -29.6588   13.3919  -16.8399 H   0  0  0  0  0  0  0  0  0  0  0  0
  -27.6897   14.7285  -16.1768 H   0  0  0  0  0  0  0  0  0  0  0  0
  -27.1001   14.7387  -17.8746 H   0  0  0  0  0  0  0  0  0  0  0  0
  -29.9219   16.7988  -18.9871 H   0  0  0  0  0  0  0  0  0  0  0  0
  -28.4291   15.9695  -19.5479 H   0  0  0  0  0  0  0  0  0  0  0  0
  -30.4160   14.6620  -20.2124 H   0  0  0  0  0  0  0  0  0  0  0  0
  -30.9835   14.6212  -18.5074 H   0  0  0  0  0  0  0  0  0  0  0  0
  -33.2935    9.9687  -21.6736 H   0  0  0  0  0  0  0  0  0  0  0  0
  -33.2275    7.2842  -22.5874 H   0  0  0  0  0  0  0  0  0  0  0  0
  -32.6367    7.5343  -25.9693 H   0  0  0  0  0  0  0  0  0  0  0  0
  -33.8245    6.8833  -24.7895 H   0  0  0  0  0  0  0  0  0  0  0  0
  -35.3187    8.7631  -25.1398 H   0  0  0  0  0  0  0  0  0  0  0  0
  -34.0839    9.6382  -26.1074 H   0  0  0  0  0  0  0  0  0  0  0  0
  -36.0865    7.8994  -27.0938 H   0  0  0  0  0  0  0  0  0  0  0  0
  -34.6683    8.5271  -28.0001 H   0  0  0  0  0  0  0  0  0  0  0  0
  -34.3611    6.0291  -26.3328 H   0  0  0  0  0  0  0  0  0  0  0  0
  -31.5363    5.4005  -29.1956 H   0  0  0  0  0  0  0  0  0  0  0  0
  -30.6032    3.1088  -29.3105 H   0  0  0  0  0  0  0  0  0  0  0  0
  -34.3180    1.5087  -27.8149 H   0  0  0  0  0  0  0  0  0  0  0  0
  -35.2627    3.7954  -27.6952 H   0  0  0  0  0  0  0  0  0  0  0  0
  -31.7897    0.7581  -26.6092 H   0  0  0  0  0  0  0  0  0  0  0  0
  -31.2347   -0.6554  -27.5346 H   0  0  0  0  0  0  0  0  0  0  0  0
  -33.0201   -0.3436  -27.3729 H   0  0  0  0  0  0  0  0  0  0  0  0
  1  2  1  0  0  0  0
  1 33  1  0  0  0  0
  1 34  1  0  0  0  0
  1 35  1  0  0  0  0
  2  6  1  0  0  0  0
  2  3  2  0  0  0  0
  3  4  1  0  0  0  0
  3 13  1  0  0  0  0
  4  5  1  0  0  0  0
  5  6  2  0  0  0  0
  5  7  1  0  0  0  0
  7 12  1  0  0  0  0
  7  8  1  0  0  0  0
  8  9  1  0  0  0  0
  8 36  1  0  0  0  0
  8 37  1  0  0  0  0
  9 10  1  0  0  0  0
  9 38  1  0  0  0  0
  9 39  1  0  0  0  0
 10 11  1  0  0  0  0
 11 12  1  0  0  0  0
 11 40  1  0  0  0  0
 11 41  1  0  0  0  0
 12 42  1  0  0  0  0
 12 43  1  0  0  0  0
 13 14  2  0  0  0  0
 13 15  1  0  0  0  0
 15 16  1  0  0  0  0
 15 44  1  0  0  0  0
 16 17  1  0  0  0  0
 16 45  1  0  0  0  0
 17 18  2  0  0  0  0
 17 19  1  0  0  0  0
 19 20  1  0  0  0  0
 19 46  1  0  0  0  0
 19 47  1  0  0  0  0
 20 21  1  0  0  0  0
 20 48  1  0  0  0  0
 20 49  1  0  0  0  0
 21 22  1  0  0  0  0
 21 50  1  0  0  0  0
 21 51  1  0  0  0  0
 22 23  1  0  0  0  0
 22 52  1  0  0  0  0
 23 24  2  0  0  0  0
 23 25  1  0  0  0  0
 25 30  2  0  0  0  0
 25 26  1  0  0  0  0
 26 27  2  0  0  0  0
 26 53  1  0  0  0  0
 27 28  1  0  0  0  0
 27 54  1  0  0  0  0
 28 29  2  0  0  0  0
 28 31  1  0  0  0  0
 29 30  1  0  0  0  0
 29 55  1  0  0  0  0
 30 56  1  0  0  0  0
 31 32  1  0  0  0  0
 32 57  1  0  0  0  0
 32 58  1  0  0  0  0
 32 59  1  0  0  0  0
M  END
> <Name>
ZINC25049844

> <reference>
BDB4972

> <quality>
0.668

> <status>
decoy

> <atoms in reference ligand area>
10

> <score>
-32.1187

$$$$
ZINC30516950
      BALL 1.4.0 (Jan  4 2012, 23:22:29)

 34 36  0999  0  0  0  0  0  0999 V2000
  -32.8286   15.9604  -20.8795 C   0  0  0  0  0  0  0  0  0  0  0  0
  -32.7920   14.5587  -21.0154 C   0  0  0  0  0  0  0  0  0  0  0  0
  -31.8138   14.1095  -20.1819 C   0  0  0  0  0  0  0  0  0  0  0  0
  -31.2746   15.1745  -19.5571 O   0  0  0  0  0  0  0  0  0  0  0  0
  -31.8823   16.2952  -19.9803 C   0  0  0  0  0  0  0  0  0  0  0  0
  -31.4181   12.7032  -19.9914 C   0  0  0  0  0  0  0  0  0  0  0  0
  -31.7908   11.8815  -18.9604 C   0  0  0  0  0  0  0  0  0  0  0  0
  -31.1626   10.6449  -19.2203 C   0  0  0  0  0  0  0  0  0  0  0  0
  -30.4734   10.7797  -20.3362 N   0  0  0  0  0  0  0  0  0  0  0  0
  -30.6091   11.9665  -20.8084 N   0  0  0  0  0  0  0  0  0  0  0  0
  -31.2552    9.4255  -18.3912 C   0  0  0  0  0  0  0  0  0  0  0  0
  -31.1682    8.3296  -18.9101 O   0  0  0  0  0  0  0  0  0  0  0  0
  -31.4360    9.5282  -17.0595 N   0  0  0  0  0  0  0  0  0  0  0  0
  -32.6597    9.1557  -16.4880 N   0  0  0  0  0  0  0  0  0  0  0  0
  -32.7308    8.8743  -15.1718 C   0  0  0  0  0  0  0  0  0  0  0  0
  -31.8369    8.2474  -14.6344 O   0  0  0  0  0  0  0  0  0  0  0  0
  -33.8858    9.3237  -14.3872 C   0  0  0  0  0  0  0  0  0  0  0  0
  -35.1175    9.6901  -14.8869 C   0  0  0  0  0  0  0  0  0  0  0  0
  -35.9155   10.0432  -13.7942 C   0  0  0  0  0  0  0  0  0  0  0  0
  -35.1709    9.8989  -12.6719 C   0  0  0  0  0  0  0  0  0  0  0  0
  -33.9356    9.4622  -13.0186 N   0  0  0  0  0  0  0  0  0  0  0  0
  -37.3221   10.5003  -13.8540 N   0  0  0  0  0  0  0  0  0  0  0  0
  -37.6997   11.4051  -13.1312 O   0  0  0  0  0  0  0  0  0  0  0  0
  -38.1019    9.9717  -14.6259 O   0  0  0  0  0  0  0  0  0  0  0  0
  -33.5024   16.6512  -21.4076 H   0  0  0  0  0  0  0  0  0  0  0  0
  -33.4304   13.9457  -21.6688 H   0  0  0  0  0  0  0  0  0  0  0  0
  -31.6467   17.3170  -19.6479 H   0  0  0  0  0  0  0  0  0  0  0  0
  -32.4418   12.1326  -18.1101 H   0  0  0  0  0  0  0  0  0  0  0  0
  -30.1724   12.3114  -21.6751 H   0  0  0  0  0  0  0  0  0  0  0  0
  -30.6745    9.8805  -16.4621 H   0  0  0  0  0  0  0  0  0  0  0  0
  -33.5051    9.0970  -17.0735 H   0  0  0  0  0  0  0  0  0  0  0  0
  -35.4162    9.7022  -15.9454 H   0  0  0  0  0  0  0  0  0  0  0  0
  -35.5130   10.1027  -11.6465 H   0  0  0  0  0  0  0  0  0  0  0  0
  -33.1627    9.2666  -12.3666 H   0  0  0  0  0  0  0  0  0  0  0  0
  1  5  2  0  0  0  0
  1  2  1  0  0  0  0
  1 25  1  0  0  0  0
  2  3  2  0  0  0  0
  2 26  1  0  0  0  0
  3  4  1  0  0  0  0
  3  6  1  0  0  0  0
  4  5  1  0  0  0  0
  5 27  1  0  0  0  0
  6 10  1  0  0  0  0
  6  7  2  0  0  0  0
  7  8  1  0  0  0  0
  7 28  1  0  0  0  0
  8  9  2  0  0  0  0
  8 11  1  0  0  0  0
  9 10  1  0  0  0  0
 10 29  1  0  0  0  0
 11 12  2  0  0  0  0
 11 13  1  0  0  0  0
 13 14  1  0  0  0  0
 13 30  1  0  0  0  0
 14 15  1  0  0  0  0
 14 31  1  0  0  0  0
 15 16  2  0  0  0  0
 15 17  1  0  0  0  0
 17 21  1  0  0  0  0
 17 18  2  0  0  0  0
 18 19  1  0  0  0  0
 18 32  1  0  0  0  0
 19 20  2  0  0  0  0
 19 22  1  0  0  0  0
 20 21  1  0  0  0  0
 20 33  1  0  0  0  0
 21 34  1  0  0  0  0
 22 23  2  0  0  0  0
 22 24  2  0  0  0  0
M  END
> <Name>
ZINC30516950

> <reference>
BDB4932

> <quality>
0.683

> <status>
decoy

> <atoms in reference ligand area>
10

> <score>
-31.9233

$$$$
ZINC08642818
      BALL 1.4.0 (Jan  4 2012, 23:22:29)

 51 53  0999  0  0  0  0  0  0999 V2000
  -32.2904    7.4379  -11.4480 C   0  0  0  0  0  0  0  0  0  0  0  0
  -32.7084    8.0714  -12.7011 N   0  0  0  0  0  0  0  0  0  0  0  0
  -31.9293    7.9356  -13.8389 C   0  0  0  0  0  0  0  0  0  0  0  0
  -32.3519    8.5426  -15.0166 C   0  0  0  0  0  0  0  0  0  0  0  0
  -33.5477    9.2821  -15.0171 C   0  0  0  0  0  0  0  0  0  0  0  0
  -33.9356    9.8253  -16.0368 O   0  0  0  0  0  0  0  0  0  0  0  0
  -34.2644    9.3793  -13.8782 N   0  0  0  0  0  0  0  0  0  0  0  0
  -33.8494    8.7847  -12.7463 C   0  0  0  0  0  0  0  0  0  0  0  0
  -34.5213    8.8934  -11.7385 O   0  0  0  0  0  0  0  0  0  0  0  0
  -35.5140   10.1440  -13.8751 C   0  0  0  0  0  0  0  0  0  0  0  0
  -31.3971    8.2381  -15.9777 N   0  0  0  0  0  0  0  0  0  0  0  0
  -30.4554    7.4728  -15.3651 C   0  0  0  0  0  0  0  0  0  0  0  0
  -30.7811    7.3083  -14.0990 N   0  0  0  0  0  0  0  0  0  0  0  0
  -29.3321    6.9581  -15.9706 N   0  0  0  0  0  0  0  0  0  0  0  0
  -28.1900    6.5351  -15.1565 C   0  0  0  0  0  0  0  0  0  0  0  0
  -26.8894    6.9478  -15.8490 C   0  0  0  0  0  0  0  0  0  0  0  0
  -26.1003    7.7319  -14.9521 O   0  0  0  0  0  0  0  0  0  0  0  0
  -31.4032    8.6603  -17.3805 C   0  0  0  0  0  0  0  0  0  0  0  0
  -31.6389   10.1701  -17.4577 C   0  0  0  0  0  0  0  0  0  0  0  0
  -30.6600   10.7887  -18.4576 C   0  0  0  0  0  0  0  0  0  0  0  0
  -30.8003   12.2107  -18.4442 O   0  0  0  0  0  0  0  0  0  0  0  0
  -29.7014   12.9359  -18.1078 C   0  0  0  0  0  0  0  0  0  0  0  0
  -29.8295   14.0596  -17.3043 C   0  0  0  0  0  0  0  0  0  0  0  0
  -28.7100   14.7915  -16.9586 C   0  0  0  0  0  0  0  0  0  0  0  0
  -27.4642   14.4121  -17.4229 C   0  0  0  0  0  0  0  0  0  0  0  0
  -27.3345   13.2959  -18.2285 C   0  0  0  0  0  0  0  0  0  0  0  0
  -28.4500   12.5571  -18.5719 C   0  0  0  0  0  0  0  0  0  0  0  0
  -31.4333   10.7508  -16.1683 O   0  0  0  0  0  0  0  0  0  0  0  0
  -32.7869    8.0160  -10.6547 H   0  0  0  0  0  0  0  0  0  0  0  0
  -31.2115    7.6382  -11.3711 H   0  0  0  0  0  0  0  0  0  0  0  0
  -32.5228    6.3642  -11.3926 H   0  0  0  0  0  0  0  0  0  0  0  0
  -35.6893   10.4182  -14.9258 H   0  0  0  0  0  0  0  0  0  0  0  0
  -35.2860   11.0707  -13.3278 H   0  0  0  0  0  0  0  0  0  0  0  0
  -36.3642    9.5998  -13.4383 H   0  0  0  0  0  0  0  0  0  0  0  0
  -29.2943    6.8702  -16.9962 H   0  0  0  0  0  0  0  0  0  0  0  0
  -28.2092    5.4420  -15.0355 H   0  0  0  0  0  0  0  0  0  0  0  0
  -28.2465    7.0145  -14.1681 H   0  0  0  0  0  0  0  0  0  0  0  0
  -26.3275    6.0481  -16.1402 H   0  0  0  0  0  0  0  0  0  0  0  0
  -27.1224    7.5409  -16.7456 H   0  0  0  0  0  0  0  0  0  0  0  0
  -25.5040    7.1382  -14.4304 H   0  0  0  0  0  0  0  0  0  0  0  0
  -30.4344    8.4169  -17.8410 H   0  0  0  0  0  0  0  0  0  0  0  0
  -32.2070    8.1365  -17.9187 H   0  0  0  0  0  0  0  0  0  0  0  0
  -32.6705   10.3638  -17.7869 H   0  0  0  0  0  0  0  0  0  0  0  0
  -29.6308   10.5196  -18.1776 H   0  0  0  0  0  0  0  0  0  0  0  0
  -30.8764   10.4091  -19.4671 H   0  0  0  0  0  0  0  0  0  0  0  0
  -30.8217   14.3676  -16.9427 H   0  0  0  0  0  0  0  0  0  0  0  0
  -28.8099   15.6768  -16.3134 H   0  0  0  0  0  0  0  0  0  0  0  0
  -26.5747   14.9993  -17.1510 H   0  0  0  0  0  0  0  0  0  0  0  0
  -26.3421   12.9959  -18.5962 H   0  0  0  0  0  0  0  0  0  0  0  0
  -28.3463   11.6692  -19.2128 H   0  0  0  0  0  0  0  0  0  0  0  0
  -30.4702   10.7199  -15.9412 H   0  0  0  0  0  0  0  0  0  0  0  0
  1  2  1  0  0  0  0
  1 29  1  0  0  0  0
  1 30  1  0  0  0  0
  1 31  1  0  0  0  0
  2  8  1  0  0  0  0
  2  3  1  0  0  0  0
  3 13  1  0  0  0  0
  3  4  2  0  0  0  0
  4  5  1  0  0  0  0
  4 11  1  0  0  0  0
  5  6  2  0  0  0  0
  5  7  1  0  0  0  0
  7  8  1  0  0  0  0
  7 10  1  0  0  0  0
  8  9  2  0  0  0  0
 10 32  1  0  0  0  0
 10 33  1  0  0  0  0
 10 34  1  0  0  0  0
 11 12  1  0  0  0  0
 11 18  1  0  0  0  0
 12 13  2  0  0  0  0
 12 14  1  0  0  0  0
 14 15  1  0  0  0  0
 14 35  1  0  0  0  0
 15 16  1  0  0  0  0
 15 36  1  0  0  0  0
 15 37  1  0  0  0  0
 16 17  1  0  0  0  0
 16 38  1  0  0  0  0
 16 39  1  0  0  0  0
 17 40  1  0  0  0  0
 18 19  1  0  0  0  0
 18 41  1  0  0  0  0
 18 42  1  0  0  0  0
 19 20  1  0  0  0  0
 19 28  1  0  0  0  0
 19 43  1  0  0  0  0
 20 21  1  0  0  0  0
 20 44  1  0  0  0  0
 20 45  1  0  0  0  0
 21 22  1  0  0  0  0
 22 27  2  0  0  0  0
 22 23  1  0  0  0  0
 23 24  2  0  0  0  0
 23 46  1  0  0  0  0
 24 25  1  0  0  0  0
 24 47  1  0  0  0  0
 25 26  2  0  0  0  0
 25 48  1  0  0  0  0
 26 27  1  0  0  0  0
 26 49  1  0  0  0  0
 27 50  1  0  0  0  0
 28 51  1  0  0  0  0
M  END
> <Name>
ZINC08642818

> <reference>
BDB4945

> <quality>
0.773

> <status>
decoy

> <atoms in reference ligand area>
10

> <score>
-31.9145

$$$$
ZINC05266223
      BALL 1.4.0 (Jan  4 2012, 23:22:29)

 46 47  0999  0  0  0  0  0  0999 V2000
  -29.5801    7.4486  -17.3037 C   0  0  0  0  0  0  0  0  0  0  0  0
  -30.3793    8.1002  -16.3144 O   0  0  0  0  0  0  0  0  0  0  0  0
  -31.6913    7.5517  -16.1734 C   0  0  0  0  0  0  0  0  0  0  0  0
  -32.4529    8.3225  -15.0934 C   0  0  0  0  0  0  0  0  0  0  0  0
  -32.7606    9.6697  -15.5802 N   0  0  0  0  0  0  0  0  0  0  0  0
  -32.0524   10.3401  -16.5483 C   0  0  0  0  0  0  0  0  0  0  0  0
  -32.5980   11.5537  -16.7535 C   0  0  0  0  0  0  0  0  0  0  0  0
  -33.7502   11.6629  -15.8510 C   0  0  0  0  0  0  0  0  0  0  0  0
  -33.8025   10.4522  -15.1360 C   0  0  0  0  0  0  0  0  0  0  0  0
  -34.8031   10.2636  -14.1880 C   0  0  0  0  0  0  0  0  0  0  0  0
  -35.7273   11.2599  -13.9609 C   0  0  0  0  0  0  0  0  0  0  0  0
  -35.6710   12.4524  -14.6691 C   0  0  0  0  0  0  0  0  0  0  0  0
  -34.6966   12.6585  -15.6048 C   0  0  0  0  0  0  0  0  0  0  0  0
  -32.1504   12.5306  -17.6625 N   0  0  0  0  0  0  0  0  0  0  0  0
  -30.9657   12.3777  -18.2867 C   0  0  0  0  0  0  0  0  0  0  0  0
  -30.2835   11.3959  -18.0646 O   0  0  0  0  0  0  0  0  0  0  0  0
  -30.5371   13.3132  -19.1573 N   0  0  0  0  0  0  0  0  0  0  0  0
  -30.8824   13.2055  -20.5770 C   0  0  0  0  0  0  0  0  0  0  0  0
  -32.4041   13.2236  -20.7346 C   0  0  0  0  0  0  0  0  0  0  0  0
  -32.7954   14.3993  -21.4464 O   0  0  0  0  0  0  0  0  0  0  0  0
  -29.7260   14.4375  -18.6839 C   0  0  0  0  0  0  0  0  0  0  0  0
  -28.9033   13.9979  -17.4710 C   0  0  0  0  0  0  0  0  0  0  0  0
  -28.3171   12.7208  -17.7307 O   0  0  0  0  0  0  0  0  0  0  0  0
  -30.2379    7.1974  -18.1487 H   0  0  0  0  0  0  0  0  0  0  0  0
  -29.2061    6.5123  -16.8638 H   0  0  0  0  0  0  0  0  0  0  0  0
  -28.7463    8.0857  -17.6335 H   0  0  0  0  0  0  0  0  0  0  0  0
  -32.2282    7.6346  -17.1299 H   0  0  0  0  0  0  0  0  0  0  0  0
  -31.6182    6.4928  -15.8845 H   0  0  0  0  0  0  0  0  0  0  0  0
  -31.8341    8.3935  -14.1868 H   0  0  0  0  0  0  0  0  0  0  0  0
  -33.3893    7.7955  -14.8581 H   0  0  0  0  0  0  0  0  0  0  0  0
  -31.1721    9.9447  -17.0762 H   0  0  0  0  0  0  0  0  0  0  0  0
  -34.8562    9.3222  -13.6216 H   0  0  0  0  0  0  0  0  0  0  0  0
  -36.5178   11.1087  -13.2109 H   0  0  0  0  0  0  0  0  0  0  0  0
  -36.4165   13.2376  -14.4756 H   0  0  0  0  0  0  0  0  0  0  0  0
  -34.6584   13.6061  -16.1621 H   0  0  0  0  0  0  0  0  0  0  0  0
  -32.7282   13.3622  -17.8507 H   0  0  0  0  0  0  0  0  0  0  0  0
  -30.4837   12.2638  -20.9821 H   0  0  0  0  0  0  0  0  0  0  0  0
  -30.4474   14.0539  -21.1256 H   0  0  0  0  0  0  0  0  0  0  0  0
  -32.7255   12.3328  -21.2942 H   0  0  0  0  0  0  0  0  0  0  0  0
  -32.8767   13.2229  -19.7413 H   0  0  0  0  0  0  0  0  0  0  0  0
  -33.7799   14.4962  -21.4095 H   0  0  0  0  0  0  0  0  0  0  0  0
  -30.3842   15.2709  -18.3970 H   0  0  0  0  0  0  0  0  0  0  0  0
  -29.0487   14.7647  -19.4865 H   0  0  0  0  0  0  0  0  0  0  0  0
  -28.1083   14.7339  -17.2808 H   0  0  0  0  0  0  0  0  0  0  0  0
  -29.5570   13.9280  -16.5890 H   0  0  0  0  0  0  0  0  0  0  0  0
  -28.5032   12.1111  -16.9732 H   0  0  0  0  0  0  0  0  0  0  0  0
  1  2  1  0  0  0  0
  1 24  1  0  0  0  0
  1 25  1  0  0  0  0
  1 26  1  0  0  0  0
  2  3  1  0  0  0  0
  3  4  1  0  0  0  0
  3 27  1  0  0  0  0
  3 28  1  0  0  0  0
  4  5  1  0  0  0  0
  4 29  1  0  0  0  0
  4 30  1  0  0  0  0
  5  9  1  0  0  0  0
  5  6  1  0  0  0  0
  6  7  2  0  0  0  0
  6 31  1  0  0  0  0
  7  8  1  0  0  0  0
  7 14  1  0  0  0  0
  8 13  2  0  0  0  0
  8  9  1  0  0  0  0
  9 10  2  0  0  0  0
 10 11  1  0  0  0  0
 10 32  1  0  0  0  0
 11 12  2  0  0  0  0
 11 33  1  0  0  0  0
 12 13  1  0  0  0  0
 12 34  1  0  0  0  0
 13 35  1  0  0  0  0
 14 15  1  0  0  0  0
 14 36  1  0  0  0  0
 15 16  2  0  0  0  0
 15 17  1  0  0  0  0
 17 18  1  0  0  0  0
 17 21  1  0  0  0  0
 18 19  1  0  0  0  0
 18 37  1  0  0  0  0
 18 38  1  0  0  0  0
 19 20  1  0  0  0  0
 19 39  1  0  0  0  0
 19 40  1  0  0  0  0
 20 41  1  0  0  0  0
 21 22  1  0  0  0  0
 21 42  1  0  0  0  0
 21 43  1  0  0  0  0
 22 23  1  0  0  0  0
 22 44  1  0  0  0  0
 22 45  1  0  0  0  0
 23 46  1  0  0  0  0
M  END
> <Name>
ZINC05266223

> <reference>
BDB5025

> <quality>
0.793

> <status>
decoy

> <atoms in reference ligand area>
15

> <score>
-31.8151

$$$$
ZINC24331310
      BALL 1.4.0 (Jan  4 2012, 23:22:29)

 36 36  0999  0  0  0  0  0  0999 V2000
  -29.3255   13.2884  -17.7252 C   0  0  0  0  0  0  0  0  0  0  0  0
  -30.1265   13.0518  -18.8533 C   0  0  0  0  0  0  0  0  0  0  0  0
  -29.3693   12.3257  -19.7272 C   0  0  0  0  0  0  0  0  0  0  0  0
  -28.1616   12.1200  -19.1622 O   0  0  0  0  0  0  0  0  0  0  0  0
  -28.1295   12.7036  -17.9570 C   0  0  0  0  0  0  0  0  0  0  0  0
  -29.7961   11.8476  -21.0463 C   0  0  0  0  0  0  0  0  0  0  0  0
  -30.4713   12.5624  -21.7634 O   0  0  0  0  0  0  0  0  0  0  0  0
  -29.4406   10.6167  -21.4645 N   0  0  0  0  0  0  0  0  0  0  0  0
  -29.8670   10.1392  -22.7823 C   0  0  0  0  0  0  0  0  0  0  0  0
  -31.2153    9.4273  -22.6548 C   0  0  0  0  0  0  0  0  0  0  0  0
  -32.1000    9.7930  -23.8484 C   0  0  0  0  0  0  0  0  0  0  0  0
  -32.8530    8.5714  -24.3086 C   0  0  0  0  0  0  0  0  0  0  0  0
  -33.9377    8.3184  -23.8403 O   0  0  0  0  0  0  0  0  0  0  0  0
  -32.3186    7.7646  -25.2387 O   0  0  0  0  0  0  0  0  0  0  0  0
  -33.1000    6.6063  -25.6341 C   0  0  0  0  0  0  0  0  0  0  0  0
  -34.3036    7.0571  -26.4208 C   0  0  0  0  0  0  0  0  0  0  0  0
  -35.4124    6.9633  -25.9395 O   0  0  0  0  0  0  0  0  0  0  0  0
  -34.1474    7.5648  -27.6595 N   0  0  0  0  0  0  0  0  0  0  0  0
  -35.2238    7.9681  -28.3632 C   0  0  0  0  0  0  0  0  0  0  0  0
  -36.2991    7.4281  -28.1917 O   0  0  0  0  0  0  0  0  0  0  0  0
  -35.1079    8.9702  -29.2570 N   0  0  0  0  0  0  0  0  0  0  0  0
  -29.6165   13.8451  -16.8222 H   0  0  0  0  0  0  0  0  0  0  0  0
  -31.1634   13.3866  -19.0041 H   0  0  0  0  0  0  0  0  0  0  0  0
  -27.2710   12.7064  -17.2693 H   0  0  0  0  0  0  0  0  0  0  0  0
  -28.8690   10.0117  -20.8576 H   0  0  0  0  0  0  0  0  0  0  0  0
  -29.9676   10.9939  -23.4673 H   0  0  0  0  0  0  0  0  0  0  0  0
  -29.1188    9.4373  -23.1790 H   0  0  0  0  0  0  0  0  0  0  0  0
  -31.0554    8.3391  -22.6375 H   0  0  0  0  0  0  0  0  0  0  0  0
  -31.7098    9.7402  -21.7234 H   0  0  0  0  0  0  0  0  0  0  0  0
  -31.4722   10.1671  -24.6705 H   0  0  0  0  0  0  0  0  0  0  0  0
  -32.8156   10.5730  -23.5492 H   0  0  0  0  0  0  0  0  0  0  0  0
  -33.4317    6.0628  -24.7371 H   0  0  0  0  0  0  0  0  0  0  0  0
  -32.4827    5.9427  -26.2575 H   0  0  0  0  0  0  0  0  0  0  0  0
  -33.2054    7.6445  -28.0684 H   0  0  0  0  0  0  0  0  0  0  0  0
  -35.1765    8.7715  -30.2652 H   0  0  0  0  0  0  0  0  0  0  0  0
  -34.9507    9.9348  -28.9317 H   0  0  0  0  0  0  0  0  0  0  0  0
  1  5  2  0  0  0  0
  1  2  1  0  0  0  0
  1 22  1  0  0  0  0
  2  3  2  0  0  0  0
  2 23  1  0  0  0  0
  3  4  1  0  0  0  0
  3  6  1  0  0  0  0
  4  5  1  0  0  0  0
  5 24  1  0  0  0  0
  6  7  2  0  0  0  0
  6  8  1  0  0  0  0
  8  9  1  0  0  0  0
  8 25  1  0  0  0  0
  9 10  1  0  0  0  0
  9 26  1  0  0  0  0
  9 27  1  0  0  0  0
 10 11  1  0  0  0  0
 10 28  1  0  0  0  0
 10 29  1  0  0  0  0
 11 12  1  0  0  0  0
 11 30  1  0  0  0  0
 11 31  1  0  0  0  0
 12 13  2  0  0  0  0
 12 14  1  0  0  0  0
 14 15  1  0  0  0  0
 15 16  1  0  0  0  0
 15 32  1  0  0  0  0
 15 33  1  0  0  0  0
 16 17  2  0  0  0  0
 16 18  1  0  0  0  0
 18 19  1  0  0  0  0
 18 34  1  0  0  0  0
 19 20  2  0  0  0  0
 19 21  1  0  0  0  0
 21 35  1  0  0  0  0
 21 36  1  0  0  0  0
M  END
> <Name>
ZINC24331310

> <reference>
BDB5021

> <quality>
0.648

> <status>
decoy

> <atoms in reference ligand area>
13

> <score>
-31.627

$$$$
ZINC27654081
      BALL 1.4.0 (Jan  4 2012, 23:22:29)

 38 39  0999  0  0  0  0  0  0999 V2000
  -31.1946    9.9631  -20.1344 C   0  0  0  0  0  0  0  0  0  0  0  0
  -31.2564   10.4996  -18.9510 N   0  0  0  0  0  0  0  0  0  0  0  0
  -31.7369   11.7637  -19.0528 C   0  0  0  0  0  0  0  0  0  0  0  0
  -31.9839   12.0037  -20.4156 C   0  0  0  0  0  0  0  0  0  0  0  0
  -31.6328   10.8515  -21.0725 N   0  0  0  0  0  0  0  0  0  0  0  0
  -31.7135   10.6180  -22.5166 C   0  0  0  0  0  0  0  0  0  0  0  0
  -30.8571    9.5305  -22.8718 O   0  0  0  0  0  0  0  0  0  0  0  0
  -29.4805    9.7478  -22.5561 C   0  0  0  0  0  0  0  0  0  0  0  0
  -28.6616    8.5261  -22.9778 C   0  0  0  0  0  0  0  0  0  0  0  0
  -28.7072    8.3881  -24.4224 O   0  0  0  0  0  0  0  0  0  0  0  0
  -27.8754    7.4914  -24.9755 C   0  0  0  0  0  0  0  0  0  0  0  0
  -26.7023    7.4971  -24.6863 O   0  0  0  0  0  0  0  0  0  0  0  0
  -28.4046    6.4777  -25.9570 C   0  0  0  0  0  0  0  0  0  0  0  0
  -27.5308    6.4791  -27.2128 C   0  0  0  0  0  0  0  0  0  0  0  0
  -27.3618    7.8580  -27.6902 N   0  3  0  0  0  0  0  0  0  0  0  0
  -32.4650   13.1847  -20.7878 N   0  0  0  0  0  0  0  0  0  0  0  0
  -32.7020   14.1274  -19.8900 C   0  0  0  0  0  0  0  0  0  0  0  0
  -32.4828   13.9419  -18.5944 N   0  0  0  0  0  0  0  0  0  0  0  0
  -32.0072   12.7913  -18.1364 C   0  0  0  0  0  0  0  0  0  0  0  0
  -31.7874   12.6121  -16.8118 O   0  0  0  0  0  0  0  0  0  0  0  0
  -33.1953   15.3492  -20.3170 N   0  0  0  0  0  0  0  0  0  0  0  0
  -30.8412    8.9434  -20.3473 H   0  0  0  0  0  0  0  0  0  0  0  0
  -32.7501   10.3725  -22.7911 H   0  0  0  0  0  0  0  0  0  0  0  0
  -31.3966   11.5239  -23.0539 H   0  0  0  0  0  0  0  0  0  0  0  0
  -29.3720    9.9049  -21.4728 H   0  0  0  0  0  0  0  0  0  0  0  0
  -29.1166   10.6359  -23.0936 H   0  0  0  0  0  0  0  0  0  0  0  0
  -27.6179    8.6549  -22.6551 H   0  0  0  0  0  0  0  0  0  0  0  0
  -29.0810    7.6230  -22.5103 H   0  0  0  0  0  0  0  0  0  0  0  0
  -28.3849    5.4780  -25.4984 H   0  0  0  0  0  0  0  0  0  0  0  0
  -29.4385    6.7353  -26.2303 H   0  0  0  0  0  0  0  0  0  0  0  0
  -26.5460    6.0508  -26.9749 H   0  0  0  0  0  0  0  0  0  0  0  0
  -28.0129    5.8769  -27.9970 H   0  0  0  0  0  0  0  0  0  0  0  0
  -26.7739    7.8600  -28.5359 H   0  0  0  0  0  0  0  0  0  0  0  0
  -26.9100    8.4232  -26.9573 H   0  0  0  0  0  0  0  0  0  0  0  0
  -28.2835    8.2602  -27.9132 H   0  0  0  0  0  0  0  0  0  0  0  0
  -32.6856   14.7047  -17.9327 H   0  0  0  0  0  0  0  0  0  0  0  0
  -32.5563   16.1143  -20.5763 H   0  0  0  0  0  0  0  0  0  0  0  0
  -34.2136   15.4922  -20.3751 H   0  0  0  0  0  0  0  0  0  0  0  0
  1  5  1  0  0  0  0
  1  2  2  0  0  0  0
  1 22  1  0  0  0  0
  2  3  1  0  0  0  0
  3  4  2  0  0  0  0
  3 19  1  0  0  0  0
  4  5  1  0  0  0  0
  4 16  1  0  0  0  0
  5  6  1  0  0  0  0
  6  7  1  0  0  0  0
  6 23  1  0  0  0  0
  6 24  1  0  0  0  0
  7  8  1  0  0  0  0
  8  9  1  0  0  0  0
  8 25  1  0  0  0  0
  8 26  1  0  0  0  0
  9 10  1  0  0  0  0
  9 27  1  0  0  0  0
  9 28  1  0  0  0  0
 10 11  1  0  0  0  0
 11 12  2  0  0  0  0
 11 13  1  0  0  0  0
 13 14  1  0  0  0  0
 13 29  1  0  0  0  0
 13 30  1  0  0  0  0
 14 15  1  0  0  0  0
 14 31  1  0  0  0  0
 14 32  1  0  0  0  0
 15 33  1  0  0  0  0
 15 34  1  0  0  0  0
 15 35  1  0  0  0  0
 16 17  2  0  0  0  0
 17 18  1  0  0  0  0
 17 21  1  0  0  0  0
 18 19  1  0  0  0  0
 18 36  1  0  0  0  0
 19 20  2  0  0  0  0
 21 37  1  0  0  0  0
 21 38  1  0  0  0  0
M  END
> <Name>
ZINC27654081

> <reference>
BDB5009

> <quality>
0.832

> <status>
decoy

> <atoms in reference ligand area>
13

> <score>
-31.6224

$$$$
ZINC16769863
      BALL 1.4.0 (Jan  4 2012, 23:22:29)

 50 52  0999  0  0  0  0  0  0999 V2000
  -28.4483   11.7116  -22.6410 C   0  0  0  0  0  0  0  0  0  0  0  0
  -28.1862   12.7812  -21.6121 C   0  0  0  0  0  0  0  0  0  0  0  0
  -27.0720   13.5926  -21.7275 C   0  0  0  0  0  0  0  0  0  0  0  0
  -26.8280   14.5754  -20.7860 C   0  0  0  0  0  0  0  0  0  0  0  0
  -27.6967   14.7500  -19.7266 C   0  0  0  0  0  0  0  0  0  0  0  0
  -28.8167   13.9368  -19.6075 C   0  0  0  0  0  0  0  0  0  0  0  0
  -29.0588   12.9501  -20.5555 C   0  0  0  0  0  0  0  0  0  0  0  0
  -29.6973   14.1102  -18.5368 N   0  0  0  0  0  0  0  0  0  0  0  0
  -30.8715   13.3681  -18.4750 C   0  0  0  0  0  0  0  0  0  0  0  0
  -31.3245   12.6003  -17.5033 N   0  0  0  0  0  0  0  0  0  0  0  0
  -32.5283   11.9503  -17.6488 N   0  0  0  0  0  0  0  0  0  0  0  0
  -33.2188   12.0901  -18.7646 C   0  0  0  0  0  0  0  0  0  0  0  0
  -32.1656   13.1937  -19.6940 S   0  0  0  0  0  0  0  0  0  0  0  0
  -34.7658   11.3781  -19.2170 S   0  0  0  0  0  0  0  0  0  0  0  0
  -34.3377    9.6951  -19.7413 C   0  0  0  0  0  0  0  0  0  0  0  0
  -34.0415    9.6894  -21.2189 C   0  0  0  0  0  0  0  0  0  0  0  0
  -33.7545   10.7235  -21.7839 O   0  0  0  0  0  0  0  0  0  0  0  0
  -34.0954    8.5351  -21.9125 N   0  0  0  0  0  0  0  0  0  0  0  0
  -33.6208    8.4866  -23.2298 N   0  0  0  0  0  0  0  0  0  0  0  0
  -34.1675    7.6267  -24.1119 C   0  0  0  0  0  0  0  0  0  0  0  0
  -35.2704    7.1660  -23.9057 O   0  0  0  0  0  0  0  0  0  0  0  0
  -33.4087    7.2378  -25.3545 C   0  0  0  0  0  0  0  0  0  0  0  0
  -34.3979    6.9250  -26.4791 C   0  0  0  0  0  0  0  0  0  0  0  0
  -35.4935    8.0035  -26.5099 C   0  0  0  0  0  0  0  0  0  0  0  0
  -36.2926    7.8444  -27.8349 C   0  0  0  0  0  0  0  0  0  0  0  0
  -34.9220    7.4930  -29.0150 S   0  0  0  0  0  0  0  0  0  0  0  0
  -34.4835    8.7155  -29.5915 O   0  0  0  0  0  0  0  0  0  0  0  0
  -35.3050    6.4177  -29.8614 O   0  0  0  0  0  0  0  0  0  0  0  0
  -33.6461    6.8979  -27.8318 C   0  0  0  0  0  0  0  0  0  0  0  0
  -28.7490   10.8256  -22.0625 H   0  0  0  0  0  0  0  0  0  0  0  0
  -27.4651   11.4931  -23.0834 H   0  0  0  0  0  0  0  0  0  0  0  0
  -29.1961   11.9949  -23.3962 H   0  0  0  0  0  0  0  0  0  0  0  0
  -26.3785   13.4557  -22.5702 H   0  0  0  0  0  0  0  0  0  0  0  0
  -25.9409   15.2189  -20.8808 H   0  0  0  0  0  0  0  0  0  0  0  0
  -27.5020   15.5320  -18.9780 H   0  0  0  0  0  0  0  0  0  0  0  0
  -29.9446   12.3044  -20.4643 H   0  0  0  0  0  0  0  0  0  0  0  0
  -29.4766   14.7879  -17.7931 H   0  0  0  0  0  0  0  0  0  0  0  0
  -35.1811    9.0199  -19.5346 H   0  0  0  0  0  0  0  0  0  0  0  0
  -33.4502    9.3533  -19.1886 H   0  0  0  0  0  0  0  0  0  0  0  0
  -34.4856    7.6887  -21.4741 H   0  0  0  0  0  0  0  0  0  0  0  0
  -32.8540    9.1080  -23.5241 H   0  0  0  0  0  0  0  0  0  0  0  0
  -32.7565    8.0687  -25.6612 H   0  0  0  0  0  0  0  0  0  0  0  0
  -32.7962    6.3478  -25.1480 H   0  0  0  0  0  0  0  0  0  0  0  0
  -34.8617    5.9432  -26.3035 H   0  0  0  0  0  0  0  0  0  0  0  0
  -36.1694    7.8689  -25.6526 H   0  0  0  0  0  0  0  0  0  0  0  0
  -35.0326    9.0017  -26.4744 H   0  0  0  0  0  0  0  0  0  0  0  0
  -36.9719    6.9809  -27.7808 H   0  0  0  0  0  0  0  0  0  0  0  0
  -36.7904    8.7865  -28.1081 H   0  0  0  0  0  0  0  0  0  0  0  0
  -33.3487    5.8704  -28.0888 H   0  0  0  0  0  0  0  0  0  0  0  0
  -32.7967    7.5966  -27.8155 H   0  0  0  0  0  0  0  0  0  0  0  0
  1  2  1  0  0  0  0
  1 30  1  0  0  0  0
  1 31  1  0  0  0  0
  1 32  1  0  0  0  0
  2  7  2  0  0  0  0
  2  3  1  0  0  0  0
  3  4  2  0  0  0  0
  3 33  1  0  0  0  0
  4  5  1  0  0  0  0
  4 34  1  0  0  0  0
  5  6  2  0  0  0  0
  5 35  1  0  0  0  0
  6  7  1  0  0  0  0
  6  8  1  0  0  0  0
  7 36  1  0  0  0  0
  8  9  1  0  0  0  0
  8 37  1  0  0  0  0
  9 13  1  0  0  0  0
  9 10  2  0  0  0  0
 10 11  1  0  0  0  0
 11 12  2  0  0  0  0
 12 13  1  0  0  0  0
 12 14  1  0  0  0  0
 14 15  1  0  0  0  0
 15 16  1  0  0  0  0
 15 38  1  0  0  0  0
 15 39  1  0  0  0  0
 16 17  2  0  0  0  0
 16 18  1  0  0  0  0
 18 19  1  0  0  0  0
 18 40  1  0  0  0  0
 19 20  1  0  0  0  0
 19 41  1  0  0  0  0
 20 21  2  0  0  0  0
 20 22  1  0  0  0  0
 22 23  1  0  0  0  0
 22 42  1  0  0  0  0
 22 43  1  0  0  0  0
 23 29  1  0  0  0  0
 23 24  1  0  0  0  0
 23 44  1  0  0  0  0
 24 25  1  0  0  0  0
 24 45  1  0  0  0  0
 24 46  1  0  0  0  0
 25 26  1  0  0  0  0
 25 47  1  0  0  0  0
 25 48  1  0  0  0  0
 26 27  2  0  0  0  0
 26 28  2  0  0  0  0
 26 29  1  0  0  0  0
 29 49  1  0  0  0  0
 29 50  1  0  0  0  0
M  END
> <Name>
ZINC16769863

> <reference>
BDB4968

> <quality>
0.760

> <status>
decoy

> <atoms in reference ligand area>
17

> <score>
-31.2543

$$$$
ZINC23644902
      BALL 1.4.0 (Jan  4 2012, 23:22:29)

 49 50  0999  0  0  0  0  0  0999 V2000
  -30.3933   13.6139  -16.9868 C   0  0  0  0  0  0  0  0  0  0  0  0
  -29.3050   14.4847  -17.6178 C   0  0  0  0  0  0  0  0  0  0  0  0
  -28.4770   15.1457  -16.5140 C   0  0  0  0  0  0  0  0  0  0  0  0
  -28.3947   13.6140  -18.4861 C   0  0  0  0  0  0  0  0  0  0  0  0
  -29.1623   13.0764  -19.6122 N   0  0  0  0  0  0  0  0  0  0  0  0
  -29.6371   11.7863  -19.5622 C   0  0  0  0  0  0  0  0  0  0  0  0
  -30.3585   11.2921  -20.6296 C   0  0  0  0  0  0  0  0  0  0  0  0
  -30.5823   12.1248  -21.7422 C   0  0  0  0  0  0  0  0  0  0  0  0
  -31.2126   11.7119  -22.7008 O   0  0  0  0  0  0  0  0  0  0  0  0
  -30.0996   13.3828  -21.7385 N   0  0  0  0  0  0  0  0  0  0  0  0
  -29.3982   13.8472  -20.6894 C   0  0  0  0  0  0  0  0  0  0  0  0
  -28.9696   14.9849  -20.7144 O   0  0  0  0  0  0  0  0  0  0  0  0
  -30.8585    9.9729  -20.6086 N   0  0  0  0  0  0  0  0  0  0  0  0
  -31.3268    9.3870  -19.3501 C   0  0  0  0  0  0  0  0  0  0  0  0
  -31.9594   10.4780  -18.4839 C   0  0  0  0  0  0  0  0  0  0  0  0
  -32.2157   11.6333  -19.2848 O   0  0  0  0  0  0  0  0  0  0  0  0
  -33.1862   12.5226  -18.7287 C   0  0  0  0  0  0  0  0  0  0  0  0
  -30.9052    9.2509  -21.7476 C   0  0  0  0  0  0  0  0  0  0  0  0
  -30.4418    9.7047  -22.7729 O   0  0  0  0  0  0  0  0  0  0  0  0
  -31.5331    7.8809  -21.7460 C   0  0  0  0  0  0  0  0  0  0  0  0
  -31.1847    7.0559  -23.3188 S   0  0  0  0  0  0  0  0  0  0  0  0
  -32.5806    7.5823  -24.2563 C   0  0  0  0  0  0  0  0  0  0  0  0
  -33.2928    8.6990  -24.1738 N   0  0  0  0  0  0  0  0  0  0  0  0
  -34.2752    8.9183  -24.9337 N   0  0  0  0  0  0  0  0  0  0  0  0
  -34.6567    8.0566  -25.8546 C   0  0  0  0  0  0  0  0  0  0  0  0
  -33.4407    6.7675  -25.5990 S   0  0  0  0  0  0  0  0  0  0  0  0
  -29.3961   10.9990  -18.4618 N   0  0  0  0  0  0  0  0  0  0  0  0
  -30.8716   13.0014  -17.7653 H   0  0  0  0  0  0  0  0  0  0  0  0
  -31.1488   14.2567  -16.5112 H   0  0  0  0  0  0  0  0  0  0  0  0
  -29.9437   12.9559  -16.2287 H   0  0  0  0  0  0  0  0  0  0  0  0
  -29.7723   15.2616  -18.2408 H   0  0  0  0  0  0  0  0  0  0  0  0
  -28.6049   14.5883  -15.5744 H   0  0  0  0  0  0  0  0  0  0  0  0
  -28.8140   16.1833  -16.3729 H   0  0  0  0  0  0  0  0  0  0  0  0
  -27.4146   15.1421  -16.7995 H   0  0  0  0  0  0  0  0  0  0  0  0
  -27.5612   14.2218  -18.8681 H   0  0  0  0  0  0  0  0  0  0  0  0
  -27.9973   12.7833  -17.8845 H   0  0  0  0  0  0  0  0  0  0  0  0
  -30.2699   13.9959  -22.5485 H   0  0  0  0  0  0  0  0  0  0  0  0
  -30.4767    8.9406  -18.8134 H   0  0  0  0  0  0  0  0  0  0  0  0
  -32.0749    8.6093  -19.5636 H   0  0  0  0  0  0  0  0  0  0  0  0
  -32.9054   10.1083  -18.0612 H   0  0  0  0  0  0  0  0  0  0  0  0
  -31.2721   10.7439  -17.6673 H   0  0  0  0  0  0  0  0  0  0  0  0
  -34.0009   12.6240  -19.4608 H   0  0  0  0  0  0  0  0  0  0  0  0
  -32.7047   13.5040  -18.6059 H   0  0  0  0  0  0  0  0  0  0  0  0
  -33.5693   12.1523  -17.7664 H   0  0  0  0  0  0  0  0  0  0  0  0
  -31.1147    7.2865  -20.9203 H   0  0  0  0  0  0  0  0  0  0  0  0
  -32.6212    7.9751  -21.6155 H   0  0  0  0  0  0  0  0  0  0  0  0
  -35.4859    8.1131  -26.5752 H   0  0  0  0  0  0  0  0  0  0  0  0
  -29.1646   10.0032  -18.5873 H   0  0  0  0  0  0  0  0  0  0  0  0
  -29.4465   11.4021  -17.5153 H   0  0  0  0  0  0  0  0  0  0  0  0
  1  2  1  0  0  0  0
  1 28  1  0  0  0  0
  1 29  1  0  0  0  0
  1 30  1  0  0  0  0
  2  3  1  0  0  0  0
  2  4  1  0  0  0  0
  2 31  1  0  0  0  0
  3 32  1  0  0  0  0
  3 33  1  0  0  0  0
  3 34  1  0  0  0  0
  4  5  1  0  0  0  0
  4 35  1  0  0  0  0
  4 36  1  0  0  0  0
  5 11  1  0  0  0  0
  5  6  1  0  0  0  0
  6  7  2  0  0  0  0
  6 27  1  0  0  0  0
  7  8  1  0  0  0  0
  7 13  1  0  0  0  0
  8  9  2  0  0  0  0
  8 10  1  0  0  0  0
 10 11  1  0  0  0  0
 10 37  1  0  0  0  0
 11 12  2  0  0  0  0
 13 14  1  0  0  0  0
 13 18  1  0  0  0  0
 14 15  1  0  0  0  0
 14 38  1  0  0  0  0
 14 39  1  0  0  0  0
 15 16  1  0  0  0  0
 15 40  1  0  0  0  0
 15 41  1  0  0  0  0
 16 17  1  0  0  0  0
 17 42  1  0  0  0  0
 17 43  1  0  0  0  0
 17 44  1  0  0  0  0
 18 19  2  0  0  0  0
 18 20  1  0  0  0  0
 20 21  1  0  0  0  0
 20 45  1  0  0  0  0
 20 46  1  0  0  0  0
 21 22  1  0  0  0  0
 22 26  1  0  0  0  0
 22 23  2  0  0  0  0
 23 24  1  0  0  0  0
 24 25  2  0  0  0  0
 25 26  1  0  0  0  0
 25 47  1  0  0  0  0
 27 48  1  0  0  0  0
 27 49  1  0  0  0  0
M  END
> <Name>
ZINC23644902

> <reference>
BDB4965

> <quality>
0.658

> <status>
decoy

> <atoms in reference ligand area>
22

> <score>
-31.118

$$$$
ZINC22450082
      BALL 1.4.0 (Jan  4 2012, 23:22:29)

 37 38  0999  0  0  0  0  0  0999 V2000
  -35.3624    9.2944  -14.6766 C   0  0  0  0  0  0  0  0  0  0  0  0
  -34.1211    9.7613  -14.3873 C   0  0  0  0  0  0  0  0  0  0  0  0
  -34.5049   10.9372  -13.0976 S   0  0  0  0  0  0  0  0  0  0  0  0
  -36.2235   10.6888  -13.0718 C   0  0  0  0  0  0  0  0  0  0  0  0
  -36.3848    9.7736  -13.9993 N   0  0  0  0  0  0  0  0  0  0  0  0
  -32.7897    9.3947  -14.9908 C   0  0  0  0  0  0  0  0  0  0  0  0
  -32.7211    9.8983  -16.3649 N   0  0  0  0  0  0  0  0  0  0  0  0
  -33.7562   10.4251  -17.0893 C   0  0  0  0  0  0  0  0  0  0  0  0
  -33.2573   10.7598  -18.2946 C   0  0  0  0  0  0  0  0  0  0  0  0
  -31.9544   10.4416  -18.3074 N   0  0  0  0  0  0  0  0  0  0  0  0
  -31.6251    9.9296  -17.1531 C   0  0  0  0  0  0  0  0  0  0  0  0
  -34.0292   11.3780  -19.4319 C   0  0  0  0  0  0  0  0  0  0  0  0
  -33.2171   11.2598  -20.7231 C   0  0  0  0  0  0  0  0  0  0  0  0
  -32.4339   12.5286  -20.9418 C   0  0  0  0  0  0  0  0  0  0  0  0
  -32.9777   13.5014  -21.4086 O   0  0  0  0  0  0  0  0  0  0  0  0
  -31.1322   12.5781  -20.6183 O   0  5  0  0  0  0  0  0  0  0  0  0
  -32.2908   10.1247  -20.6168 N   0  3  0  0  0  0  0  0  0  0  0  0
  -31.9405    9.6049  -21.9453 C   0  0  0  0  0  0  0  0  0  0  0  0
  -31.0551   10.6187  -22.6726 C   0  0  0  0  0  0  0  0  0  0  0  0
  -31.5924   10.8618  -24.0181 N   0  0  0  0  0  0  0  0  0  0  0  0
  -35.5104    8.5342  -15.4578 H   0  0  0  0  0  0  0  0  0  0  0  0
  -36.9824   11.1738  -12.4402 H   0  0  0  0  0  0  0  0  0  0  0  0
  -31.9810    9.8437  -14.3955 H   0  0  0  0  0  0  0  0  0  0  0  0
  -32.6770    8.3005  -14.9960 H   0  0  0  0  0  0  0  0  0  0  0  0
  -34.7956   10.5507  -16.7520 H   0  0  0  0  0  0  0  0  0  0  0  0
  -30.6211    9.5814  -16.8693 H   0  0  0  0  0  0  0  0  0  0  0  0
  -34.2180   12.4396  -19.2141 H   0  0  0  0  0  0  0  0  0  0  0  0
  -34.9879   10.8524  -19.5530 H   0  0  0  0  0  0  0  0  0  0  0  0
  -33.8986   11.0987  -21.5715 H   0  0  0  0  0  0  0  0  0  0  0  0
  -31.4331   10.4302  -20.1352 H   0  0  0  0  0  0  0  0  0  0  0  0
  -32.7323    9.3753  -20.0652 H   0  0  0  0  0  0  0  0  0  0  0  0
  -31.3959    8.6555  -21.8357 H   0  0  0  0  0  0  0  0  0  0  0  0
  -32.8581    9.4361  -22.5280 H   0  0  0  0  0  0  0  0  0  0  0  0
  -30.0321   10.2225  -22.7532 H   0  0  0  0  0  0  0  0  0  0  0  0
  -31.0392   11.5629  -22.1086 H   0  0  0  0  0  0  0  0  0  0  0  0
  -31.3653   11.8228  -24.3110 H   0  0  0  0  0  0  0  0  0  0  0  0
  -32.6150   10.7392  -24.0077 H   0  0  0  0  0  0  0  0  0  0  0  0
  1  5  1  0  0  0  0
  1  2  2  0  0  0  0
  1 21  1  0  0  0  0
  2  3  1  0  0  0  0
  2  6  1  0  0  0  0
  3  4  1  0  0  0  0
  4  5  2  0  0  0  0
  4 22  1  0  0  0  0
  6  7  1  0  0  0  0
  6 23  1  0  0  0  0
  6 24  1  0  0  0  0
  7 11  1  0  0  0  0
  7  8  1  0  0  0  0
  8  9  2  0  0  0  0
  8 25  1  0  0  0  0
  9 10  1  0  0  0  0
  9 12  1  0  0  0  0
 10 11  2  0  0  0  0
 11 26  1  0  0  0  0
 12 13  1  0  0  0  0
 12 27  1  0  0  0  0
 12 28  1  0  0  0  0
 13 14  1  0  0  0  0
 13 17  1  0  0  0  0
 13 29  1  0  0  0  0
 14 15  2  0  0  0  0
 14 16  1  0  0  0  0
 17 18  1  0  0  0  0
 17 30  1  0  0  0  0
 17 31  1  0  0  0  0
 18 19  1  0  0  0  0
 18 32  1  0  0  0  0
 18 33  1  0  0  0  0
 19 20  1  0  0  0  0
 19 34  1  0  0  0  0
 19 35  1  0  0  0  0
 20 36  1  0  0  0  0
 20 37  1  0  0  0  0
M  END
> <Name>
ZINC22450082

> <reference>
BDB5021

> <quality>
0.714

> <status>
decoy

> <atoms in reference ligand area>
17

> <score>
-31.0825

$$$$
ZINC03215161
      BALL 1.4.0 (Jan  4 2012, 23:22:29)

 42 43  0999  0  0  0  0  0  0999 V2000
  -33.2751   13.9000  -20.5172 C   0  0  0  0  0  0  0  0  0  0  0  0
  -32.5077   12.7447  -20.8608 O   0  0  0  0  0  0  0  0  0  0  0  0
  -32.8547   11.5730  -20.2639 C   0  0  0  0  0  0  0  0  0  0  0  0
  -33.2515   10.4971  -21.0348 C   0  0  0  0  0  0  0  0  0  0  0  0
  -33.6045    9.2899  -20.4196 C   0  0  0  0  0  0  0  0  0  0  0  0
  -33.5631    9.1812  -19.0243 C   0  0  0  0  0  0  0  0  0  0  0  0
  -33.1697   10.2633  -18.2602 C   0  0  0  0  0  0  0  0  0  0  0  0
  -32.8153   11.4611  -18.8763 C   0  0  0  0  0  0  0  0  0  0  0  0
  -32.4294   12.5235  -18.1212 O   0  0  0  0  0  0  0  0  0  0  0  0
  -32.9939   12.6287  -16.8126 C   0  0  0  0  0  0  0  0  0  0  0  0
  -33.1292   10.1588  -16.9049 O   0  0  0  0  0  0  0  0  0  0  0  0
  -31.8499    9.9325  -16.3097 C   0  0  0  0  0  0  0  0  0  0  0  0
  -34.0223    8.1426  -21.2352 C   0  0  0  0  0  0  0  0  0  0  0  0
  -33.3942    7.8801  -22.4094 C   0  0  0  0  0  0  0  0  0  0  0  0
  -32.1804    8.4924  -22.9849 C   0  0  0  0  0  0  0  0  0  0  0  0
  -31.5720    9.3727  -22.4050 O   0  0  0  0  0  0  0  0  0  0  0  0
  -31.7873    8.0358  -24.1620 N   0  0  0  0  0  0  0  0  0  0  0  0
  -32.4641    7.0599  -24.8011 C   0  0  0  0  0  0  0  0  0  0  0  0
  -32.2173    6.5496  -25.8772 O   0  0  0  0  0  0  0  0  0  0  0  0
  -33.8049    6.6923  -23.6807 S   0  0  0  0  0  0  0  0  0  0  0  0
  -30.5890    8.6027  -24.7860 C   0  0  0  0  0  0  0  0  0  0  0  0
  -30.4316   10.0623  -24.3551 C   0  0  0  0  0  0  0  0  0  0  0  0
  -29.5371   10.7489  -25.3037 N   0  3  0  0  0  0  0  0  0  0  0  0
  -34.2532   13.7779  -21.0054 H   0  0  0  0  0  0  0  0  0  0  0  0
  -32.7694   14.7575  -20.9850 H   0  0  0  0  0  0  0  0  0  0  0  0
  -33.3787   14.0343  -19.4304 H   0  0  0  0  0  0  0  0  0  0  0  0
  -33.2901   10.5889  -22.1303 H   0  0  0  0  0  0  0  0  0  0  0  0
  -33.8432    8.2357  -18.5370 H   0  0  0  0  0  0  0  0  0  0  0  0
  -32.3425   12.0435  -16.1469 H   0  0  0  0  0  0  0  0  0  0  0  0
  -33.9711   12.1255  -16.8560 H   0  0  0  0  0  0  0  0  0  0  0  0
  -33.0894   13.6706  -16.4729 H   0  0  0  0  0  0  0  0  0  0  0  0
  -31.1083   10.3680  -16.9955 H   0  0  0  0  0  0  0  0  0  0  0  0
  -31.7017    8.8425  -16.3004 H   0  0  0  0  0  0  0  0  0  0  0  0
  -31.7687   10.3610  -15.2999 H   0  0  0  0  0  0  0  0  0  0  0  0
  -34.8443    7.4958  -20.8944 H   0  0  0  0  0  0  0  0  0  0  0  0
  -30.6857    8.5527  -25.8806 H   0  0  0  0  0  0  0  0  0  0  0  0
  -29.7048    8.0301  -24.4694 H   0  0  0  0  0  0  0  0  0  0  0  0
  -29.9976   10.1040  -23.3452 H   0  0  0  0  0  0  0  0  0  0  0  0
  -31.4155   10.5543  -24.3560 H   0  0  0  0  0  0  0  0  0  0  0  0
  -28.5751   10.3986  -25.1905 H   0  0  0  0  0  0  0  0  0  0  0  0
  -29.5571   11.7637  -25.1283 H   0  0  0  0  0  0  0  0  0  0  0  0
  -29.8549   10.5642  -26.2659 H   0  0  0  0  0  0  0  0  0  0  0  0
  1  2  1  0  0  0  0
  1 24  1  0  0  0  0
  1 25  1  0  0  0  0
  1 26  1  0  0  0  0
  2  3  1  0  0  0  0
  3  8  2  0  0  0  0
  3  4  1  0  0  0  0
  4  5  2  0  0  0  0
  4 27  1  0  0  0  0
  5  6  1  0  0  0  0
  5 13  1  0  0  0  0
  6  7  2  0  0  0  0
  6 28  1  0  0  0  0
  7  8  1  0  0  0  0
  7 11  1  0  0  0  0
  8  9  1  0  0  0  0
  9 10  1  0  0  0  0
 10 29  1  0  0  0  0
 10 30  1  0  0  0  0
 10 31  1  0  0  0  0
 11 12  1  0  0  0  0
 12 32  1  0  0  0  0
 12 33  1  0  0  0  0
 12 34  1  0  0  0  0
 13 14  2  0  0  0  0
 13 35  1  0  0  0  0
 14 20  1  0  0  0  0
 14 15  1  0  0  0  0
 15 16  2  0  0  0  0
 15 17  1  0  0  0  0
 17 18  1  0  0  0  0
 17 21  1  0  0  0  0
 18 19  2  0  0  0  0
 18 20  1  0  0  0  0
 21 22  1  0  0  0  0
 21 36  1  0  0  0  0
 21 37  1  0  0  0  0
 22 23  1  0  0  0  0
 22 38  1  0  0  0  0
 22 39  1  0  0  0  0
 23 40  1  0  0  0  0
 23 41  1  0  0  0  0
 23 42  1  0  0  0  0
M  END
> <Name>
ZINC03215161

> <reference>
BDB5198

> <quality>
0.776

> <status>
decoy

> <atoms in reference ligand area>
12

> <score>
-30.9832

$$$$
ZINC31561356
      BALL 1.4.0 (Jan  4 2012, 23:22:29)

 37 37  0999  0  0  0  0  0  0999 V2000
  -26.9719    6.2780  -27.2469 C   0  0  0  0  0  0  0  0  0  0  0  0
  -28.3948    5.7183  -27.1447 C   0  0  0  0  0  0  0  0  0  0  0  0
  -29.1595    6.4984  -26.1082 C   0  0  0  0  0  0  0  0  0  0  0  0
  -30.3615    6.6122  -26.2171 O   0  0  0  0  0  0  0  0  0  0  0  0
  -28.5365    7.0694  -25.0664 N   0  0  0  0  0  0  0  0  0  0  0  0
  -27.2085    6.9980  -24.8911 C   0  0  0  0  0  0  0  0  0  0  0  0
  -26.7047    7.5487  -23.9360 O   0  0  0  0  0  0  0  0  0  0  0  0
  -26.3323    6.2422  -25.8548 C   0  0  0  0  0  0  0  0  0  0  0  0
  -29.3374    7.8048  -24.0845 C   0  0  0  0  0  0  0  0  0  0  0  0
  -30.0650    8.9570  -24.7800 C   0  0  0  0  0  0  0  0  0  0  0  0
  -31.2491    9.4050  -23.9208 C   0  0  0  0  0  0  0  0  0  0  0  0
  -31.4965   10.8368  -24.1365 N   0  3  0  0  0  0  0  0  0  0  0  0
  -31.5985   11.5520  -22.8573 C   0  0  0  0  0  0  0  0  0  0  0  0
  -30.1952   11.8241  -22.3120 C   0  0  0  0  0  0  0  0  0  0  0  0
  -30.2685   13.1713  -21.0994 S   0  0  0  0  0  0  0  0  0  0  0  0
  -28.4103   13.0510  -20.0861 P   0  0  0  0  0  0  0  0  0  0  0  0
  -27.3808   12.5163  -21.0053 O   0  0  0  0  0  0  0  0  0  0  0  0
  -27.9746   14.5187  -19.5879 O   0  5  0  0  0  0  0  0  0  0  0  0
  -28.5544   12.0736  -18.8148 O   0  5  0  0  0  0  0  0  0  0  0  0
  -26.3824    5.6607  -27.9409 H   0  0  0  0  0  0  0  0  0  0  0  0
  -27.0095    7.3160  -27.6091 H   0  0  0  0  0  0  0  0  0  0  0  0
  -28.3539    4.6592  -26.8503 H   0  0  0  0  0  0  0  0  0  0  0  0
  -28.8973    5.8116  -28.1187 H   0  0  0  0  0  0  0  0  0  0  0  0
  -25.3386    6.7124  -25.8934 H   0  0  0  0  0  0  0  0  0  0  0  0
  -26.2350    5.1984  -25.5215 H   0  0  0  0  0  0  0  0  0  0  0  0
  -30.0751    7.1265  -23.6310 H   0  0  0  0  0  0  0  0  0  0  0  0
  -28.6792    8.2077  -23.3007 H   0  0  0  0  0  0  0  0  0  0  0  0
  -29.3716    9.8000  -24.9158 H   0  0  0  0  0  0  0  0  0  0  0  0
  -30.4313    8.6216  -25.7615 H   0  0  0  0  0  0  0  0  0  0  0  0
  -32.1447    8.8321  -24.2032 H   0  0  0  0  0  0  0  0  0  0  0  0
  -31.0207    9.2290  -22.8593 H   0  0  0  0  0  0  0  0  0  0  0  0
  -30.7232   11.2361  -24.6875 H   0  0  0  0  0  0  0  0  0  0  0  0
  -32.3744   10.9555  -24.6620 H   0  0  0  0  0  0  0  0  0  0  0  0
  -32.1229   12.5066  -23.0116 H   0  0  0  0  0  0  0  0  0  0  0  0
  -32.1585   10.9382  -22.1365 H   0  0  0  0  0  0  0  0  0  0  0  0
  -29.5287   12.1118  -23.1385 H   0  0  0  0  0  0  0  0  0  0  0  0
  -29.8075   10.9160  -21.8273 H   0  0  0  0  0  0  0  0  0  0  0  0
  1  8  1  0  0  0  0
  1  2  1  0  0  0  0
  1 20  1  0  0  0  0
  1 21  1  0  0  0  0
  2  3  1  0  0  0  0
  2 22  1  0  0  0  0
  2 23  1  0  0  0  0
  3  4  2  0  0  0  0
  3  5  1  0  0  0  0
  5  6  1  0  0  0  0
  5  9  1  0  0  0  0
  6  7  2  0  0  0  0
  6  8  1  0  0  0  0
  8 24  1  0  0  0  0
  8 25  1  0  0  0  0
  9 10  1  0  0  0  0
  9 26  1  0  0  0  0
  9 27  1  0  0  0  0
 10 11  1  0  0  0  0
 10 28  1  0  0  0  0
 10 29  1  0  0  0  0
 11 12  1  0  0  0  0
 11 30  1  0  0  0  0
 11 31  1  0  0  0  0
 12 13  1  0  0  0  0
 12 32  1  0  0  0  0
 12 33  1  0  0  0  0
 13 14  1  0  0  0  0
 13 34  1  0  0  0  0
 13 35  1  0  0  0  0
 14 15  1  0  0  0  0
 14 36  1  0  0  0  0
 14 37  1  0  0  0  0
 15 16  1  0  0  0  0
 16 17  2  0  0  0  0
 16 18  1  0  0  0  0
 16 19  1  0  0  0  0
M  END
> <Name>
ZINC31561356

> <reference>
BDB5013

> <quality>
0.694

> <status>
decoy

> <atoms in reference ligand area>
14

> <score>
-30.6557

$$$$
ZINC03888603
      BALL 1.4.0 (Jan  4 2012, 23:22:29)

 43 44  0999  0  0  0  0  0  0999 V2000
  -25.0639    7.2231  -24.0749 C   0  0  0  0  0  0  0  0  0  0  0  0
  -25.6379    6.1859  -25.0421 C   0  0  0  0  0  0  0  0  0  0  0  0
  -26.8092    6.7995  -25.8118 C   0  0  0  0  0  0  0  0  0  0  0  0
  -28.0637    6.7746  -24.9364 C   0  0  0  0  0  0  0  0  0  0  0  0
  -28.9266    7.9054  -25.2873 N   0  0  0  0  0  0  0  0  0  0  0  0
  -29.4232    8.7451  -24.2829 C   0  0  0  0  0  0  0  0  0  0  0  0
  -29.6592    8.2443  -23.0116 C   0  0  0  0  0  0  0  0  0  0  0  0
  -30.1451    9.0765  -22.0200 C   0  0  0  0  0  0  0  0  0  0  0  0
  -30.4069   10.4060  -22.2945 C   0  0  0  0  0  0  0  0  0  0  0  0
  -30.1743   10.9137  -23.5594 C   0  0  0  0  0  0  0  0  0  0  0  0
  -29.6823   10.0876  -24.5584 C   0  0  0  0  0  0  0  0  0  0  0  0
  -29.4464   10.5995  -25.8401 N   0  0  0  0  0  0  0  0  0  0  0  0
  -31.0318   11.4582  -21.0268 S   0  0  0  0  0  0  0  0  0  0  0  0
  -31.2480   10.6369  -19.8874 O   0  0  0  0  0  0  0  0  0  0  0  0
  -32.0677   12.2322  -21.6155 O   0  0  0  0  0  0  0  0  0  0  0  0
  -29.8210   12.5144  -20.6260 N   0  0  0  0  0  0  0  0  0  0  0  0
  -28.6548   12.8377  -21.4609 C   0  0  0  0  0  0  0  0  0  0  0  0
  -27.7910   13.8439  -20.6718 C   0  0  0  0  0  0  0  0  0  0  0  0
  -28.2221   13.5916  -19.2028 C   0  0  0  0  0  0  0  0  0  0  0  0
  -29.7306   13.2814  -19.3703 C   0  0  0  0  0  0  0  0  0  0  0  0
  -25.7812    7.4028  -23.2605 H   0  0  0  0  0  0  0  0  0  0  0  0
  -24.8777    8.1642  -24.6130 H   0  0  0  0  0  0  0  0  0  0  0  0
  -24.1189    6.8494  -23.6539 H   0  0  0  0  0  0  0  0  0  0  0  0
  -24.8569    5.8742  -25.7514 H   0  0  0  0  0  0  0  0  0  0  0  0
  -25.9901    5.3107  -24.4765 H   0  0  0  0  0  0  0  0  0  0  0  0
  -26.5688    7.8394  -26.0778 H   0  0  0  0  0  0  0  0  0  0  0  0
  -26.9911    6.2192  -26.7285 H   0  0  0  0  0  0  0  0  0  0  0  0
  -28.6082    5.8334  -25.1023 H   0  0  0  0  0  0  0  0  0  0  0  0
  -27.7750    6.8495  -23.8776 H   0  0  0  0  0  0  0  0  0  0  0  0
  -29.1679    8.0827  -26.2728 H   0  0  0  0  0  0  0  0  0  0  0  0
  -29.4599    7.1850  -22.7920 H   0  0  0  0  0  0  0  0  0  0  0  0
  -30.3239    8.6795  -21.0099 H   0  0  0  0  0  0  0  0  0  0  0  0
  -30.3798   11.9730  -23.7732 H   0  0  0  0  0  0  0  0  0  0  0  0
  -30.1944   10.5777  -26.5479 H   0  0  0  0  0  0  0  0  0  0  0  0
  -28.5259   10.9975  -26.0752 H   0  0  0  0  0  0  0  0  0  0  0  0
  -28.9864   13.2944  -22.4052 H   0  0  0  0  0  0  0  0  0  0  0  0
  -28.0736   11.9249  -21.6587 H   0  0  0  0  0  0  0  0  0  0  0  0
  -26.7232   13.6126  -20.7999 H   0  0  0  0  0  0  0  0  0  0  0  0
  -28.0370   14.8741  -20.9685 H   0  0  0  0  0  0  0  0  0  0  0  0
  -28.0830   14.5010  -18.5998 H   0  0  0  0  0  0  0  0  0  0  0  0
  -27.6946   12.7175  -18.7931 H   0  0  0  0  0  0  0  0  0  0  0  0
  -30.0845   12.6711  -18.5263 H   0  0  0  0  0  0  0  0  0  0  0  0
  -30.2995   14.2189  -19.4573 H   0  0  0  0  0  0  0  0  0  0  0  0
  1  2  1  0  0  0  0
  1 21  1  0  0  0  0
  1 22  1  0  0  0  0
  1 23  1  0  0  0  0
  2  3  1  0  0  0  0
  2 24  1  0  0  0  0
  2 25  1  0  0  0  0
  3  4  1  0  0  0  0
  3 26  1  0  0  0  0
  3 27  1  0  0  0  0
  4  5  1  0  0  0  0
  4 28  1  0  0  0  0
  4 29  1  0  0  0  0
  5  6  1  0  0  0  0
  5 30  1  0  0  0  0
  6 11  2  0  0  0  0
  6  7  1  0  0  0  0
  7  8  2  0  0  0  0
  7 31  1  0  0  0  0
  8  9  1  0  0  0  0
  8 32  1  0  0  0  0
  9 10  2  0  0  0  0
  9 13  1  0  0  0  0
 10 11  1  0  0  0  0
 10 33  1  0  0  0  0
 11 12  1  0  0  0  0
 12 34  1  0  0  0  0
 12 35  1  0  0  0  0
 13 14  2  0  0  0  0
 13 15  2  0  0  0  0
 13 16  1  0  0  0  0
 16 20  1  0  0  0  0
 16 17  1  0  0  0  0
 17 18  1  0  0  0  0
 17 36  1  0  0  0  0
 17 37  1  0  0  0  0
 18 19  1  0  0  0  0
 18 38  1  0  0  0  0
 18 39  1  0  0  0  0
 19 20  1  0  0  0  0
 19 40  1  0  0  0  0
 19 41  1  0  0  0  0
 20 42  1  0  0  0  0
 20 43  1  0  0  0  0
M  END
> <Name>
ZINC03888603

> <reference>
BDB5204

> <quality>
0.748

> <status>
decoy

> <atoms in reference ligand area>
18

> <score>
-30.6414

$$$$
ZINC26449470
      BALL 1.4.0 (Jan  4 2012, 23:22:29)

 47 48  0999  0  0  0  0  0  0999 V2000
  -36.2956    8.3442  -20.3658 C   0  0  0  0  0  0  0  0  0  0  0  0
  -35.4305    8.8139  -21.4017 O   0  0  0  0  0  0  0  0  0  0  0  0
  -35.6604    8.2027  -22.6727 C   0  0  0  0  0  0  0  0  0  0  0  0
  -34.7717    8.8669  -23.7262 C   0  0  0  0  0  0  0  0  0  0  0  0
  -33.5949    8.0239  -23.9759 N   0  3  0  0  0  0  0  0  0  0  0  0
  -32.9178    7.6793  -22.7187 C   0  0  0  0  0  0  0  0  0  0  0  0
  -32.5527    8.9615  -21.9679 C   0  0  0  0  0  0  0  0  0  0  0  0
  -31.3454    9.5023  -22.5081 O   0  0  0  0  0  0  0  0  0  0  0  0
  -30.6553   10.3733  -21.7256 C   0  0  0  0  0  0  0  0  0  0  0  0
  -30.7093   10.2592  -20.3441 C   0  0  0  0  0  0  0  0  0  0  0  0
  -30.0064   11.1455  -19.5510 C   0  0  0  0  0  0  0  0  0  0  0  0
  -29.2496   12.1456  -20.1332 C   0  0  0  0  0  0  0  0  0  0  0  0
  -29.1941   12.2614  -21.5098 C   0  0  0  0  0  0  0  0  0  0  0  0
  -29.8956   11.3779  -22.3073 C   0  0  0  0  0  0  0  0  0  0  0  0
  -28.3549   13.2748  -19.1188 S   0  0  0  0  0  0  0  0  0  0  0  0
  -26.9756   13.0314  -19.3590 O   0  0  0  0  0  0  0  0  0  0  0  0
  -28.9480   14.5517  -19.3115 O   0  0  0  0  0  0  0  0  0  0  0  0
  -28.6427   12.8520  -17.5437 N   0  0  0  0  0  0  0  0  0  0  0  0
  -33.9627    6.8146  -24.7244 C   0  0  0  0  0  0  0  0  0  0  0  0
  -34.5455    7.2068  -26.0576 C   0  0  0  0  0  0  0  0  0  0  0  0
  -34.1118    6.7871  -27.2598 C   0  0  0  0  0  0  0  0  0  0  0  0
  -34.9394    7.3978  -28.2299 C   0  0  0  0  0  0  0  0  0  0  0  0
  -35.8294    8.1542  -27.5625 C   0  0  0  0  0  0  0  0  0  0  0  0
  -35.5896    8.0300  -26.2469 O   0  0  0  0  0  0  0  0  0  0  0  0
  -36.8589    7.4888  -20.7669 H   0  0  0  0  0  0  0  0  0  0  0  0
  -37.0062    9.1516  -20.1356 H   0  0  0  0  0  0  0  0  0  0  0  0
  -35.7304    8.0535  -19.4680 H   0  0  0  0  0  0  0  0  0  0  0  0
  -36.7165    8.3261  -22.9544 H   0  0  0  0  0  0  0  0  0  0  0  0
  -35.4195    7.1310  -22.6133 H   0  0  0  0  0  0  0  0  0  0  0  0
  -35.3393    8.9893  -24.6606 H   0  0  0  0  0  0  0  0  0  0  0  0
  -34.4454    9.8528  -23.3635 H   0  0  0  0  0  0  0  0  0  0  0  0
  -32.9349    8.5646  -24.5530 H   0  0  0  0  0  0  0  0  0  0  0  0
  -32.0022    7.1104  -22.9379 H   0  0  0  0  0  0  0  0  0  0  0  0
  -33.5885    7.0689  -22.0962 H   0  0  0  0  0  0  0  0  0  0  0  0
  -33.3646    9.6954  -22.0789 H   0  0  0  0  0  0  0  0  0  0  0  0
  -32.4070    8.7344  -20.9014 H   0  0  0  0  0  0  0  0  0  0  0  0
  -31.3112    9.4638  -19.8805 H   0  0  0  0  0  0  0  0  0  0  0  0
  -30.0489   11.0555  -18.4554 H   0  0  0  0  0  0  0  0  0  0  0  0
  -28.5910   13.0577  -21.9705 H   0  0  0  0  0  0  0  0  0  0  0  0
  -29.8518   11.4709  -23.4025 H   0  0  0  0  0  0  0  0  0  0  0  0
  -28.7499   13.5826  -16.8258 H   0  0  0  0  0  0  0  0  0  0  0  0
  -28.7145   11.8584  -17.2821 H   0  0  0  0  0  0  0  0  0  0  0  0
  -33.0675    6.1955  -24.8840 H   0  0  0  0  0  0  0  0  0  0  0  0
  -34.7080    6.2413  -24.1536 H   0  0  0  0  0  0  0  0  0  0  0  0
  -33.2741    6.1005  -27.4515 H   0  0  0  0  0  0  0  0  0  0  0  0
  -34.8691    7.2775  -29.3210 H   0  0  0  0  0  0  0  0  0  0  0  0
  -36.6193    8.7700  -28.0171 H   0  0  0  0  0  0  0  0  0  0  0  0
  1  2  1  0  0  0  0
  1 25  1  0  0  0  0
  1 26  1  0  0  0  0
  1 27  1  0  0  0  0
  2  3  1  0  0  0  0
  3  4  1  0  0  0  0
  3 28  1  0  0  0  0
  3 29  1  0  0  0  0
  4  5  1  0  0  0  0
  4 30  1  0  0  0  0
  4 31  1  0  0  0  0
  5  6  1  0  0  0  0
  5 19  1  0  0  0  0
  5 32  1  0  0  0  0
  6  7  1  0  0  0  0
  6 33  1  0  0  0  0
  6 34  1  0  0  0  0
  7  8  1  0  0  0  0
  7 35  1  0  0  0  0
  7 36  1  0  0  0  0
  8  9  1  0  0  0  0
  9 14  2  0  0  0  0
  9 10  1  0  0  0  0
 10 11  2  0  0  0  0
 10 37  1  0  0  0  0
 11 12  1  0  0  0  0
 11 38  1  0  0  0  0
 12 13  2  0  0  0  0
 12 15  1  0  0  0  0
 13 14  1  0  0  0  0
 13 39  1  0  0  0  0
 14 40  1  0  0  0  0
 15 16  2  0  0  0  0
 15 17  2  0  0  0  0
 15 18  1  0  0  0  0
 18 41  1  0  0  0  0
 18 42  1  0  0  0  0
 19 20  1  0  0  0  0
 19 43  1  0  0  0  0
 19 44  1  0  0  0  0
 20 24  1  0  0  0  0
 20 21  2  0  0  0  0
 21 22  1  0  0  0  0
 21 45  1  0  0  0  0
 22 23  2  0  0  0  0
 22 46  1  0  0  0  0
 23 24  1  0  0  0  0
 23 47  1  0  0  0  0
M  END
> <Name>
ZINC26449470

> <reference>
BDB4997

> <quality>
0.675

> <status>
decoy

> <atoms in reference ligand area>
13

> <score>
-30.4836

$$$$
ZINC20292668
      BALL 1.4.0 (Jan  4 2012, 23:22:29)

 44 44  0999  0  0  0  0  0  0999 V2000
  -33.3056    8.1731  -21.1674 C   0  0  0  0  0  0  0  0  0  0  0  0
  -32.7494    9.1406  -22.1801 C   0  0  0  0  0  0  0  0  0  0  0  0
  -31.9122   10.1626  -21.7727 C   0  0  0  0  0  0  0  0  0  0  0  0
  -31.2393   11.0402  -22.7468 C   0  0  0  0  0  0  0  0  0  0  0  0
  -31.4071   10.8908  -23.9425 O   0  0  0  0  0  0  0  0  0  0  0  0
  -30.4366   12.0172  -22.2767 N   0  0  0  0  0  0  0  0  0  0  0  0
  -30.2469   12.1960  -20.9619 C   0  0  0  0  0  0  0  0  0  0  0  0
  -29.5106   13.0941  -20.6037 O   0  0  0  0  0  0  0  0  0  0  0  0
  -30.8258   11.4366  -20.0212 N   0  0  0  0  0  0  0  0  0  0  0  0
  -31.6543   10.4225  -20.3450 C   0  0  0  0  0  0  0  0  0  0  0  0
  -32.1738    9.7402  -19.4819 O   0  0  0  0  0  0  0  0  0  0  0  0
  -30.5528   11.7146  -18.6090 C   0  0  0  0  0  0  0  0  0  0  0  0
  -29.1686   12.2941  -18.4695 C   0  0  0  0  0  0  0  0  0  0  0  0
  -28.9978   13.4442  -17.8660 C   0  0  0  0  0  0  0  0  0  0  0  0
  -33.0683    9.0096  -23.4833 N   0  0  0  0  0  0  0  0  0  0  0  0
  -34.1939    8.1601  -23.8803 C   0  0  0  0  0  0  0  0  0  0  0  0
  -34.1891    7.9843  -25.4001 C   0  0  0  0  0  0  0  0  0  0  0  0
  -35.3646    7.0971  -25.8147 C   0  0  0  0  0  0  0  0  0  0  0  0
  -35.5047    7.1215  -27.2767 N   0  3  0  0  0  0  0  0  0  0  0  0
  -36.2020    8.3367  -27.7186 C   0  0  0  0  0  0  0  0  0  0  0  0
  -34.1963    6.9973  -27.9331 C   0  0  0  0  0  0  0  0  0  0  0  0
  -33.9785    7.5167  -21.7387 H   0  0  0  0  0  0  0  0  0  0  0  0
  -33.9343    8.7844  -20.5033 H   0  0  0  0  0  0  0  0  0  0  0  0
  -32.5353    7.6114  -20.6186 H   0  0  0  0  0  0  0  0  0  0  0  0
  -29.9586   12.6401  -22.9434 H   0  0  0  0  0  0  0  0  0  0  0  0
  -30.6186   10.7810  -18.0311 H   0  0  0  0  0  0  0  0  0  0  0  0
  -31.2914   12.4349  -18.2274 H   0  0  0  0  0  0  0  0  0  0  0  0
  -28.3017   11.7514  -18.8745 H   0  0  0  0  0  0  0  0  0  0  0  0
  -29.8646   13.9869  -17.4610 H   0  0  0  0  0  0  0  0  0  0  0  0
  -27.9875   13.8673  -17.7642 H   0  0  0  0  0  0  0  0  0  0  0  0
  -32.5206    9.5068  -24.2000 H   0  0  0  0  0  0  0  0  0  0  0  0
  -34.0990    7.1763  -23.3976 H   0  0  0  0  0  0  0  0  0  0  0  0
  -35.1380    8.6315  -23.5695 H   0  0  0  0  0  0  0  0  0  0  0  0
  -34.2844    8.9679  -25.8834 H   0  0  0  0  0  0  0  0  0  0  0  0
  -33.2461    7.5120  -25.7127 H   0  0  0  0  0  0  0  0  0  0  0  0
  -36.2895    7.4722  -25.3521 H   0  0  0  0  0  0  0  0  0  0  0  0
  -35.1805    6.0650  -25.4816 H   0  0  0  0  0  0  0  0  0  0  0  0
  -36.0759    6.3104  -27.5534 H   0  0  0  0  0  0  0  0  0  0  0  0
  -35.8559    9.1859  -27.1111 H   0  0  0  0  0  0  0  0  0  0  0  0
  -37.2830    8.2017  -27.5658 H   0  0  0  0  0  0  0  0  0  0  0  0
  -35.9951    8.5278  -28.7818 H   0  0  0  0  0  0  0  0  0  0  0  0
  -33.5638    7.8441  -27.6282 H   0  0  0  0  0  0  0  0  0  0  0  0
  -34.3409    7.0303  -29.0231 H   0  0  0  0  0  0  0  0  0  0  0  0
  -33.7166    6.0496  -27.6475 H   0  0  0  0  0  0  0  0  0  0  0  0
  1  2  1  0  0  0  0
  1 22  1  0  0  0  0
  1 23  1  0  0  0  0
  1 24  1  0  0  0  0
  2  3  2  0  0  0  0
  2 15  1  0  0  0  0
  3 10  1  0  0  0  0
  3  4  1  0  0  0  0
  4  5  2  0  0  0  0
  4  6  1  0  0  0  0
  6  7  1  0  0  0  0
  6 25  1  0  0  0  0
  7  8  2  0  0  0  0
  7  9  1  0  0  0  0
  9 10  1  0  0  0  0
  9 12  1  0  0  0  0
 10 11  2  0  0  0  0
 12 13  1  0  0  0  0
 12 26  1  0  0  0  0
 12 27  1  0  0  0  0
 13 14  2  0  0  0  0
 13 28  1  0  0  0  0
 14 29  1  0  0  0  0
 14 30  1  0  0  0  0
 15 16  1  0  0  0  0
 15 31  1  0  0  0  0
 16 17  1  0  0  0  0
 16 32  1  0  0  0  0
 16 33  1  0  0  0  0
 17 18  1  0  0  0  0
 17 34  1  0  0  0  0
 17 35  1  0  0  0  0
 18 19  1  0  0  0  0
 18 36  1  0  0  0  0
 18 37  1  0  0  0  0
 19 20  1  0  0  0  0
 19 21  1  0  0  0  0
 19 38  1  0  0  0  0
 20 39  1  0  0  0  0
 20 40  1  0  0  0  0
 20 41  1  0  0  0  0
 21 42  1  0  0  0  0
 21 43  1  0  0  0  0
 21 44  1  0  0  0  0
M  END
> <Name>
ZINC20292668

> <reference>
BDB5222

> <quality>
0.800

> <status>
decoy

> <atoms in reference ligand area>
16

> <score>
-30.2351

$$$$
ZINC04650528
      BALL 1.4.0 (Jan  4 2012, 23:22:29)

 44 45  0999  0  0  0  0  0  0999 V2000
  -34.8481    7.9296  -20.0438 C   0  0  0  0  0  0  0  0  0  0  0  0
  -34.3142    9.1346  -20.7746 C   0  0  0  0  0  0  0  0  0  0  0  0
  -35.0577    9.8173  -21.4374 O   0  0  0  0  0  0  0  0  0  0  0  0
  -32.8522    9.4876  -20.6780 C   0  0  0  0  0  0  0  0  0  0  0  0
  -32.4336   10.3723  -21.8633 C   0  0  0  0  0  0  0  0  0  0  0  0
  -32.0069   11.1716  -19.1780 N   0  0  0  0  0  0  0  0  0  0  0  0
  -31.7506    9.9920  -18.5992 C   0  0  0  0  0  0  0  0  0  0  0  0
  -31.1990    9.8590  -17.5262 O   0  0  0  0  0  0  0  0  0  0  0  0
  -32.2372    8.8639  -19.4422 C   0  0  0  0  0  0  0  0  0  0  0  0
  -32.1569    7.6854  -19.1903 O   0  0  0  0  0  0  0  0  0  0  0  0
  -31.6570   12.4697  -18.5961 C   0  0  0  0  0  0  0  0  0  0  0  0
  -30.1761   12.7594  -18.8483 C   0  0  0  0  0  0  0  0  0  0  0  0
  -28.4075   14.3733  -18.4880 C   0  0  0  0  0  0  0  0  0  0  0  0
  -27.5615   13.6192  -17.4601 C   0  0  0  0  0  0  0  0  0  0  0  0
  -27.5010   12.2363  -17.8154 O   0  0  0  0  0  0  0  0  0  0  0  0
  -31.3143    9.7140  -22.6279 C   0  0  0  0  0  0  0  0  0  0  0  0
  -31.0576   10.0877  -23.9342 C   0  0  0  0  0  0  0  0  0  0  0  0
  -30.0285    9.4898  -24.6354 C   0  0  0  0  0  0  0  0  0  0  0  0
  -29.2593    8.5056  -24.0316 C   0  0  0  0  0  0  0  0  0  0  0  0
  -29.5224    8.1285  -22.7227 C   0  0  0  0  0  0  0  0  0  0  0  0
  -30.5492    8.7334  -22.0239 C   0  0  0  0  0  0  0  0  0  0  0  0
  -28.2495    7.9123  -24.7210 O   0  0  0  0  0  0  0  0  0  0  0  0
  -29.8323   14.0674  -18.2595 N   0  3  0  0  0  0  0  0  0  0  0  0
  -35.9415    8.0471  -20.0697 H   0  0  0  0  0  0  0  0  0  0  0  0
  -34.5362    8.0739  -18.9988 H   0  0  0  0  0  0  0  0  0  0  0  0
  -34.5154    6.9656  -20.4562 H   0  0  0  0  0  0  0  0  0  0  0  0
  -35.7719   10.0903  -20.8085 H   0  0  0  0  0  0  0  0  0  0  0  0
  -32.8757   10.8924  -22.7258 H   0  0  0  0  0  0  0  0  0  0  0  0
  -32.2686   13.2570  -19.0611 H   0  0  0  0  0  0  0  0  0  0  0  0
  -31.8467   12.4501  -17.5127 H   0  0  0  0  0  0  0  0  0  0  0  0
  -29.5632   11.9742  -18.3816 H   0  0  0  0  0  0  0  0  0  0  0  0
  -29.9844   12.7829  -19.9313 H   0  0  0  0  0  0  0  0  0  0  0  0
  -28.2420   15.4552  -18.3775 H   0  0  0  0  0  0  0  0  0  0  0  0
  -28.1227   14.0577  -19.5025 H   0  0  0  0  0  0  0  0  0  0  0  0
  -26.5444   14.0379  -17.4440 H   0  0  0  0  0  0  0  0  0  0  0  0
  -28.0160   13.7215  -16.4636 H   0  0  0  0  0  0  0  0  0  0  0  0
  -27.7302   11.6820  -17.0278 H   0  0  0  0  0  0  0  0  0  0  0  0
  -31.6734   10.8618  -24.4154 H   0  0  0  0  0  0  0  0  0  0  0  0
  -29.8190    9.7938  -25.6716 H   0  0  0  0  0  0  0  0  0  0  0  0
  -28.9140    7.3484  -22.2417 H   0  0  0  0  0  0  0  0  0  0  0  0
  -30.7582    8.4348  -20.9861 H   0  0  0  0  0  0  0  0  0  0  0  0
  -27.8627    8.6340  -25.2775 H   0  0  0  0  0  0  0  0  0  0  0  0
  -30.4119   14.8000  -18.6932 H   0  0  0  0  0  0  0  0  0  0  0  0
  -30.0179   14.0463  -17.2466 H   0  0  0  0  0  0  0  0  0  0  0  0
  1  2  1  0  0  0  0
  1 24  1  0  0  0  0
  1 25  1  0  0  0  0
  1 26  1  0  0  0  0
  2  4  2  0  0  0  0
  2  3  1  0  0  0  0
  3 27  1  0  0  0  0
  4  5  1  0  0  0  0
  4  9  1  0  0  0  0
  5  6  1  0  0  0  0
  5 16  1  0  0  0  0
  5 28  1  0  0  0  0
  6  7  1  0  0  0  0
  6 11  1  0  0  0  0
  7  8  2  0  0  0  0
  7  9  1  0  0  0  0
  9 10  2  0  0  0  0
 11 12  1  0  0  0  0
 11 29  1  0  0  0  0
 11 30  1  0  0  0  0
 12 23  1  0  0  0  0
 12 31  1  0  0  0  0
 12 32  1  0  0  0  0
 13 14  1  0  0  0  0
 13 23  1  0  0  0  0
 13 33  1  0  0  0  0
 13 34  1  0  0  0  0
 14 15  1  0  0  0  0
 14 35  1  0  0  0  0
 14 36  1  0  0  0  0
 15 37  1  0  0  0  0
 16 21  2  0  0  0  0
 16 17  1  0  0  0  0
 17 18  2  0  0  0  0
 17 38  1  0  0  0  0
 18 19  1  0  0  0  0
 18 39  1  0  0  0  0
 19 20  2  0  0  0  0
 19 22  1  0  0  0  0
 20 21  1  0  0  0  0
 20 40  1  0  0  0  0
 21 41  1  0  0  0  0
 22 42  1  0  0  0  0
 23 43  1  0  0  0  0
 23 44  1  0  0  0  0
M  END
> <Name>
ZINC04650528

> <reference>
BDB5200

> <quality>
0.817

> <status>
decoy

> <atoms in reference ligand area>
13

> <score>
-30.1113

$$$$
ZINC09305196
      BALL 1.4.0 (Jan  4 2012, 23:22:29)

 43 44  0999  0  0  0  0  0  0999 V2000
  -32.9087   13.6799  -20.5892 C   0  0  0  0  0  0  0  0  0  0  0  0
  -33.3116   12.5186  -21.2228 C   0  0  0  0  0  0  0  0  0  0  0  0
  -32.3772   11.6942  -21.8241 C   0  0  0  0  0  0  0  0  0  0  0  0
  -31.0364   12.0309  -21.7805 C   0  0  0  0  0  0  0  0  0  0  0  0
  -30.6261   13.1984  -21.1348 C   0  0  0  0  0  0  0  0  0  0  0  0
  -31.5696   14.0209  -20.5402 C   0  0  0  0  0  0  0  0  0  0  0  0
  -29.2653   13.5219  -21.0919 N   0  0  0  0  0  0  0  0  0  0  0  0
  -28.3828   12.8923  -21.8902 C   0  0  0  0  0  0  0  0  0  0  0  0
  -27.2023   13.1578  -21.8048 O   0  0  0  0  0  0  0  0  0  0  0  0
  -28.8435   11.8611  -22.8883 C   0  0  0  0  0  0  0  0  0  0  0  0
  -30.0640   11.2157  -22.3821 N   0  0  0  0  0  0  0  0  0  0  0  0
  -30.2439    9.8845  -22.4928 C   0  0  0  0  0  0  0  0  0  0  0  0
  -30.3925    9.2061  -21.4947 O   0  0  0  0  0  0  0  0  0  0  0  0
  -30.2590    9.3055  -23.7097 N   0  0  0  0  0  0  0  0  0  0  0  0
  -31.5103    8.7682  -24.2498 C   0  0  0  0  0  0  0  0  0  0  0  0
  -31.2304    7.4456  -24.9663 C   0  0  0  0  0  0  0  0  0  0  0  0
  -32.4769    7.0106  -25.7393 C   0  0  0  0  0  0  0  0  0  0  0  0
  -32.0860    6.0222  -26.8076 C   0  0  0  0  0  0  0  0  0  0  0  0
  -32.4081    4.8575  -26.7033 O   0  0  0  0  0  0  0  0  0  0  0  0
  -31.3785    6.4323  -27.8790 N   0  0  0  0  0  0  0  0  0  0  0  0
  -30.9986    5.4714  -28.9174 C   0  0  0  0  0  0  0  0  0  0  0  0
  -29.5728    5.7660  -29.3879 C   0  0  0  0  0  0  0  0  0  0  0  0
  -28.9331    6.6370  -28.4527 O   0  0  0  0  0  0  0  0  0  0  0  0
  -33.6577   14.3359  -20.1215 H   0  0  0  0  0  0  0  0  0  0  0  0
  -34.3778   12.2496  -21.2488 H   0  0  0  0  0  0  0  0  0  0  0  0
  -32.6994   10.7747  -22.3347 H   0  0  0  0  0  0  0  0  0  0  0  0
  -31.2539   14.9431  -20.0304 H   0  0  0  0  0  0  0  0  0  0  0  0
  -28.9352   14.2499  -20.4424 H   0  0  0  0  0  0  0  0  0  0  0  0
  -28.0575   11.1037  -23.0255 H   0  0  0  0  0  0  0  0  0  0  0  0
  -29.0583   12.3501  -23.8499 H   0  0  0  0  0  0  0  0  0  0  0  0
  -29.3907    9.2408  -24.2600 H   0  0  0  0  0  0  0  0  0  0  0  0
  -32.2206    8.5960  -23.4278 H   0  0  0  0  0  0  0  0  0  0  0  0
  -31.9417    9.4864  -24.9627 H   0  0  0  0  0  0  0  0  0  0  0  0
  -30.3928    7.5781  -25.6669 H   0  0  0  0  0  0  0  0  0  0  0  0
  -30.9710    6.6741  -24.2264 H   0  0  0  0  0  0  0  0  0  0  0  0
  -32.9447    7.8893  -26.2074 H   0  0  0  0  0  0  0  0  0  0  0  0
  -33.1913    6.5394  -25.0483 H   0  0  0  0  0  0  0  0  0  0  0  0
  -31.1050    7.4213  -27.9676 H   0  0  0  0  0  0  0  0  0  0  0  0
  -31.6899    5.5572  -29.7687 H   0  0  0  0  0  0  0  0  0  0  0  0
  -31.0456    4.4514  -28.5083 H   0  0  0  0  0  0  0  0  0  0  0  0
  -29.0077    4.8249  -29.4575 H   0  0  0  0  0  0  0  0  0  0  0  0
  -29.6040    6.2491  -30.3757 H   0  0  0  0  0  0  0  0  0  0  0  0
  -29.5206    7.4118  -28.2668 H   0  0  0  0  0  0  0  0  0  0  0  0
  1  6  2  0  0  0  0
  1  2  1  0  0  0  0
  1 24  1  0  0  0  0
  2  3  2  0  0  0  0
  2 25  1  0  0  0  0
  3  4  1  0  0  0  0
  3 26  1  0  0  0  0
  4 11  1  0  0  0  0
  4  5  2  0  0  0  0
  5  6  1  0  0  0  0
  5  7  1  0  0  0  0
  6 27  1  0  0  0  0
  7  8  1  0  0  0  0
  7 28  1  0  0  0  0
  8  9  2  0  0  0  0
  8 10  1  0  0  0  0
 10 11  1  0  0  0  0
 10 29  1  0  0  0  0
 10 30  1  0  0  0  0
 11 12  1  0  0  0  0
 12 13  2  0  0  0  0
 12 14  1  0  0  0  0
 14 15  1  0  0  0  0
 14 31  1  0  0  0  0
 15 16  1  0  0  0  0
 15 32  1  0  0  0  0
 15 33  1  0  0  0  0
 16 17  1  0  0  0  0
 16 34  1  0  0  0  0
 16 35  1  0  0  0  0
 17 18  1  0  0  0  0
 17 36  1  0  0  0  0
 17 37  1  0  0  0  0
 18 19  2  0  0  0  0
 18 20  1  0  0  0  0
 20 21  1  0  0  0  0
 20 38  1  0  0  0  0
 21 22  1  0  0  0  0
 21 39  1  0  0  0  0
 21 40  1  0  0  0  0
 22 23  1  0  0  0  0
 22 41  1  0  0  0  0
 22 42  1  0  0  0  0
 23 43  1  0  0  0  0
M  END
> <Name>
ZINC09305196

> <reference>
BDB5199

> <quality>
0.746

> <status>
decoy

> <atoms in reference ligand area>
16

> <score>
-30.0537

$$$$
ZINC05594650
      BALL 1.4.0 (Jan  4 2012, 23:22:29)

 33 34  0999  0  0  0  0  0  0999 V2000
  -29.4490   13.4382  -21.1524 C   0  0  0  0  0  0  0  0  0  0  0  0
  -28.5889   13.2435  -20.1691 N   0  0  0  0  0  0  0  0  0  0  0  0
  -28.7798   12.2865  -19.2672 C   0  0  0  0  0  0  0  0  0  0  0  0
  -29.9242   11.4784  -19.3803 C   0  0  0  0  0  0  0  0  0  0  0  0
  -30.8082   11.7256  -20.4438 C   0  0  0  0  0  0  0  0  0  0  0  0
  -30.5333   12.7065  -21.2977 N   0  0  0  0  0  0  0  0  0  0  0  0
  -31.8197   10.8075  -20.3161 N   0  0  0  0  0  0  0  0  0  0  0  0
  -31.5445   10.0463  -19.2193 C   0  0  0  0  0  0  0  0  0  0  0  0
  -30.4321   10.4416  -18.6716 N   0  0  0  0  0  0  0  0  0  0  0  0
  -32.9818   10.6698  -21.1974 C   0  0  0  0  0  0  0  0  0  0  0  0
  -32.9218    9.3188  -21.9133 C   0  0  0  0  0  0  0  0  0  0  0  0
  -33.7477    9.3601  -23.0787 O   0  0  0  0  0  0  0  0  0  0  0  0
  -33.4346    8.3588  -24.0488 C   0  0  0  0  0  0  0  0  0  0  0  0
  -34.1981    8.6462  -25.3431 C   0  0  0  0  0  0  0  0  0  0  0  0
  -34.1682    7.4062  -26.2389 C   0  0  0  0  0  0  0  0  0  0  0  0
  -34.0986    7.8094  -27.6082 O   0  0  0  0  0  0  0  0  0  0  0  0
  -35.5533    8.9773  -25.0332 O   0  0  0  0  0  0  0  0  0  0  0  0
  -27.8733   12.0905  -18.2401 N   0  0  0  0  0  0  0  0  0  0  0  0
  -29.2517   14.2420  -21.8770 H   0  0  0  0  0  0  0  0  0  0  0  0
  -32.1704    9.2200  -18.8513 H   0  0  0  0  0  0  0  0  0  0  0  0
  -33.9038   10.7270  -20.6003 H   0  0  0  0  0  0  0  0  0  0  0  0
  -32.9765   11.4792  -21.9423 H   0  0  0  0  0  0  0  0  0  0  0  0
  -31.8835    9.1056  -22.2077 H   0  0  0  0  0  0  0  0  0  0  0  0
  -33.2811    8.5284  -21.2379 H   0  0  0  0  0  0  0  0  0  0  0  0
  -33.7256    7.3702  -23.6641 H   0  0  0  0  0  0  0  0  0  0  0  0
  -32.3534    8.3697  -24.2514 H   0  0  0  0  0  0  0  0  0  0  0  0
  -33.7256    9.4893  -25.8681 H   0  0  0  0  0  0  0  0  0  0  0  0
  -35.0810    6.8139  -26.0777 H   0  0  0  0  0  0  0  0  0  0  0  0
  -33.2869    6.7962  -25.9916 H   0  0  0  0  0  0  0  0  0  0  0  0
  -33.3705    8.4704  -27.7219 H   0  0  0  0  0  0  0  0  0  0  0  0
  -35.8554    9.7168  -25.6180 H   0  0  0  0  0  0  0  0  0  0  0  0
  -28.1675   11.5803  -17.3952 H   0  0  0  0  0  0  0  0  0  0  0  0
  -26.9117   12.4512  -18.3184 H   0  0  0  0  0  0  0  0  0  0  0  0
  1  6  1  0  0  0  0
  1  2  2  0  0  0  0
  1 19  1  0  0  0  0
  2  3  1  0  0  0  0
  3  4  2  0  0  0  0
  3 18  1  0  0  0  0
  4  9  1  0  0  0  0
  4  5  1  0  0  0  0
  5  6  2  0  0  0  0
  5  7  1  0  0  0  0
  7  8  1  0  0  0  0
  7 10  1  0  0  0  0
  8  9  2  0  0  0  0
  8 20  1  0  0  0  0
 10 11  1  0  0  0  0
 10 21  1  0  0  0  0
 10 22  1  0  0  0  0
 11 12  1  0  0  0  0
 11 23  1  0  0  0  0
 11 24  1  0  0  0  0
 12 13  1  0  0  0  0
 13 14  1  0  0  0  0
 13 25  1  0  0  0  0
 13 26  1  0  0  0  0
 14 15  1  0  0  0  0
 14 17  1  0  0  0  0
 14 27  1  0  0  0  0
 15 16  1  0  0  0  0
 15 28  1  0  0  0  0
 15 29  1  0  0  0  0
 16 30  1  0  0  0  0
 17 31  1  0  0  0  0
 18 32  1  0  0  0  0
 18 33  1  0  0  0  0
M  END
> <Name>
ZINC05594650

> <reference>
BDB5015

> <quality>
0.709

> <status>
decoy

> <atoms in reference ligand area>
14

> <score>
-30.0367

$$$$
ZINC24628488
      BALL 1.4.0 (Jan  4 2012, 23:22:29)

 36 37  0999  0  0  0  0  0  0999 V2000
  -33.9871   12.9925  -16.3013 C   0  0  0  0  0  0  0  0  0  0  0  0
  -33.1839   11.8859  -16.0890 C   0  0  0  0  0  0  0  0  0  0  0  0
  -32.6382   11.2372  -17.2026 C   0  0  0  0  0  0  0  0  0  0  0  0
  -32.9189   11.7396  -18.4824 C   0  0  0  0  0  0  0  0  0  0  0  0
  -33.6891   12.8042  -18.6291 N   0  0  0  0  0  0  0  0  0  0  0  0
  -34.2177   13.4277  -17.5937 C   0  0  0  0  0  0  0  0  0  0  0  0
  -32.3974   11.1307  -19.5738 O   0  0  0  0  0  0  0  0  0  0  0  0
  -32.7215   11.6925  -20.8471 C   0  0  0  0  0  0  0  0  0  0  0  0
  -32.0159   13.0410  -21.0041 C   0  0  0  0  0  0  0  0  0  0  0  0
  -32.7831   13.8760  -21.8234 F   0  0  0  0  0  0  0  0  0  0  0  0
  -31.8610   13.6353  -19.7471 F   0  0  0  0  0  0  0  0  0  0  0  0
  -30.7585   12.8446  -21.5852 F   0  0  0  0  0  0  0  0  0  0  0  0
  -31.7794   10.0497  -17.0338 C   0  0  0  0  0  0  0  0  0  0  0  0
  -30.8995    9.8162  -17.8398 O   0  0  0  0  0  0  0  0  0  0  0  0
  -31.9702    9.2235  -15.9862 N   0  0  0  0  0  0  0  0  0  0  0  0
  -30.8880    8.5176  -15.4446 N   0  0  0  0  0  0  0  0  0  0  0  0
  -30.8066    7.1819  -15.6049 C   0  0  0  0  0  0  0  0  0  0  0  0
  -31.8218    6.5175  -15.7001 O   0  0  0  0  0  0  0  0  0  0  0  0
  -29.4947    6.5289  -15.6647 C   0  0  0  0  0  0  0  0  0  0  0  0
  -29.1892    5.3752  -16.3550 C   0  0  0  0  0  0  0  0  0  0  0  0
  -27.8324    5.1146  -16.1396 C   0  0  0  0  0  0  0  0  0  0  0  0
  -27.3454    6.0873  -15.3327 C   0  0  0  0  0  0  0  0  0  0  0  0
  -28.3454    6.9530  -15.0369 N   0  0  0  0  0  0  0  0  0  0  0  0
  -27.0657    3.9748  -16.6911 N   0  0  0  0  0  0  0  0  0  0  0  0
  -26.8128    3.9299  -17.8816 O   0  0  0  0  0  0  0  0  0  0  0  0
  -26.6877    3.0817  -15.9541 O   0  0  0  0  0  0  0  0  0  0  0  0
  -34.4386   13.5217  -15.4492 H   0  0  0  0  0  0  0  0  0  0  0  0
  -32.9793   11.5251  -15.0701 H   0  0  0  0  0  0  0  0  0  0  0  0
  -34.8532   14.3098  -17.7613 H   0  0  0  0  0  0  0  0  0  0  0  0
  -33.8095   11.8382  -20.9186 H   0  0  0  0  0  0  0  0  0  0  0  0
  -32.3897   11.0107  -21.6440 H   0  0  0  0  0  0  0  0  0  0  0  0
  -32.9116    9.1111  -15.5837 H   0  0  0  0  0  0  0  0  0  0  0  0
  -30.1545    9.0194  -14.9240 H   0  0  0  0  0  0  0  0  0  0  0  0
  -29.8823    4.7732  -16.9610 H   0  0  0  0  0  0  0  0  0  0  0  0
  -26.3077    6.1624  -14.9757 H   0  0  0  0  0  0  0  0  0  0  0  0
  -28.2597    7.7891  -14.4415 H   0  0  0  0  0  0  0  0  0  0  0  0
  1  6  2  0  0  0  0
  1  2  1  0  0  0  0
  1 27  1  0  0  0  0
  2  3  2  0  0  0  0
  2 28  1  0  0  0  0
  3  4  1  0  0  0  0
  3 13  1  0  0  0  0
  4  5  2  0  0  0  0
  4  7  1  0  0  0  0
  5  6  1  0  0  0  0
  6 29  1  0  0  0  0
  7  8  1  0  0  0  0
  8  9  1  0  0  0  0
  8 30  1  0  0  0  0
  8 31  1  0  0  0  0
  9 10  1  0  0  0  0
  9 11  1  0  0  0  0
  9 12  1  0  0  0  0
 13 14  2  0  0  0  0
 13 15  1  0  0  0  0
 15 16  1  0  0  0  0
 15 32  1  0  0  0  0
 16 17  1  0  0  0  0
 16 33  1  0  0  0  0
 17 18  2  0  0  0  0
 17 19  1  0  0  0  0
 19 23  1  0  0  0  0
 19 20  2  0  0  0  0
 20 21  1  0  0  0  0
 20 34  1  0  0  0  0
 21 22  2  0  0  0  0
 21 24  1  0  0  0  0
 22 23  1  0  0  0  0
 22 35  1  0  0  0  0
 23 36  1  0  0  0  0
 24 25  2  0  0  0  0
 24 26  2  0  0  0  0
M  END
> <Name>
ZINC24628488

> <reference>
BDB4952

> <quality>
0.715

> <status>
decoy

> <atoms in reference ligand area>
11

> <score>
-29.934

$$$$
ZINC13354670
      BALL 1.4.0 (Jan  4 2012, 23:22:29)

 43 44  0999  0  0  0  0  0  0999 V2000
  -27.9699   13.0113  -21.9472 C   0  0  0  0  0  0  0  0  0  0  0  0
  -26.9654   13.8163  -21.4272 C   0  0  0  0  0  0  0  0  0  0  0  0
  -26.8637   14.0240  -20.0693 C   0  0  0  0  0  0  0  0  0  0  0  0
  -27.7755   13.4220  -19.2080 C   0  0  0  0  0  0  0  0  0  0  0  0
  -28.7914   12.6073  -19.7400 C   0  0  0  0  0  0  0  0  0  0  0  0
  -28.8757   12.4102  -21.1197 C   0  0  0  0  0  0  0  0  0  0  0  0
  -29.5709   12.1323  -18.5942 C   0  0  0  0  0  0  0  0  0  0  0  0
  -29.0147   12.6633  -17.4939 C   0  0  0  0  0  0  0  0  0  0  0  0
  -27.9374   13.4326  -17.8407 N   0  0  0  0  0  0  0  0  0  0  0  0
  -30.7732   11.2249  -18.6421 C   0  0  0  0  0  0  0  0  0  0  0  0
  -31.6255   11.4556  -17.4209 C   0  0  0  0  0  0  0  0  0  0  0  0
  -31.3935   12.3936  -16.6878 O   0  0  0  0  0  0  0  0  0  0  0  0
  -32.6456   10.6197  -17.1435 N   0  0  0  0  0  0  0  0  0  0  0  0
  -33.4744   10.8440  -15.9564 C   0  0  0  0  0  0  0  0  0  0  0  0
  -34.2006    9.5484  -15.5891 C   0  0  0  0  0  0  0  0  0  0  0  0
  -35.2487    9.8387  -14.5129 C   0  0  0  0  0  0  0  0  0  0  0  0
  -36.1396    8.6092  -14.3238 C   0  0  0  0  0  0  0  0  0  0  0  0
  -37.4504    9.0273  -13.6545 C   0  0  0  0  0  0  0  0  0  0  0  0
  -38.4629    7.9204  -13.7976 C   0  0  0  0  0  0  0  0  0  0  0  0
  -38.3209    7.0787  -14.6529 O   0  0  0  0  0  0  0  0  0  0  0  0
  -39.5194    7.8662  -12.9715 O   0  5  0  0  0  0  0  0  0  0  0  0
  -37.9833   10.2481  -14.2845 N   0  3  0  0  0  0  0  0  0  0  0  0
  -28.0370   12.8561  -23.0341 H   0  0  0  0  0  0  0  0  0  0  0  0
  -26.2434   14.2931  -22.1065 H   0  0  0  0  0  0  0  0  0  0  0  0
  -26.0643   14.6637  -19.6671 H   0  0  0  0  0  0  0  0  0  0  0  0
  -29.6685   11.7732  -21.5388 H   0  0  0  0  0  0  0  0  0  0  0  0
  -29.3720   12.5038  -16.4659 H   0  0  0  0  0  0  0  0  0  0  0  0
  -27.3371   13.9433  -17.1777 H   0  0  0  0  0  0  0  0  0  0  0  0
  -30.4419   10.1762  -18.6643 H   0  0  0  0  0  0  0  0  0  0  0  0
  -31.3614   11.4429  -19.5457 H   0  0  0  0  0  0  0  0  0  0  0  0
  -32.8426    9.8231  -17.7660 H   0  0  0  0  0  0  0  0  0  0  0  0
  -32.8358   11.1564  -15.1169 H   0  0  0  0  0  0  0  0  0  0  0  0
  -34.2137   11.6308  -16.1673 H   0  0  0  0  0  0  0  0  0  0  0  0
  -34.6963    9.1399  -16.4822 H   0  0  0  0  0  0  0  0  0  0  0  0
  -33.4751    8.8161  -15.2052 H   0  0  0  0  0  0  0  0  0  0  0  0
  -34.7445   10.0749  -13.5642 H   0  0  0  0  0  0  0  0  0  0  0  0
  -35.8668   10.6943  -14.8227 H   0  0  0  0  0  0  0  0  0  0  0  0
  -36.3562    8.1589  -15.3038 H   0  0  0  0  0  0  0  0  0  0  0  0
  -35.6227    7.8745  -13.6889 H   0  0  0  0  0  0  0  0  0  0  0  0
  -37.2543    9.2261  -12.5905 H   0  0  0  0  0  0  0  0  0  0  0  0
  -39.0056   10.1614  -14.3754 H   0  0  0  0  0  0  0  0  0  0  0  0
  -37.5674   10.3531  -15.2209 H   0  0  0  0  0  0  0  0  0  0  0  0
  -37.7540   11.0702  -13.7079 H   0  0  0  0  0  0  0  0  0  0  0  0
  1  6  1  0  0  0  0
  1  2  2  0  0  0  0
  1 23  1  0  0  0  0
  2  3  1  0  0  0  0
  2 24  1  0  0  0  0
  3  4  2  0  0  0  0
  3 25  1  0  0  0  0
  4  9  1  0  0  0  0
  4  5  1  0  0  0  0
  5  6  2  0  0  0  0
  5  7  1  0  0  0  0
  6 26  1  0  0  0  0
  7  8  2  0  0  0  0
  7 10  1  0  0  0  0
  8  9  1  0  0  0  0
  8 27  1  0  0  0  0
  9 28  1  0  0  0  0
 10 11  1  0  0  0  0
 10 29  1  0  0  0  0
 10 30  1  0  0  0  0
 11 12  2  0  0  0  0
 11 13  1  0  0  0  0
 13 14  1  0  0  0  0
 13 31  1  0  0  0  0
 14 15  1  0  0  0  0
 14 32  1  0  0  0  0
 14 33  1  0  0  0  0
 15 16  1  0  0  0  0
 15 34  1  0  0  0  0
 15 35  1  0  0  0  0
 16 17  1  0  0  0  0
 16 36  1  0  0  0  0
 16 37  1  0  0  0  0
 17 18  1  0  0  0  0
 17 38  1  0  0  0  0
 17 39  1  0  0  0  0
 18 19  1  0  0  0  0
 18 22  1  0  0  0  0
 18 40  1  0  0  0  0
 19 20  2  0  0  0  0
 19 21  1  0  0  0  0
 22 41  1  0  0  0  0
 22 42  1  0  0  0  0
 22 43  1  0  0  0  0
M  END
> <Name>
ZINC13354670

> <reference>
BDB5021

> <quality>
0.671

> <status>
decoy

> <atoms in reference ligand area>
15

> <score>
-29.9218

$$$$
ZINC02441083
      BALL 1.4.0 (Jan  4 2012, 23:22:29)

 61 64  0999  0  0  0  0  0  0999 V2000
  -36.4962    6.9851  -29.4068 C   0  0  0  0  0  0  0  0  0  0  0  0
  -36.0802    7.9637  -28.3068 C   0  0  0  0  0  0  0  0  0  0  0  0
  -36.1224    7.2662  -26.9716 C   0  0  0  0  0  0  0  0  0  0  0  0
  -36.4992    5.9379  -26.8985 C   0  0  0  0  0  0  0  0  0  0  0  0
  -36.5387    5.2962  -25.6758 C   0  0  0  0  0  0  0  0  0  0  0  0
  -36.1999    5.9857  -24.5207 C   0  0  0  0  0  0  0  0  0  0  0  0
  -35.8276    7.3200  -24.5960 C   0  0  0  0  0  0  0  0  0  0  0  0
  -35.7847    7.9558  -25.8217 C   0  0  0  0  0  0  0  0  0  0  0  0
  -36.2380    5.3567  -23.3166 O   0  0  0  0  0  0  0  0  0  0  0  0
  -36.3146    6.1845  -22.1543 C   0  0  0  0  0  0  0  0  0  0  0  0
  -35.1158    5.9310  -21.2771 C   0  0  0  0  0  0  0  0  0  0  0  0
  -35.0897    4.8763  -20.4838 C   0  0  0  0  0  0  0  0  0  0  0  0
  -34.0382    6.8072  -21.3032 N   0  3  0  0  0  0  0  0  0  0  0  0
  -34.0047    7.9027  -20.4304 N   0  0  0  0  0  0  0  0  0  0  0  0
  -33.3565    9.0628  -20.8035 C   0  0  0  0  0  0  0  0  0  0  0  0
  -32.9030    9.3195  -22.0052 N   0  0  0  0  0  0  0  0  0  0  0  0
  -32.3235   10.5463  -22.0154 C   0  0  0  0  0  0  0  0  0  0  0  0
  -31.6859   11.3262  -22.9939 C   0  0  0  0  0  0  0  0  0  0  0  0
  -31.2195   12.5214  -22.6470 N   0  0  0  0  0  0  0  0  0  0  0  0
  -31.3484   12.9734  -21.4129 C   0  0  0  0  0  0  0  0  0  0  0  0
  -31.9388   12.2773  -20.4640 N   0  0  0  0  0  0  0  0  0  0  0  0
  -32.4357   11.0716  -20.7180 C   0  0  0  0  0  0  0  0  0  0  0  0
  -33.0905   10.1171  -19.9740 N   0  0  0  0  0  0  0  0  0  0  0  0
  -33.4383   10.2125  -18.5540 C   0  0  0  0  0  0  0  0  0  0  0  0
  -32.4159   11.1006  -17.8002 C   0  0  0  0  0  0  0  0  0  0  0  0
  -32.5424   10.5795  -16.3479 C   0  0  0  0  0  0  0  0  0  0  0  0
  -33.1576    9.1751  -16.5029 C   0  0  0  0  0  0  0  0  0  0  0  0
  -33.3063    8.9266  -17.9108 O   0  0  0  0  0  0  0  0  0  0  0  0
  -32.2276    8.1287  -15.8853 C   0  0  0  0  0  0  0  0  0  0  0  0
  -30.8897    8.6305  -15.8698 O   0  0  0  0  0  0  0  0  0  0  0  0
  -33.4073   11.4229  -15.5846 O   0  0  0  0  0  0  0  0  0  0  0  0
  -32.7813   12.4797  -17.8808 O   0  0  0  0  0  0  0  0  0  0  0  0
  -31.5462   10.8603  -24.2914 N   0  0  0  0  0  0  0  0  0  0  0  0
  -37.2698    7.4478  -30.0373 H   0  0  0  0  0  0  0  0  0  0  0  0
  -36.8962    6.0676  -28.9507 H   0  0  0  0  0  0  0  0  0  0  0  0
  -35.6220    6.7346  -30.0256 H   0  0  0  0  0  0  0  0  0  0  0  0
  -35.0581    8.3210  -28.5010 H   0  0  0  0  0  0  0  0  0  0  0  0
  -36.7716    8.8191  -28.2948 H   0  0  0  0  0  0  0  0  0  0  0  0
  -36.7677    5.3917  -27.8148 H   0  0  0  0  0  0  0  0  0  0  0  0
  -36.8387    4.2395  -25.6182 H   0  0  0  0  0  0  0  0  0  0  0  0
  -35.5669    7.8713  -23.6806 H   0  0  0  0  0  0  0  0  0  0  0  0
  -35.4815    9.0114  -25.8830 H   0  0  0  0  0  0  0  0  0  0  0  0
  -37.2329    5.9502  -21.5957 H   0  0  0  0  0  0  0  0  0  0  0  0
  -36.3294    7.2418  -22.4573 H   0  0  0  0  0  0  0  0  0  0  0  0
  -35.9430    4.1825  -20.4631 H   0  0  0  0  0  0  0  0  0  0  0  0
  -34.2146    4.6913  -19.8435 H   0  0  0  0  0  0  0  0  0  0  0  0
  -33.1826    6.2557  -21.1462 H   0  0  0  0  0  0  0  0  0  0  0  0
  -33.9516    7.1696  -22.2635 H   0  0  0  0  0  0  0  0  0  0  0  0
  -34.4638    7.8423  -19.5104 H   0  0  0  0  0  0  0  0  0  0  0  0
  -30.9476   13.9682  -21.1686 H   0  0  0  0  0  0  0  0  0  0  0  0
  -34.4634   10.6095  -18.5153 H   0  0  0  0  0  0  0  0  0  0  0  0
  -31.3947   11.0437  -18.2051 H   0  0  0  0  0  0  0  0  0  0  0  0
  -31.5774   10.5633  -15.8202 H   0  0  0  0  0  0  0  0  0  0  0  0
  -34.1297    9.1163  -15.9914 H   0  0  0  0  0  0  0  0  0  0  0  0
  -32.2652    7.2053  -16.4820 H   0  0  0  0  0  0  0  0  0  0  0  0
  -32.5498    7.9135  -14.8559 H   0  0  0  0  0  0  0  0  0  0  0  0
  -30.6184    8.8206  -14.9369 H   0  0  0  0  0  0  0  0  0  0  0  0
  -34.3475   11.1967  -15.7963 H   0  0  0  0  0  0  0  0  0  0  0  0
  -32.9316   12.8252  -16.9653 H   0  0  0  0  0  0  0  0  0  0  0  0
  -31.9671   11.3903  -25.0678 H   0  0  0  0  0  0  0  0  0  0  0  0
  -31.0263    9.9913  -24.4797 H   0  0  0  0  0  0  0  0  0  0  0  0
  1  2  1  0  0  0  0
  1 34  1  0  0  0  0
  1 35  1  0  0  0  0
  1 36  1  0  0  0  0
  2  3  1  0  0  0  0
  2 37  1  0  0  0  0
  2 38  1  0  0  0  0
  3  8  2  0  0  0  0
  3  4  1  0  0  0  0
  4  5  2  0  0  0  0
  4 39  1  0  0  0  0
  5  6  1  0  0  0  0
  5 40  1  0  0  0  0
  6  7  2  0  0  0  0
  6  9  1  0  0  0  0
  7  8  1  0  0  0  0
  7 41  1  0  0  0  0
  8 42  1  0  0  0  0
  9 10  1  0  0  0  0
 10 11  1  0  0  0  0
 10 43  1  0  0  0  0
 10 44  1  0  0  0  0
 11 12  2  0  0  0  0
 11 13  1  0  0  0  0
 12 45  1  0  0  0  0
 12 46  1  0  0  0  0
 13 14  1  0  0  0  0
 13 47  1  0  0  0  0
 13 48  1  0  0  0  0
 14 15  1  0  0  0  0
 14 49  1  0  0  0  0
 15 23  1  0  0  0  0
 15 16  2  0  0  0  0
 16 17  1  0  0  0  0
 17 22  1  0  0  0  0
 17 18  2  0  0  0  0
 18 19  1  0  0  0  0
 18 33  1  0  0  0  0
 19 20  2  0  0  0  0
 20 21  1  0  0  0  0
 20 50  1  0  0  0  0
 21 22  2  0  0  0  0
 22 23  1  0  0  0  0
 23 24  1  0  0  0  0
 24 28  1  0  0  0  0
 24 25  1  0  0  0  0
 24 51  1  0  0  0  0
 25 26  1  0  0  0  0
 25 32  1  0  0  0  0
 25 52  1  0  0  0  0
 26 27  1  0  0  0  0
 26 31  1  0  0  0  0
 26 53  1  0  0  0  0
 27 28  1  0  0  0  0
 27 29  1  0  0  0  0
 27 54  1  0  0  0  0
 29 30  1  0  0  0  0
 29 55  1  0  0  0  0
 29 56  1  0  0  0  0
 30 57  1  0  0  0  0
 31 58  1  0  0  0  0
 32 59  1  0  0  0  0
 33 60  1  0  0  0  0
 33 61  1  0  0  0  0
M  END
> <Name>
ZINC02441083

> <reference>
BDB4972

> <quality>
0.685

> <status>
decoy

> <atoms in reference ligand area>
13

> <score>
-29.8088

$$$$
ZINC05667259
      BALL 1.4.0 (Jan  4 2012, 23:22:29)

 39 40  0999  0  0  0  0  0  0999 V2000
  -32.4442   13.7504  -21.9799 C   0  0  0  0  0  0  0  0  0  0  0  0
  -32.3870   12.7638  -21.1052 C   0  0  0  0  0  0  0  0  0  0  0  0
  -33.4435   12.6409  -20.0375 C   0  5  0  0  0  0  0  0  0  0  0  0
  -33.2546   13.7799  -19.0534 C   0  0  0  0  0  0  0  0  0  0  0  0
  -33.2944   14.9364  -19.4150 O   0  0  0  0  0  0  0  0  0  0  0  0
  -33.0412   13.4579  -17.7600 N   0  0  0  0  0  0  0  0  0  0  0  0
  -32.9949   12.1869  -17.3448 C   0  0  0  0  0  0  0  0  0  0  0  0
  -32.7980   11.9875  -16.1627 O   0  0  0  0  0  0  0  0  0  0  0  0
  -33.1443   11.1193  -18.1372 N   0  0  0  0  0  0  0  0  0  0  0  0
  -33.3726   11.2391  -19.4622 C   0  0  0  0  0  0  0  0  0  0  0  0
  -33.5109   10.2625  -20.1673 O   0  0  0  0  0  0  0  0  0  0  0  0
  -33.0676    9.8375  -17.5733 C   0  0  0  0  0  0  0  0  0  0  0  0
  -33.9402    8.8414  -17.9899 C   0  0  0  0  0  0  0  0  0  0  0  0
  -33.8589    7.5782  -17.4372 C   0  0  0  0  0  0  0  0  0  0  0  0
  -32.9165    7.3085  -16.4605 C   0  0  0  0  0  0  0  0  0  0  0  0
  -32.0491    8.3013  -16.0398 C   0  0  0  0  0  0  0  0  0  0  0  0
  -32.1228    9.5644  -16.5937 C   0  0  0  0  0  0  0  0  0  0  0  0
  -32.8218    5.7221  -15.7621 Cl  0  0  0  0  0  0  0  0  0  0  0  0
  -30.4644   11.8131  -22.3344 C   0  0  0  0  0  0  0  0  0  0  0  0
  -29.9805   10.3811  -22.5717 C   0  0  0  0  0  0  0  0  0  0  0  0
  -29.7431   10.1645  -24.0676 C   0  0  0  0  0  0  0  0  0  0  0  0
  -30.8898   10.6012  -24.7999 O   0  0  0  0  0  0  0  0  0  0  0  0
  -31.3505   11.7838  -21.1196 N   0  3  0  0  0  0  0  0  0  0  0  0
  -33.2631   14.4832  -21.9297 H   0  0  0  0  0  0  0  0  0  0  0  0
  -31.6731   13.8401  -22.7592 H   0  0  0  0  0  0  0  0  0  0  0  0
  -32.9101   14.2133  -17.0721 H   0  0  0  0  0  0  0  0  0  0  0  0
  -34.6956    9.0579  -18.7595 H   0  0  0  0  0  0  0  0  0  0  0  0
  -34.5438    6.7860  -17.7737 H   0  0  0  0  0  0  0  0  0  0  0  0
  -31.3004    8.0844  -15.2637 H   0  0  0  0  0  0  0  0  0  0  0  0
  -31.4332   10.3533  -16.2589 H   0  0  0  0  0  0  0  0  0  0  0  0
  -29.6027   12.4717  -22.1506 H   0  0  0  0  0  0  0  0  0  0  0  0
  -31.0386   12.1623  -23.2052 H   0  0  0  0  0  0  0  0  0  0  0  0
  -29.0408   10.2160  -22.0242 H   0  0  0  0  0  0  0  0  0  0  0  0
  -30.7421    9.6718  -22.2155 H   0  0  0  0  0  0  0  0  0  0  0  0
  -29.5703    9.0956  -24.2615 H   0  0  0  0  0  0  0  0  0  0  0  0
  -28.8630   10.7420  -24.3868 H   0  0  0  0  0  0  0  0  0  0  0  0
  -30.8075   10.3164  -25.7444 H   0  0  0  0  0  0  0  0  0  0  0  0
  -30.7656   11.9132  -20.2817 H   0  0  0  0  0  0  0  0  0  0  0  0
  -31.7798   10.8504  -21.0473 H   0  0  0  0  0  0  0  0  0  0  0  0
  1  2  2  0  0  0  0
  1 24  1  0  0  0  0
  1 25  1  0  0  0  0
  2  3  1  0  0  0  0
  2 23  1  0  0  0  0
  3 10  1  0  0  0  0
  3  4  1  0  0  0  0
  4  5  2  0  0  0  0
  4  6  1  0  0  0  0
  6  7  1  0  0  0  0
  6 26  1  0  0  0  0
  7  8  2  0  0  0  0
  7  9  1  0  0  0  0
  9 10  1  0  0  0  0
  9 12  1  0  0  0  0
 10 11  2  0  0  0  0
 12 17  2  0  0  0  0
 12 13  1  0  0  0  0
 13 14  2  0  0  0  0
 13 27  1  0  0  0  0
 14 15  1  0  0  0  0
 14 28  1  0  0  0  0
 15 16  2  0  0  0  0
 15 18  1  0  0  0  0
 16 17  1  0  0  0  0
 16 29  1  0  0  0  0
 17 30  1  0  0  0  0
 19 20  1  0  0  0  0
 19 23  1  0  0  0  0
 19 31  1  0  0  0  0
 19 32  1  0  0  0  0
 20 21  1  0  0  0  0
 20 33  1  0  0  0  0
 20 34  1  0  0  0  0
 21 22  1  0  0  0  0
 21 35  1  0  0  0  0
 21 36  1  0  0  0  0
 22 37  1  0  0  0  0
 23 38  1  0  0  0  0
 23 39  1  0  0  0  0
M  END
> <Name>
ZINC05667259

> <reference>
BDB5198

> <quality>
0.867

> <status>
decoy

> <atoms in reference ligand area>
21

> <score>
-29.762

$$$$
ZINC05758200
      BALL 1.4.0 (Jan  4 2012, 23:22:29)

 20 20  0999  0  0  0  0  0  0999 V2000
  -28.7081   12.6881  -21.6968 C   0  0  0  0  0  0  0  0  0  0  0  0
  -29.8456   13.2667  -21.1685 C   0  0  0  0  0  0  0  0  0  0  0  0
  -31.0903   12.8062  -21.6028 C   0  0  0  0  0  0  0  0  0  0  0  0
  -31.1383   11.8385  -22.5129 N   0  0  0  0  0  0  0  0  0  0  0  0
  -30.0238   11.3099  -22.9949 C   0  0  0  0  0  0  0  0  0  0  0  0
  -28.8296   11.7238  -22.5972 N   0  0  0  0  0  0  0  0  0  0  0  0
  -30.1085   10.2997  -23.9370 N   0  0  0  0  0  0  0  0  0  0  0  0
  -29.7383   10.5388  -25.2300 N   0  0  0  0  0  0  0  0  0  0  0  0
  -32.2579   13.3531  -21.0961 N   0  0  0  0  0  0  0  0  0  0  0  0
  -32.5123   14.6859  -21.2538 N   0  0  0  0  0  0  0  0  0  0  0  0
  -29.7476   14.3461  -20.1604 N   0  0  0  0  0  0  0  0  0  0  0  0
  -30.7163   15.0439  -19.9192 O   0  0  0  0  0  0  0  0  0  0  0  0
  -28.6996   14.5332  -19.5685 O   0  0  0  0  0  0  0  0  0  0  0  0
  -27.7119   13.0243  -21.3736 H   0  0  0  0  0  0  0  0  0  0  0  0
  -30.4508    9.3676  -23.6633 H   0  0  0  0  0  0  0  0  0  0  0  0
  -29.8328   11.5575  -25.3492 H   0  0  0  0  0  0  0  0  0  0  0  0
  -30.4725   10.0980  -25.8023 H   0  0  0  0  0  0  0  0  0  0  0  0
  -32.9341   12.7549  -20.6006 H   0  0  0  0  0  0  0  0  0  0  0  0
  -33.5043   14.7363  -21.5265 H   0  0  0  0  0  0  0  0  0  0  0  0
  -31.9583   14.9665  -22.0755 H   0  0  0  0  0  0  0  0  0  0  0  0
  1  6  2  0  0  0  0
  1  2  1  0  0  0  0
  1 14  1  0  0  0  0
  2  3  2  0  0  0  0
  2 11  1  0  0  0  0
  3  4  1  0  0  0  0
  3  9  1  0  0  0  0
  4  5  2  0  0  0  0
  5  6  1  0  0  0  0
  5  7  1  0  0  0  0
  7  8  1  0  0  0  0
  7 15  1  0  0  0  0
  8 16  1  0  0  0  0
  8 17  1  0  0  0  0
  9 10  1  0  0  0  0
  9 18  1  0  0  0  0
 10 19  1  0  0  0  0
 10 20  1  0  0  0  0
 11 12  2  0  0  0  0
 11 13  2  0  0  0  0
M  END
> <Name>
ZINC05758200

> <reference>
BDB5008

> <quality>
0.697

> <status>
decoy

> <atoms in reference ligand area>
13

> <score>
-29.6591

$$$$
ZINC04661650
      BALL 1.4.0 (Jan  4 2012, 23:22:29)

 54 56  0999  0  0  0  0  0  0999 V2000
  -31.0585    9.7993  -23.3971 C   0  0  0  0  0  0  0  0  0  0  0  0
  -31.5546    8.9572  -24.3721 C   0  0  0  0  0  0  0  0  0  0  0  0
  -32.5301    8.0221  -24.0513 C   0  0  0  0  0  0  0  0  0  0  0  0
  -33.0058    7.9339  -22.7493 C   0  0  0  0  0  0  0  0  0  0  0  0
  -32.5097    8.7767  -21.7747 C   0  0  0  0  0  0  0  0  0  0  0  0
  -31.5348    9.7117  -22.0958 C   0  0  0  0  0  0  0  0  0  0  0  0
  -31.0310   10.5668  -21.1062 N   0  0  0  0  0  0  0  0  0  0  0  0
  -31.8424   11.4670  -20.5167 C   0  0  0  0  0  0  0  0  0  0  0  0
  -32.9862   11.5951  -20.8999 O   0  0  0  0  0  0  0  0  0  0  0  0
  -31.3288   12.3147  -19.3816 C   0  0  0  0  0  0  0  0  0  0  0  0
  -29.9618   11.7961  -18.9298 C   0  0  0  0  0  0  0  0  0  0  0  0
  -29.3216   12.7762  -17.9910 C   0  0  0  0  0  0  0  0  0  0  0  0
  -29.6906   14.0108  -17.8691 C   0  0  0  0  0  0  0  0  0  0  0  0
  -30.8170   14.6320  -18.6419 C   0  0  0  0  0  0  0  0  0  0  0  0
  -31.1656   13.7650  -19.8538 C   0  0  0  0  0  0  0  0  0  0  0  0
  -32.4555   14.2463  -20.4666 C   0  0  0  0  0  0  0  0  0  0  0  0
  -32.8237   13.8006  -21.5275 O   0  0  0  0  0  0  0  0  0  0  0  0
  -33.0332    7.1689  -25.0391 N   0  0  0  0  0  0  0  0  0  0  0  0
  -31.9915    6.8221  -26.0160 C   0  0  0  0  0  0  0  0  0  0  0  0
  -32.5589    5.8275  -27.0314 C   0  0  0  0  0  0  0  0  0  0  0  0
  -34.7665    6.7704  -26.7216 C   0  0  0  0  0  0  0  0  0  0  0  0
  -34.1991    7.7652  -25.7062 C   0  0  0  0  0  0  0  0  0  0  0  0
  -34.2531    5.5277  -28.7357 C   0  0  0  0  0  0  0  0  0  0  0  0
  -34.4406    6.3035  -30.0411 C   0  0  0  0  0  0  0  0  0  0  0  0
  -34.4187    7.7062  -29.7689 O   0  0  0  0  0  0  0  0  0  0  0  0
  -33.1955   15.1703  -19.8338 O   0  5  0  0  0  0  0  0  0  0  0  0
  -33.7163    6.4476  -27.7102 N   0  3  0  0  0  0  0  0  0  0  0  0
  -30.2858   10.5400  -23.6513 H   0  0  0  0  0  0  0  0  0  0  0  0
  -31.1772    9.0267  -25.4030 H   0  0  0  0  0  0  0  0  0  0  0  0
  -33.7776    7.1925  -22.4947 H   0  0  0  0  0  0  0  0  0  0  0  0
  -32.8870    8.7074  -20.7437 H   0  0  0  0  0  0  0  0  0  0  0  0
  -30.0407   10.5072  -20.8294 H   0  0  0  0  0  0  0  0  0  0  0  0
  -32.0455   12.2668  -18.5485 H   0  0  0  0  0  0  0  0  0  0  0  0
  -30.0884   10.8307  -18.4180 H   0  0  0  0  0  0  0  0  0  0  0  0
  -29.3144   11.6570  -19.8083 H   0  0  0  0  0  0  0  0  0  0  0  0
  -28.4867   12.4235  -17.3677 H   0  0  0  0  0  0  0  0  0  0  0  0
  -29.1445   14.6442  -17.1544 H   0  0  0  0  0  0  0  0  0  0  0  0
  -30.5174   15.6334  -18.9845 H   0  0  0  0  0  0  0  0  0  0  0  0
  -31.6999   14.7218  -17.9919 H   0  0  0  0  0  0  0  0  0  0  0  0
  -30.3669   13.8297  -20.6074 H   0  0  0  0  0  0  0  0  0  0  0  0
  -31.1362    6.3665  -25.4958 H   0  0  0  0  0  0  0  0  0  0  0  0
  -31.6615    7.7317  -26.5392 H   0  0  0  0  0  0  0  0  0  0  0  0
  -31.7867    5.5786  -27.7743 H   0  0  0  0  0  0  0  0  0  0  0  0
  -32.8835    4.9139  -26.5118 H   0  0  0  0  0  0  0  0  0  0  0  0
  -35.6297    7.2188  -27.2352 H   0  0  0  0  0  0  0  0  0  0  0  0
  -35.0783    5.8519  -26.2028 H   0  0  0  0  0  0  0  0  0  0  0  0
  -34.9687    8.0033  -24.9571 H   0  0  0  0  0  0  0  0  0  0  0  0
  -33.8949    8.6856  -26.2260 H   0  0  0  0  0  0  0  0  0  0  0  0
  -35.2222    5.1288  -28.4016 H   0  0  0  0  0  0  0  0  0  0  0  0
  -33.5449    4.7012  -28.8956 H   0  0  0  0  0  0  0  0  0  0  0  0
  -33.6264    6.0528  -30.7370 H   0  0  0  0  0  0  0  0  0  0  0  0
  -35.4061    6.0337  -30.4939 H   0  0  0  0  0  0  0  0  0  0  0  0
  -33.5018    7.9797  -29.5150 H   0  0  0  0  0  0  0  0  0  0  0  0
  -33.4095    7.3172  -28.1690 H   0  0  0  0  0  0  0  0  0  0  0  0
  1  6  2  0  0  0  0
  1  2  1  0  0  0  0
  1 28  1  0  0  0  0
  2  3  2  0  0  0  0
  2 29  1  0  0  0  0
  3  4  1  0  0  0  0
  3 18  1  0  0  0  0
  4  5  2  0  0  0  0
  4 30  1  0  0  0  0
  5  6  1  0  0  0  0
  5 31  1  0  0  0  0
  6  7  1  0  0  0  0
  7  8  1  0  0  0  0
  7 32  1  0  0  0  0
  8  9  2  0  0  0  0
  8 10  1  0  0  0  0
 10 15  1  0  0  0  0
 10 11  1  0  0  0  0
 10 33  1  0  0  0  0
 11 12  1  0  0  0  0
 11 34  1  0  0  0  0
 11 35  1  0  0  0  0
 12 13  2  0  0  0  0
 12 36  1  0  0  0  0
 13 14  1  0  0  0  0
 13 37  1  0  0  0  0
 14 15  1  0  0  0  0
 14 38  1  0  0  0  0
 14 39  1  0  0  0  0
 15 16  1  0  0  0  0
 15 40  1  0  0  0  0
 16 17  2  0  0  0  0
 16 26  1  0  0  0  0
 18 22  1  0  0  0  0
 18 19  1  0  0  0  0
 19 20  1  0  0  0  0
 19 41  1  0  0  0  0
 19 42  1  0  0  0  0
 20 27  1  0  0  0  0
 20 43  1  0  0  0  0
 20 44  1  0  0  0  0
 21 22  1  0  0  0  0
 21 27  1  0  0  0  0
 21 45  1  0  0  0  0
 21 46  1  0  0  0  0
 22 47  1  0  0  0  0
 22 48  1  0  0  0  0
 23 24  1  0  0  0  0
 23 27  1  0  0  0  0
 23 49  1  0  0  0  0
 23 50  1  0  0  0  0
 24 25  1  0  0  0  0
 24 51  1  0  0  0  0
 24 52  1  0  0  0  0
 25 53  1  0  0  0  0
 27 54  1  0  0  0  0
M  END
> <Name>
ZINC04661650

> <reference>
BDB4952

> <quality>
0.697

> <status>
decoy

> <atoms in reference ligand area>
17

> <score>
-29.473

$$$$
ZINC06157444
      BALL 1.4.0 (Jan  4 2012, 23:22:29)

 43 45  0999  0  0  0  0  0  0999 V2000
  -32.8277   14.0732  -21.2631 C   0  0  0  0  0  0  0  0  0  0  0  0
  -33.4748   12.7749  -20.8549 C   0  0  0  0  0  0  0  0  0  0  0  0
  -32.7800   11.5855  -20.9827 C   0  0  0  0  0  0  0  0  0  0  0  0
  -31.4968   11.5707  -21.6182 C   0  0  0  0  0  0  0  0  0  0  0  0
  -30.4789   11.5589  -22.1225 N   0  0  0  0  0  0  0  0  0  0  0  0
  -33.3400   10.3819  -20.4904 C   0  0  0  0  0  0  0  0  0  0  0  0
  -34.2819   10.4191  -19.7250 O   0  0  0  0  0  0  0  0  0  0  0  0
  -32.7671    9.0547  -20.9163 C   0  0  0  0  0  0  0  0  0  0  0  0
  -33.0811    8.8176  -22.3275 N   0  0  0  0  0  0  0  0  0  0  0  0
  -34.3323    8.7416  -22.8222 C   0  0  0  0  0  0  0  0  0  0  0  0
  -35.3710    8.8523  -22.2070 O   0  0  0  0  0  0  0  0  0  0  0  0
  -34.1708    8.4907  -24.3085 C   0  0  0  0  0  0  0  0  0  0  0  0
  -32.7104    8.4429  -24.4947 N   0  5  0  0  0  0  0  0  0  0  0  0
  -32.1611    8.6441  -23.2833 C   0  0  0  0  0  0  0  0  0  0  0  0
  -30.9631    8.6658  -23.0797 O   0  0  0  0  0  0  0  0  0  0  0  0
  -34.8070    7.1545  -24.6968 C   0  0  0  0  0  0  0  0  0  0  0  0
  -34.8663    7.0441  -26.1986 C   0  0  0  0  0  0  0  0  0  0  0  0
  -35.8283    7.5318  -26.9978 C   0  0  0  0  0  0  0  0  0  0  0  0
  -35.5432    7.2386  -28.3035 N   0  0  0  0  0  0  0  0  0  0  0  0
  -34.3606    6.5372  -28.3785 C   0  0  0  0  0  0  0  0  0  0  0  0
  -33.8817    6.3897  -27.0636 C   0  0  0  0  0  0  0  0  0  0  0  0
  -32.6875    5.7057  -26.8303 C   0  0  0  0  0  0  0  0  0  0  0  0
  -31.9833    5.1913  -27.8824 C   0  0  0  0  0  0  0  0  0  0  0  0
  -32.4486    5.3391  -29.1817 C   0  0  0  0  0  0  0  0  0  0  0  0
  -33.6277    6.0060  -29.4343 C   0  0  0  0  0  0  0  0  0  0  0  0
  -34.7318   12.7726  -20.3650 N   0  3  0  0  0  0  0  0  0  0  0  0
  -33.0331   14.7676  -20.4350 H   0  0  0  0  0  0  0  0  0  0  0  0
  -33.4076   14.4213  -22.1306 H   0  0  0  0  0  0  0  0  0  0  0  0
  -31.7534   13.9855  -21.4824 H   0  0  0  0  0  0  0  0  0  0  0  0
  -32.3194   11.7738  -20.0017 H   0  0  0  0  0  0  0  0  0  0  0  0
  -33.2043    8.2520  -20.3043 H   0  0  0  0  0  0  0  0  0  0  0  0
  -31.6756    9.0659  -20.7810 H   0  0  0  0  0  0  0  0  0  0  0  0
  -34.6566    9.2573  -24.9300 H   0  0  0  0  0  0  0  0  0  0  0  0
  -35.8257    7.0989  -24.2854 H   0  0  0  0  0  0  0  0  0  0  0  0
  -34.2026    6.3292  -24.2925 H   0  0  0  0  0  0  0  0  0  0  0  0
  -36.7146    8.0852  -26.6539 H   0  0  0  0  0  0  0  0  0  0  0  0
  -36.1264    7.5031  -29.1103 H   0  0  0  0  0  0  0  0  0  0  0  0
  -32.3144    5.5813  -25.8030 H   0  0  0  0  0  0  0  0  0  0  0  0
  -31.0403    4.6558  -27.6982 H   0  0  0  0  0  0  0  0  0  0  0  0
  -31.8703    4.9197  -30.0181 H   0  0  0  0  0  0  0  0  0  0  0  0
  -33.9880    6.1179  -30.4677 H   0  0  0  0  0  0  0  0  0  0  0  0
  -35.2492   13.6581  -20.2698 H   0  0  0  0  0  0  0  0  0  0  0  0
  -35.1741   11.8852  -20.0860 H   0  0  0  0  0  0  0  0  0  0  0  0
  1  2  1  0  0  0  0
  1 27  1  0  0  0  0
  1 28  1  0  0  0  0
  1 29  1  0  0  0  0
  2  3  1  0  0  0  0
  2 26  2  0  0  0  0
  3  4  1  0  0  0  0
  3  6  1  0  0  0  0
  3 30  1  0  0  0  0
  4  5  3  0  0  0  0
  6  7  2  0  0  0  0
  6  8  1  0  0  0  0
  8  9  1  0  0  0  0
  8 31  1  0  0  0  0
  8 32  1  0  0  0  0
  9 14  1  0  0  0  0
  9 10  1  0  0  0  0
 10 11  2  0  0  0  0
 10 12  1  0  0  0  0
 12 13  1  0  0  0  0
 12 16  1  0  0  0  0
 12 33  1  0  0  0  0
 13 14  1  0  0  0  0
 14 15  2  0  0  0  0
 16 17  1  0  0  0  0
 16 34  1  0  0  0  0
 16 35  1  0  0  0  0
 17 21  1  0  0  0  0
 17 18  2  0  0  0  0
 18 19  1  0  0  0  0
 18 36  1  0  0  0  0
 19 20  1  0  0  0  0
 19 37  1  0  0  0  0
 20 25  2  0  0  0  0
 20 21  1  0  0  0  0
 21 22  2  0  0  0  0
 22 23  1  0  0  0  0
 22 38  1  0  0  0  0
 23 24  2  0  0  0  0
 23 39  1  0  0  0  0
 24 25  1  0  0  0  0
 24 40  1  0  0  0  0
 25 41  1  0  0  0  0
 26 42  1  0  0  0  0
 26 43  1  0  0  0  0
M  END
> <Name>
ZINC06157444

> <reference>
BDB5244

> <quality>
0.665

> <status>
decoy

> <atoms in reference ligand area>
10

> <score>
-29.4119

$$$$
ZINC25495269
      BALL 1.4.0 (Jan  4 2012, 23:22:29)

 41 40  0999  0  0  0  0  0  0999 V2000
  -33.0971   13.2953  -21.7762 C   0  0  0  0  0  0  0  0  0  0  0  0
  -33.9402   12.2697  -21.0157 C   0  0  0  0  0  0  0  0  0  0  0  0
  -33.1662   11.0570  -20.8194 O   0  0  0  0  0  0  0  0  0  0  0  0
  -33.7658   10.0508  -20.1638 C   0  0  0  0  0  0  0  0  0  0  0  0
  -34.8670    9.6831  -20.4983 O   0  0  0  0  0  0  0  0  0  0  0  0
  -33.0654    9.3800  -19.0103 C   0  0  0  0  0  0  0  0  0  0  0  0
  -33.2817   10.1992  -17.7363 C   0  0  0  0  0  0  0  0  0  0  0  0
  -32.3903   11.4140  -17.7629 C   0  0  0  0  0  0  0  0  0  0  0  0
  -32.2934   12.1137  -18.8306 N   0  0  0  0  0  0  0  0  0  0  0  0
  -31.3749   13.1694  -18.8954 N   0  0  0  0  0  0  0  0  0  0  0  0
  -31.6798   14.2866  -19.5847 C   0  0  0  0  0  0  0  0  0  0  0  0
  -30.8576   14.7851  -20.3291 O   0  0  0  0  0  0  0  0  0  0  0  0
  -32.8960   14.8514  -19.4490 N   0  0  0  0  0  0  0  0  0  0  0  0
  -31.6127   11.8052  -16.5327 C   0  0  0  0  0  0  0  0  0  0  0  0
  -32.9455    9.3557  -16.5336 C   0  0  0  0  0  0  0  0  0  0  0  0
  -33.7270    9.3463  -15.5198 N   0  0  0  0  0  0  0  0  0  0  0  0
  -34.8326   10.2060  -15.4796 N   0  0  0  0  0  0  0  0  0  0  0  0
  -35.3464   10.5879  -14.2935 C   0  0  0  0  0  0  0  0  0  0  0  0
  -34.6440   10.5961  -13.3011 O   0  0  0  0  0  0  0  0  0  0  0  0
  -36.6387   10.9608  -14.2077 N   0  0  0  0  0  0  0  0  0  0  0  0
  -31.6893    8.5232  -16.5243 C   0  0  0  0  0  0  0  0  0  0  0  0
  -32.2894   13.6622  -21.1257 H   0  0  0  0  0  0  0  0  0  0  0  0
  -33.7326   14.1394  -22.0822 H   0  0  0  0  0  0  0  0  0  0  0  0
  -32.6615   12.8231  -22.6691 H   0  0  0  0  0  0  0  0  0  0  0  0
  -34.2268   12.6835  -20.0375 H   0  0  0  0  0  0  0  0  0  0  0  0
  -34.8458   12.0362  -21.5947 H   0  0  0  0  0  0  0  0  0  0  0  0
  -33.4759    8.3692  -18.8696 H   0  0  0  0  0  0  0  0  0  0  0  0
  -31.9883    9.3120  -19.2232 H   0  0  0  0  0  0  0  0  0  0  0  0
  -34.3332   10.5172  -17.6789 H   0  0  0  0  0  0  0  0  0  0  0  0
  -30.4664   13.0918  -18.4161 H   0  0  0  0  0  0  0  0  0  0  0  0
  -33.5697   14.8166  -20.2273 H   0  0  0  0  0  0  0  0  0  0  0  0
  -33.1517   15.3177  -18.5669 H   0  0  0  0  0  0  0  0  0  0  0  0
  -31.3183   10.8509  -16.0715 H   0  0  0  0  0  0  0  0  0  0  0  0
  -32.3560   12.2663  -15.8656 H   0  0  0  0  0  0  0  0  0  0  0  0
  -30.7539   12.4635  -16.7299 H   0  0  0  0  0  0  0  0  0  0  0  0
  -35.2526   10.5462  -16.3564 H   0  0  0  0  0  0  0  0  0  0  0  0
  -37.1169   10.9550  -13.2954 H   0  0  0  0  0  0  0  0  0  0  0  0
  -37.1481   11.2516  -15.0543 H   0  0  0  0  0  0  0  0  0  0  0  0
  -31.0054    9.0543  -15.8458 H   0  0  0  0  0  0  0  0  0  0  0  0
  -31.2764    8.6266  -17.5386 H   0  0  0  0  0  0  0  0  0  0  0  0
  -31.8436    7.4734  -16.2344 H   0  0  0  0  0  0  0  0  0  0  0  0
  1  2  1  0  0  0  0
  1 22  1  0  0  0  0
  1 23  1  0  0  0  0
  1 24  1  0  0  0  0
  2  3  1  0  0  0  0
  2 25  1  0  0  0  0
  2 26  1  0  0  0  0
  3  4  1  0  0  0  0
  4  5  2  0  0  0  0
  4  6  1  0  0  0  0
  6  7  1  0  0  0  0
  6 27  1  0  0  0  0
  6 28  1  0  0  0  0
  7  8  1  0  0  0  0
  7 15  1  0  0  0  0
  7 29  1  0  0  0  0
  8  9  2  0  0  0  0
  8 14  1  0  0  0  0
  9 10  1  0  0  0  0
 10 11  1  0  0  0  0
 10 30  1  0  0  0  0
 11 12  2  0  0  0  0
 11 13  1  0  0  0  0
 13 31  1  0  0  0  0
 13 32  1  0  0  0  0
 14 33  1  0  0  0  0
 14 34  1  0  0  0  0
 14 35  1  0  0  0  0
 15 16  2  0  0  0  0
 15 21  1  0  0  0  0
 16 17  1  0  0  0  0
 17 18  1  0  0  0  0
 17 36  1  0  0  0  0
 18 19  2  0  0  0  0
 18 20  1  0  0  0  0
 20 37  1  0  0  0  0
 20 38  1  0  0  0  0
 21 39  1  0  0  0  0
 21 40  1  0  0  0  0
 21 41  1  0  0  0  0
M  END
> <Name>
ZINC25495269

> <reference>
BDB5021

> <quality>
0.696

> <status>
decoy

> <atoms in reference ligand area>
14

> <score>
-29.3845

$$$$
ZINC16562397
      BALL 1.4.0 (Jan  4 2012, 23:22:29)

 53 54  0999  0  0  0  0  0  0999 V2000
  -34.9304    7.1123  -28.6600 C   0  0  0  0  0  0  0  0  0  0  0  0
  -35.3750    7.6938  -27.3164 C   0  0  0  0  0  0  0  0  0  0  0  0
  -34.9100    6.8551  -26.2571 O   0  0  0  0  0  0  0  0  0  0  0  0
  -34.0788    7.4201  -25.3424 C   0  0  0  0  0  0  0  0  0  0  0  0
  -32.7412    7.0545  -25.2998 C   0  0  0  0  0  0  0  0  0  0  0  0
  -31.8981    7.6307  -24.3694 C   0  0  0  0  0  0  0  0  0  0  0  0
  -32.3865    8.5710  -23.4810 C   0  0  0  0  0  0  0  0  0  0  0  0
  -33.7204    8.9330  -23.5177 C   0  0  0  0  0  0  0  0  0  0  0  0
  -34.5663    8.3638  -24.4500 C   0  0  0  0  0  0  0  0  0  0  0  0
  -31.4645    9.1980  -22.4672 C   0  0  0  0  0  0  0  0  0  0  0  0
  -30.3231   11.3233  -22.6741 C   0  0  0  0  0  0  0  0  0  0  0  0
  -32.2841   11.1342  -21.2665 C   0  0  0  0  0  0  0  0  0  0  0  0
  -33.6700   10.4950  -21.1579 C   0  0  0  0  0  0  0  0  0  0  0  0
  -32.4255   12.6334  -21.3229 C   0  0  0  0  0  0  0  0  0  0  0  0
  -33.4186   13.1316  -21.8139 O   0  0  0  0  0  0  0  0  0  0  0  0
  -31.4042   13.4586  -20.8055 C   0  0  0  0  0  0  0  0  0  0  0  0
  -31.5687   14.8522  -20.7249 C   0  0  0  0  0  0  0  0  0  0  0  0
  -30.5537   15.6085  -20.2117 N   0  0  0  0  0  0  0  0  0  0  0  0
  -29.4071   15.0479  -19.7967 C   0  0  0  0  0  0  0  0  0  0  0  0
  -28.5322   15.7651  -19.3523 O   0  0  0  0  0  0  0  0  0  0  0  0
  -29.1909   13.7238  -19.8540 N   0  0  0  0  0  0  0  0  0  0  0  0
  -30.1331   12.8893  -20.3396 C   0  0  0  0  0  0  0  0  0  0  0  0
  -29.9337   11.6897  -20.3910 O   0  0  0  0  0  0  0  0  0  0  0  0
  -27.9153   13.1784  -19.3836 C   0  0  0  0  0  0  0  0  0  0  0  0
  -30.7174   17.0614  -20.1188 C   0  0  0  0  0  0  0  0  0  0  0  0
  -32.7223   15.4377  -21.1463 N   0  0  0  0  0  0  0  0  0  0  0  0
  -31.6364   10.6654  -22.5096 N   0  0  0  0  0  0  0  0  0  0  0  0
  -33.8322    7.0572  -28.6915 H   0  0  0  0  0  0  0  0  0  0  0  0
  -35.2882    7.7572  -29.4762 H   0  0  0  0  0  0  0  0  0  0  0  0
  -35.3508    6.1029  -28.7805 H   0  0  0  0  0  0  0  0  0  0  0  0
  -34.9539    8.7030  -27.1962 H   0  0  0  0  0  0  0  0  0  0  0  0
  -36.4732    7.7486  -27.2847 H   0  0  0  0  0  0  0  0  0  0  0  0
  -32.3523    6.3065  -26.0063 H   0  0  0  0  0  0  0  0  0  0  0  0
  -30.8375    7.3412  -24.3353 H   0  0  0  0  0  0  0  0  0  0  0  0
  -34.1084    9.6746  -22.8040 H   0  0  0  0  0  0  0  0  0  0  0  0
  -35.6255    8.6588  -24.4847 H   0  0  0  0  0  0  0  0  0  0  0  0
  -31.7151    8.8271  -21.4624 H   0  0  0  0  0  0  0  0  0  0  0  0
  -30.4220    8.9429  -22.7084 H   0  0  0  0  0  0  0  0  0  0  0  0
  -30.4388   12.4075  -22.5286 H   0  0  0  0  0  0  0  0  0  0  0  0
  -29.9444   11.1305  -23.6886 H   0  0  0  0  0  0  0  0  0  0  0  0
  -29.6132   10.9257  -21.9338 H   0  0  0  0  0  0  0  0  0  0  0  0
  -31.6771   10.8532  -20.3932 H   0  0  0  0  0  0  0  0  0  0  0  0
  -34.0192   10.5489  -20.1161 H   0  0  0  0  0  0  0  0  0  0  0  0
  -33.6148    9.4420  -21.4714 H   0  0  0  0  0  0  0  0  0  0  0  0
  -34.3749   11.0337  -21.8082 H   0  0  0  0  0  0  0  0  0  0  0  0
  -27.2007   14.0120  -19.4513 H   0  0  0  0  0  0  0  0  0  0  0  0
  -27.6225   12.4332  -20.1378 H   0  0  0  0  0  0  0  0  0  0  0  0
  -27.9636   12.7512  -18.3711 H   0  0  0  0  0  0  0  0  0  0  0  0
  -31.7977   17.2399  -20.2234 H   0  0  0  0  0  0  0  0  0  0  0  0
  -30.2294   17.4673  -21.0172 H   0  0  0  0  0  0  0  0  0  0  0  0
  -30.3111   17.4934  -19.1924 H   0  0  0  0  0  0  0  0  0  0  0  0
  -32.7291   16.4420  -21.3752 H   0  0  0  0  0  0  0  0  0  0  0  0
  -33.5842   14.8812  -21.2364 H   0  0  0  0  0  0  0  0  0  0  0  0
  1  2  1  0  0  0  0
  1 28  1  0  0  0  0
  1 29  1  0  0  0  0
  1 30  1  0  0  0  0
  2  3  1  0  0  0  0
  2 31  1  0  0  0  0
  2 32  1  0  0  0  0
  3  4  1  0  0  0  0
  4  9  2  0  0  0  0
  4  5  1  0  0  0  0
  5  6  2  0  0  0  0
  5 33  1  0  0  0  0
  6  7  1  0  0  0  0
  6 34  1  0  0  0  0
  7  8  2  0  0  0  0
  7 10  1  0  0  0  0
  8  9  1  0  0  0  0
  8 35  1  0  0  0  0
  9 36  1  0  0  0  0
 10 27  1  0  0  0  0
 10 37  1  0  0  0  0
 10 38  1  0  0  0  0
 11 27  1  0  0  0  0
 11 39  1  0  0  0  0
 11 40  1  0  0  0  0
 11 41  1  0  0  0  0
 12 13  1  0  0  0  0
 12 14  1  0  0  0  0
 12 27  1  0  0  0  0
 12 42  1  0  0  0  0
 13 43  1  0  0  0  0
 13 44  1  0  0  0  0
 13 45  1  0  0  0  0
 14 15  2  0  0  0  0
 14 16  1  0  0  0  0
 16 22  1  0  0  0  0
 16 17  2  0  0  0  0
 17 18  1  0  0  0  0
 17 26  1  0  0  0  0
 18 19  1  0  0  0  0
 18 25  1  0  0  0  0
 19 20  2  0  0  0  0
 19 21  1  0  0  0  0
 21 22  1  0  0  0  0
 21 24  1  0  0  0  0
 22 23  2  0  0  0  0
 24 46  1  0  0  0  0
 24 47  1  0  0  0  0
 24 48  1  0  0  0  0
 25 49  1  0  0  0  0
 25 50  1  0  0  0  0
 25 51  1  0  0  0  0
 26 52  1  0  0  0  0
 26 53  1  0  0  0  0
M  END
> <Name>
ZINC16562397

> <reference>
BDB4952

> <quality>
0.727

> <status>
decoy

> <atoms in reference ligand area>
19

> <score>
-29.3753

$$$$
ZINC16321740
      BALL 1.4.0 (Jan  4 2012, 23:22:29)

 34 35  0999  0  0  0  0  0  0999 V2000
  -27.4452   14.9670  -17.7978 C   0  0  0  0  0  0  0  0  0  0  0  0
  -27.8119   13.6142  -18.3515 C   0  0  0  0  0  0  0  0  0  0  0  0
  -27.6823   12.6263  -17.6680 O   0  0  0  0  0  0  0  0  0  0  0  0
  -28.2827   13.5067  -19.6039 O   0  0  0  0  0  0  0  0  0  0  0  0
  -29.6830   13.1536  -19.7538 C   0  0  0  0  0  0  0  0  0  0  0  0
  -29.8210   11.6313  -19.8195 C   0  0  0  0  0  0  0  0  0  0  0  0
  -29.6499   11.0252  -18.4130 C   0  0  0  0  0  0  0  0  0  0  0  0
  -30.9743   10.2629  -18.1647 C   0  0  0  0  0  0  0  0  0  0  0  0
  -31.5052   10.0563  -19.6062 C   0  0  0  0  0  0  0  0  0  0  0  0
  -31.1366   11.2791  -20.2794 O   0  0  0  0  0  0  0  0  0  0  0  0
  -32.9604    9.8870  -19.6041 N   0  0  0  0  0  0  0  0  0  0  0  0
  -33.8647   10.8590  -19.3839 C   0  0  0  0  0  0  0  0  0  0  0  0
  -35.0542   10.3193  -19.4643 N   0  0  0  0  0  0  0  0  0  0  0  0
  -34.8824    9.0125  -19.7345 C   0  0  0  0  0  0  0  0  0  0  0  0
  -33.5902    8.7835  -19.8184 N   0  0  0  0  0  0  0  0  0  0  0  0
  -35.9567    8.0119  -19.9110 C   0  0  0  0  0  0  0  0  0  0  0  0
  -35.9139    6.9604  -19.3025 O   0  0  0  0  0  0  0  0  0  0  0  0
  -36.9833    8.2655  -20.7465 N   0  0  0  0  0  0  0  0  0  0  0  0
  -30.7285    9.0080  -17.5270 O   0  0  0  0  0  0  0  0  0  0  0  0
  -29.4745   12.0581  -17.4412 O   0  0  0  0  0  0  0  0  0  0  0  0
  -27.1474   14.7863  -16.7544 H   0  0  0  0  0  0  0  0  0  0  0  0
  -28.3827   15.5420  -17.7826 H   0  0  0  0  0  0  0  0  0  0  0  0
  -26.6563   15.4718  -18.3746 H   0  0  0  0  0  0  0  0  0  0  0  0
  -30.2518   13.5360  -18.8934 H   0  0  0  0  0  0  0  0  0  0  0  0
  -30.0770   13.5970  -20.6801 H   0  0  0  0  0  0  0  0  0  0  0  0
  -29.0513   11.2467  -20.5048 H   0  0  0  0  0  0  0  0  0  0  0  0
  -28.7675   10.3728  -18.3375 H   0  0  0  0  0  0  0  0  0  0  0  0
  -31.6758   10.7946  -17.5049 H   0  0  0  0  0  0  0  0  0  0  0  0
  -31.0942    9.1577  -20.0895 H   0  0  0  0  0  0  0  0  0  0  0  0
  -33.6440   11.9160  -19.1742 H   0  0  0  0  0  0  0  0  0  0  0  0
  -37.3954    9.2087  -20.7843 H   0  0  0  0  0  0  0  0  0  0  0  0
  -37.3556    7.5162  -21.3472 H   0  0  0  0  0  0  0  0  0  0  0  0
  -30.0133    9.1261  -16.8528 H   0  0  0  0  0  0  0  0  0  0  0  0
  -29.3735   11.6466  -16.5465 H   0  0  0  0  0  0  0  0  0  0  0  0
  1  2  1  0  0  0  0
  1 21  1  0  0  0  0
  1 22  1  0  0  0  0
  1 23  1  0  0  0  0
  2  3  2  0  0  0  0
  2  4  1  0  0  0  0
  4  5  1  0  0  0  0
  5  6  1  0  0  0  0
  5 24  1  0  0  0  0
  5 25  1  0  0  0  0
  6 10  1  0  0  0  0
  6  7  1  0  0  0  0
  6 26  1  0  0  0  0
  7  8  1  0  0  0  0
  7 20  1  0  0  0  0
  7 27  1  0  0  0  0
  8  9  1  0  0  0  0
  8 19  1  0  0  0  0
  8 28  1  0  0  0  0
  9 10  1  0  0  0  0
  9 11  1  0  0  0  0
  9 29  1  0  0  0  0
 11 15  1  0  0  0  0
 11 12  1  0  0  0  0
 12 13  2  0  0  0  0
 12 30  1  0  0  0  0
 13 14  1  0  0  0  0
 14 15  2  0  0  0  0
 14 16  1  0  0  0  0
 16 17  2  0  0  0  0
 16 18  1  0  0  0  0
 18 31  1  0  0  0  0
 18 32  1  0  0  0  0
 19 33  1  0  0  0  0
 20 34  1  0  0  0  0
M  END
> <Name>
ZINC16321740

> <reference>
BDB4937

> <quality>
0.731

> <status>
decoy

> <atoms in reference ligand area>
14

> <score>
-29.3372

$$$$
ZINC17669880
      BALL 1.4.0 (Jan  4 2012, 23:22:29)

 28 29  0999  0  0  0  0  0  0999 V2000
  -35.3757    8.9455  -22.3377 C   0  0  0  0  0  0  0  0  0  0  0  0
  -34.5391    8.4714  -23.3541 C   0  0  0  0  0  0  0  0  0  0  0  0
  -33.2048    8.9320  -23.3882 C   0  0  0  0  0  0  0  0  0  0  0  0
  -32.8005    9.7909  -22.4602 N   0  0  0  0  0  0  0  0  0  0  0  0
  -33.6313   10.2111  -21.5168 C   0  0  0  0  0  0  0  0  0  0  0  0
  -34.8920    9.7993  -21.4541 N   0  0  0  0  0  0  0  0  0  0  0  0
  -33.0446   11.3515  -20.3085 S   0  0  0  0  0  0  0  0  0  0  0  0
  -31.4444   11.7841  -21.0354 C   0  0  0  0  0  0  0  0  0  0  0  0
  -30.7414   12.7780  -20.1473 C   0  0  0  0  0  0  0  0  0  0  0  0
  -29.7988   12.3683  -19.3168 N   0  0  0  0  0  0  0  0  0  0  0  0
  -29.1724   13.2440  -18.5339 C   0  0  0  0  0  0  0  0  0  0  0  0
  -29.5032   14.5298  -18.5811 N   0  0  0  0  0  0  0  0  0  0  0  0
  -30.4549   14.9371  -19.4137 C   0  0  0  0  0  0  0  0  0  0  0  0
  -31.0733   14.0562  -20.1970 N   0  0  0  0  0  0  0  0  0  0  0  0
  -30.8025   16.2716  -19.4661 N   0  0  0  0  0  0  0  0  0  0  0  0
  -28.1845   12.8160  -17.6707 N   0  0  0  0  0  0  0  0  0  0  0  0
  -32.3366    8.4974  -24.3689 N   0  0  0  0  0  0  0  0  0  0  0  0
  -35.0229    7.5451  -24.3330 C   0  0  0  0  0  0  0  0  0  0  0  0
  -35.4067    6.8101  -25.1096 N   0  0  0  0  0  0  0  0  0  0  0  0
  -36.4220    8.6114  -22.2756 H   0  0  0  0  0  0  0  0  0  0  0  0
  -31.6001   12.2279  -22.0298 H   0  0  0  0  0  0  0  0  0  0  0  0
  -30.8279   10.8780  -21.1306 H   0  0  0  0  0  0  0  0  0  0  0  0
  -30.2230   16.9335  -20.0017 H   0  0  0  0  0  0  0  0  0  0  0  0
  -31.6410   16.6056  -18.9697 H   0  0  0  0  0  0  0  0  0  0  0  0
  -28.3593   12.0176  -17.0439 H   0  0  0  0  0  0  0  0  0  0  0  0
  -27.2726   13.2947  -17.6532 H   0  0  0  0  0  0  0  0  0  0  0  0
  -32.2660    9.0206  -25.2534 H   0  0  0  0  0  0  0  0  0  0  0  0
  -31.7623    7.6556  -24.2189 H   0  0  0  0  0  0  0  0  0  0  0  0
  1  6  2  0  0  0  0
  1  2  1  0  0  0  0
  1 20  1  0  0  0  0
  2  3  2  0  0  0  0
  2 18  1  0  0  0  0
  3  4  1  0  0  0  0
  3 17  1  0  0  0  0
  4  5  2  0  0  0  0
  5  6  1  0  0  0  0
  5  7  1  0  0  0  0
  7  8  1  0  0  0  0
  8  9  1  0  0  0  0
  8 21  1  0  0  0  0
  8 22  1  0  0  0  0
  9 14  2  0  0  0  0
  9 10  1  0  0  0  0
 10 11  2  0  0  0  0
 11 12  1  0  0  0  0
 11 16  1  0  0  0  0
 12 13  2  0  0  0  0
 13 14  1  0  0  0  0
 13 15  1  0  0  0  0
 15 23  1  0  0  0  0
 15 24  1  0  0  0  0
 16 25  1  0  0  0  0
 16 26  1  0  0  0  0
 17 27  1  0  0  0  0
 17 28  1  0  0  0  0
 18 19  3  0  0  0  0
M  END
> <Name>
ZINC17669880

> <reference>
BDB5008

> <quality>
0.690

> <status>
decoy

> <atoms in reference ligand area>
12

> <score>
-29.0911

$$$$
ZINC06315906
      BALL 1.4.0 (Jan  4 2012, 23:22:29)

 33 35  0999  0  0  0  0  0  0999 V2000
  -27.3693   14.3374  -17.2700 C   0  0  0  0  0  0  0  0  0  0  0  0
  -28.5083   15.0516  -16.9283 C   0  0  0  0  0  0  0  0  0  0  0  0
  -29.7589   14.5422  -17.1952 C   0  0  0  0  0  0  0  0  0  0  0  0
  -29.8830   13.2953  -17.8154 C   0  0  0  0  0  0  0  0  0  0  0  0
  -28.7256   12.5762  -18.1592 C   0  0  0  0  0  0  0  0  0  0  0  0
  -27.4739   13.1056  -17.8825 C   0  0  0  0  0  0  0  0  0  0  0  0
  -29.1604   11.3984  -18.7425 N   0  0  0  0  0  0  0  0  0  0  0  0
  -30.5303   11.4310  -18.7479 C   0  0  0  0  0  0  0  0  0  0  0  0
  -30.9490   12.5483  -18.1981 N   0  0  0  0  0  0  0  0  0  0  0  0
  -31.4011   10.3714  -19.2830 C   0  0  0  0  0  0  0  0  0  0  0  0
  -31.2764    9.7911  -20.5430 C   0  0  0  0  0  0  0  0  0  0  0  0
  -32.2257    8.8413  -20.7515 N   0  0  0  0  0  0  0  0  0  0  0  0
  -33.0672    8.7668  -19.5493 C   0  5  0  0  0  0  0  0  0  0  0  0
  -32.4847    9.7917  -18.5995 C   0  0  0  0  0  0  0  0  0  0  0  0
  -32.8749   10.0606  -17.4800 O   0  0  0  0  0  0  0  0  0  0  0  0
  -32.3790    8.0718  -21.9123 N   0  0  0  0  0  0  0  0  0  0  0  0
  -33.3785    8.3443  -22.7743 C   0  0  0  0  0  0  0  0  0  0  0  0
  -33.1246    8.6445  -23.9224 O   0  0  0  0  0  0  0  0  0  0  0  0
  -34.7995    8.2767  -22.3164 C   0  0  0  0  0  0  0  0  0  0  0  0
  -35.1167    7.5061  -21.4342 O   0  0  0  0  0  0  0  0  0  0  0  0
  -35.7287    9.0715  -22.8832 N   0  0  0  0  0  0  0  0  0  0  0  0
  -30.3212   10.1330  -21.4534 N   0  0  0  0  0  0  0  0  0  0  0  0
  -26.3759   14.7559  -17.0510 H   0  0  0  0  0  0  0  0  0  0  0  0
  -28.4114   16.0327  -16.4403 H   0  0  0  0  0  0  0  0  0  0  0  0
  -30.6577   15.1143  -16.9215 H   0  0  0  0  0  0  0  0  0  0  0  0
  -26.5665   12.5446  -18.1507 H   0  0  0  0  0  0  0  0  0  0  0  0
  -28.5655   10.6396  -19.1047 H   0  0  0  0  0  0  0  0  0  0  0  0
  -33.0037    7.7630  -19.1039 H   0  0  0  0  0  0  0  0  0  0  0  0
  -31.7278    7.2978  -22.1068 H   0  0  0  0  0  0  0  0  0  0  0  0
  -35.4598    9.9934  -23.2558 H   0  0  0  0  0  0  0  0  0  0  0  0
  -36.7077    8.7571  -22.9437 H   0  0  0  0  0  0  0  0  0  0  0  0
  -29.3831    9.7295  -21.3190 H   0  0  0  0  0  0  0  0  0  0  0  0
  -30.5171   10.7646  -22.2431 H   0  0  0  0  0  0  0  0  0  0  0  0
  1  6  1  0  0  0  0
  1  2  2  0  0  0  0
  1 23  1  0  0  0  0
  2  3  1  0  0  0  0
  2 24  1  0  0  0  0
  3  4  2  0  0  0  0
  3 25  1  0  0  0  0
  4  9  1  0  0  0  0
  4  5  1  0  0  0  0
  5  6  2  0  0  0  0
  5  7  1  0  0  0  0
  6 26  1  0  0  0  0
  7  8  1  0  0  0  0
  7 27  1  0  0  0  0
  8  9  2  0  0  0  0
  8 10  1  0  0  0  0
 10 14  1  0  0  0  0
 10 11  2  0  0  0  0
 11 12  1  0  0  0  0
 11 22  1  0  0  0  0
 12 13  1  0  0  0  0
 12 16  1  0  0  0  0
 13 14  1  0  0  0  0
 13 28  1  0  0  0  0
 14 15  2  0  0  0  0
 16 17  1  0  0  0  0
 16 29  1  0  0  0  0
 17 18  2  0  0  0  0
 17 19  1  0  0  0  0
 19 20  2  0  0  0  0
 19 21  1  0  0  0  0
 21 30  1  0  0  0  0
 21 31  1  0  0  0  0
 22 32  1  0  0  0  0
 22 33  1  0  0  0  0
M  END
> <Name>
ZINC06315906

> <reference>
BDB5257

> <quality>
0.817

> <status>
decoy

> <atoms in reference ligand area>
11

> <score>
-29.0654

$$$$
ZINC24869044
      BALL 1.4.0 (Jan  4 2012, 23:22:29)

 49 50  0999  0  0  0  0  0  0999 V2000
  -26.6103    5.8894  -15.2613 C   0  0  0  0  0  0  0  0  0  0  0  0
  -27.1872    4.6384  -15.1452 C   0  0  0  0  0  0  0  0  0  0  0  0
  -28.5388    4.4723  -15.3837 C   0  0  0  0  0  0  0  0  0  0  0  0
  -29.3163    5.5591  -15.7503 C   0  0  0  0  0  0  0  0  0  0  0  0
  -28.7357    6.8184  -15.8668 C   0  0  0  0  0  0  0  0  0  0  0  0
  -27.3815    6.9789  -15.6212 C   0  0  0  0  0  0  0  0  0  0  0  0
  -29.4958    7.8891  -16.2205 O   0  0  0  0  0  0  0  0  0  0  0  0
  -30.6449    5.3965  -15.9905 O   0  0  0  0  0  0  0  0  0  0  0  0
  -31.2933    6.4090  -16.7629 C   0  0  0  0  0  0  0  0  0  0  0  0
  -32.5623    6.8667  -16.0412 C   0  0  0  0  0  0  0  0  0  0  0  0
  -33.3718    7.7472  -16.9580 C   0  0  0  0  0  0  0  0  0  0  0  0
  -33.9287    7.2682  -17.9230 O   0  0  0  0  0  0  0  0  0  0  0  0
  -33.4769    9.0669  -16.7056 N   0  0  0  0  0  0  0  0  0  0  0  0
  -32.8146    9.6672  -15.5375 C   0  0  0  0  0  0  0  0  0  0  0  0
  -31.9966   10.8772  -16.0161 C   0  0  0  0  0  0  0  0  0  0  0  0
  -32.8714   11.7862  -16.7686 N   0  0  0  0  0  0  0  0  0  0  0  0
  -33.3917   11.1422  -17.9820 C   0  0  0  0  0  0  0  0  0  0  0  0
  -34.2618    9.9441  -17.5873 C   0  0  0  0  0  0  0  0  0  0  0  0
  -32.1747   13.0378  -17.0943 C   0  0  0  0  0  0  0  0  0  0  0  0
  -30.8032   12.7173  -17.6921 C   0  0  0  0  0  0  0  0  0  0  0  0
  -29.7418   13.6036  -17.0372 C   0  0  0  0  0  0  0  0  0  0  0  0
  -28.2733   13.6740  -18.1000 S   0  0  0  0  0  0  0  0  0  0  0  0
  -27.3975   12.5969  -17.7964 O   0  0  0  0  0  0  0  0  0  0  0  0
  -28.6532   13.9422  -19.4427 O   0  0  0  0  0  0  0  0  0  0  0  0
  -27.5253   14.9211  -17.6513 O   0  5  0  0  0  0  0  0  0  0  0  0
  -30.8276   12.9639  -19.0994 O   0  0  0  0  0  0  0  0  0  0  0  0
  -25.5353    6.0182  -15.0669 H   0  0  0  0  0  0  0  0  0  0  0  0
  -26.5695    3.7732  -14.8625 H   0  0  0  0  0  0  0  0  0  0  0  0
  -28.9969    3.4774  -15.2824 H   0  0  0  0  0  0  0  0  0  0  0  0
  -26.9200    7.9732  -15.7126 H   0  0  0  0  0  0  0  0  0  0  0  0
  -29.2101    8.6160  -15.6121 H   0  0  0  0  0  0  0  0  0  0  0  0
  -30.6145    7.2654  -16.8887 H   0  0  0  0  0  0  0  0  0  0  0  0
  -31.5598    6.0041  -17.7504 H   0  0  0  0  0  0  0  0  0  0  0  0
  -32.2883    7.4323  -15.1385 H   0  0  0  0  0  0  0  0  0  0  0  0
  -33.1594    5.9879  -15.7562 H   0  0  0  0  0  0  0  0  0  0  0  0
  -32.1440    8.9299  -15.0717 H   0  0  0  0  0  0  0  0  0  0  0  0
  -33.5723    9.9980  -14.8119 H   0  0  0  0  0  0  0  0  0  0  0  0
  -31.5796   11.4059  -15.1463 H   0  0  0  0  0  0  0  0  0  0  0  0
  -31.1781   10.5345  -16.6662 H   0  0  0  0  0  0  0  0  0  0  0  0
  -33.9975   11.8637  -18.5497 H   0  0  0  0  0  0  0  0  0  0  0  0
  -32.5528   10.7965  -18.6038 H   0  0  0  0  0  0  0  0  0  0  0  0
  -34.5579    9.3906  -18.4907 H   0  0  0  0  0  0  0  0  0  0  0  0
  -35.1570   10.2987  -17.0553 H   0  0  0  0  0  0  0  0  0  0  0  0
  -32.7678   13.6087  -17.8240 H   0  0  0  0  0  0  0  0  0  0  0  0
  -32.0447   13.6352  -16.1798 H   0  0  0  0  0  0  0  0  0  0  0  0
  -30.5616   11.6598  -17.5093 H   0  0  0  0  0  0  0  0  0  0  0  0
  -30.1442   14.6183  -16.9013 H   0  0  0  0  0  0  0  0  0  0  0  0
  -29.4654   13.1845  -16.0585 H   0  0  0  0  0  0  0  0  0  0  0  0
  -31.5143   12.3910  -19.5239 H   0  0  0  0  0  0  0  0  0  0  0  0
  1  6  2  0  0  0  0
  1  2  1  0  0  0  0
  1 27  1  0  0  0  0
  2  3  2  0  0  0  0
  2 28  1  0  0  0  0
  3  4  1  0  0  0  0
  3 29  1  0  0  0  0
  4  5  2  0  0  0  0
  4  8  1  0  0  0  0
  5  6  1  0  0  0  0
  5  7  1  0  0  0  0
  6 30  1  0  0  0  0
  7 31  1  0  0  0  0
  8  9  1  0  0  0  0
  9 10  1  0  0  0  0
  9 32  1  0  0  0  0
  9 33  1  0  0  0  0
 10 11  1  0  0  0  0
 10 34  1  0  0  0  0
 10 35  1  0  0  0  0
 11 12  2  0  0  0  0
 11 13  1  0  0  0  0
 13 18  1  0  0  0  0
 13 14  1  0  0  0  0
 14 15  1  0  0  0  0
 14 36  1  0  0  0  0
 14 37  1  0  0  0  0
 15 16  1  0  0  0  0
 15 38  1  0  0  0  0
 15 39  1  0  0  0  0
 16 17  1  0  0  0  0
 16 19  1  0  0  0  0
 17 18  1  0  0  0  0
 17 40  1  0  0  0  0
 17 41  1  0  0  0  0
 18 42  1  0  0  0  0
 18 43  1  0  0  0  0
 19 20  1  0  0  0  0
 19 44  1  0  0  0  0
 19 45  1  0  0  0  0
 20 21  1  0  0  0  0
 20 26  1  0  0  0  0
 20 46  1  0  0  0  0
 21 22  1  0  0  0  0
 21 47  1  0  0  0  0
 21 48  1  0  0  0  0
 22 23  2  0  0  0  0
 22 24  2  0  0  0  0
 22 25  1  0  0  0  0
 26 49  1  0  0  0  0
M  END
> <Name>
ZINC24869044

> <reference>
BDB4945

> <quality>
0.764

> <status>
decoy

> <atoms in reference ligand area>
10

> <score>
-29.0529

$$$$
ZINC04226595
      BALL 1.4.0 (Jan  4 2012, 23:22:29)

 39 40  0999  0  0  0  0  0  0999 V2000
  -33.2303   14.2533  -20.4420 C   0  0  0  0  0  0  0  0  0  0  0  0
  -31.8749   13.6707  -20.7499 C   0  0  0  0  0  0  0  0  0  0  0  0
  -31.7957   12.5102  -21.5047 C   0  0  0  0  0  0  0  0  0  0  0  0
  -30.5537   11.9696  -21.8040 C   0  0  0  0  0  0  0  0  0  0  0  0
  -29.4057   12.6312  -21.3038 C   0  0  0  0  0  0  0  0  0  0  0  0
  -28.1172   12.1384  -21.5505 C   0  0  0  0  0  0  0  0  0  0  0  0
  -27.0267   12.7943  -21.0568 C   0  0  0  0  0  0  0  0  0  0  0  0
  -27.1680   13.9524  -20.3063 C   0  0  0  0  0  0  0  0  0  0  0  0
  -28.4270   14.4747  -20.0393 C   0  0  0  0  0  0  0  0  0  0  0  0
  -29.5757   13.8074  -20.5373 C   0  0  0  0  0  0  0  0  0  0  0  0
  -28.5683   15.7046  -19.2425 C   0  0  0  0  0  0  0  0  0  0  0  0
  -27.8586   15.8851  -18.2726 O   0  0  0  0  0  0  0  0  0  0  0  0
  -30.4406   10.8116  -22.5555 N   0  0  0  0  0  0  0  0  0  0  0  0
  -29.3735   10.6858  -23.5513 C   0  0  0  0  0  0  0  0  0  0  0  0
  -28.8041    9.2662  -23.5120 C   0  0  0  0  0  0  0  0  0  0  0  0
  -28.8722    8.6893  -24.8176 O   0  0  0  0  0  0  0  0  0  0  0  0
  -28.8015    7.2621  -24.8268 C   0  0  0  0  0  0  0  0  0  0  0  0
  -27.4627    6.8216  -25.4224 C   0  0  0  0  0  0  0  0  0  0  0  0
  -26.3985    7.2474  -24.5690 O   0  0  0  0  0  0  0  0  0  0  0  0
  -30.8091   14.3434  -20.2527 N   0  3  0  0  0  0  0  0  0  0  0  0
  -29.4809   16.6329  -19.5920 O   0  5  0  0  0  0  0  0  0  0  0  0
  -33.9572   13.5167  -20.8147 H   0  0  0  0  0  0  0  0  0  0  0  0
  -33.3150   15.1484  -21.0758 H   0  0  0  0  0  0  0  0  0  0  0  0
  -33.3776   14.4818  -19.3762 H   0  0  0  0  0  0  0  0  0  0  0  0
  -32.7128   12.0207  -21.8642 H   0  0  0  0  0  0  0  0  0  0  0  0
  -27.9844   11.2212  -22.1431 H   0  0  0  0  0  0  0  0  0  0  0  0
  -26.0201   12.3983  -21.2571 H   0  0  0  0  0  0  0  0  0  0  0  0
  -26.2737   14.4624  -19.9188 H   0  0  0  0  0  0  0  0  0  0  0  0
  -31.1069   10.0388  -22.4142 H   0  0  0  0  0  0  0  0  0  0  0  0
  -28.5739   11.4070  -23.3267 H   0  0  0  0  0  0  0  0  0  0  0  0
  -29.7804   10.8894  -24.5528 H   0  0  0  0  0  0  0  0  0  0  0  0
  -27.7556    9.3005  -23.1811 H   0  0  0  0  0  0  0  0  0  0  0  0
  -29.3900    8.6542  -22.8105 H   0  0  0  0  0  0  0  0  0  0  0  0
  -29.6236    6.8570  -25.4351 H   0  0  0  0  0  0  0  0  0  0  0  0
  -28.8863    6.8840  -23.7974 H   0  0  0  0  0  0  0  0  0  0  0  0
  -27.4440    5.7255  -25.5119 H   0  0  0  0  0  0  0  0  0  0  0  0
  -27.3366    7.2730  -26.4176 H   0  0  0  0  0  0  0  0  0  0  0  0
  -26.2055    8.2044  -24.7331 H   0  0  0  0  0  0  0  0  0  0  0  0
  -30.9164   15.2033  -19.6960 H   0  0  0  0  0  0  0  0  0  0  0  0
  1  2  1  0  0  0  0
  1 22  1  0  0  0  0
  1 23  1  0  0  0  0
  1 24  1  0  0  0  0
  2  3  2  0  0  0  0
  2 20  1  0  0  0  0
  3  4  1  0  0  0  0
  3 25  1  0  0  0  0
  4  5  2  0  0  0  0
  4 13  1  0  0  0  0
  5 10  1  0  0  0  0
  5  6  1  0  0  0  0
  6  7  2  0  0  0  0
  6 26  1  0  0  0  0
  7  8  1  0  0  0  0
  7 27  1  0  0  0  0
  8  9  2  0  0  0  0
  8 28  1  0  0  0  0
  9 10  1  0  0  0  0
  9 11  1  0  0  0  0
 10 20  2  0  0  0  0
 11 12  2  0  0  0  0
 11 21  1  0  0  0  0
 13 14  1  0  0  0  0
 13 29  1  0  0  0  0
 14 15  1  0  0  0  0
 14 30  1  0  0  0  0
 14 31  1  0  0  0  0
 15 16  1  0  0  0  0
 15 32  1  0  0  0  0
 15 33  1  0  0  0  0
 16 17  1  0  0  0  0
 17 18  1  0  0  0  0
 17 34  1  0  0  0  0
 17 35  1  0  0  0  0
 18 19  1  0  0  0  0
 18 36  1  0  0  0  0
 18 37  1  0  0  0  0
 19 38  1  0  0  0  0
 20 39  1  0  0  0  0
M  END
> <Name>
ZINC04226595

> <reference>
BDB5222

> <quality>
0.855

> <status>
decoy

> <atoms in reference ligand area>
21

> <score>
-28.9544

$$$$
ZINC16953706
      BALL 1.4.0 (Jan  4 2012, 23:22:29)

 40 43  0999  0  0  0  0  0  0999 V2000
  -26.2779   12.5611  -18.7349 C   0  0  0  0  0  0  0  0  0  0  0  0
  -27.1607   12.6908  -19.9779 C   0  0  0  0  0  0  0  0  0  0  0  0
  -27.3748   14.0847  -20.2826 O   0  0  0  0  0  0  0  0  0  0  0  0
  -28.7355   14.2178  -20.7145 C   0  0  0  0  0  0  0  0  0  0  0  0
  -29.4978   15.1274  -19.7336 C   0  0  0  0  0  0  0  0  0  0  0  0
  -30.7784   14.5162  -19.5323 O   0  0  0  0  0  0  0  0  0  0  0  0
  -30.6426   13.0989  -19.6738 C   0  0  0  0  0  0  0  0  0  0  0  0
  -29.3873   12.8275  -20.5177 C   0  0  0  0  0  0  0  0  0  0  0  0
  -28.4380   12.0875  -19.7312 O   0  0  0  0  0  0  0  0  0  0  0  0
  -31.8220   12.5528  -20.3499 N   0  0  0  0  0  0  0  0  0  0  0  0
  -32.8691   13.2686  -20.8494 C   0  0  0  0  0  0  0  0  0  0  0  0
  -33.7424   12.4652  -21.3837 N   0  0  0  0  0  0  0  0  0  0  0  0
  -33.3124   11.1863  -21.2616 C   0  0  0  0  0  0  0  0  0  0  0  0
  -32.0752   11.2271  -20.5966 C   0  0  0  0  0  0  0  0  0  0  0  0
  -31.4362   10.0881  -20.3509 N   0  0  0  0  0  0  0  0  0  0  0  0
  -31.9519    8.9356  -20.7235 C   0  0  0  0  0  0  0  0  0  0  0  0
  -33.1105    8.8471  -21.3504 N   0  0  0  0  0  0  0  0  0  0  0  0
  -33.8215    9.9323  -21.6392 C   0  0  0  0  0  0  0  0  0  0  0  0
  -35.0352    9.8294  -22.2961 N   0  0  0  0  0  0  0  0  0  0  0  0
  -29.6702   16.5230  -20.3365 C   0  0  0  0  0  0  0  0  0  0  0  0
  -31.0943   16.8641  -20.3788 N   0  0  0  0  0  0  0  0  0  0  0  0
  -31.4487   17.8491  -19.9696 N   0  3  0  0  0  0  0  0  0  0  0  0
  -31.8030   18.8342  -19.5604 N   0  5  0  0  0  0  0  0  0  0  0  0
  -26.4852   12.0052  -21.1672 C   0  0  0  0  0  0  0  0  0  0  0  0
  -26.2853   11.5168  -18.3891 H   0  0  0  0  0  0  0  0  0  0  0  0
  -26.6697   13.2117  -17.9392 H   0  0  0  0  0  0  0  0  0  0  0  0
  -25.2481   12.8597  -18.9801 H   0  0  0  0  0  0  0  0  0  0  0  0
  -28.7672   14.6044  -21.7439 H   0  0  0  0  0  0  0  0  0  0  0  0
  -28.9531   15.2394  -18.7846 H   0  0  0  0  0  0  0  0  0  0  0  0
  -30.5527   12.6213  -18.6870 H   0  0  0  0  0  0  0  0  0  0  0  0
  -29.6402   12.2918  -21.4446 H   0  0  0  0  0  0  0  0  0  0  0  0
  -32.9622   14.3639  -20.8071 H   0  0  0  0  0  0  0  0  0  0  0  0
  -31.3967    8.0116  -20.5042 H   0  0  0  0  0  0  0  0  0  0  0  0
  -35.2502    8.9762  -22.8316 H   0  0  0  0  0  0  0  0  0  0  0  0
  -35.7190   10.5984  -22.2512 H   0  0  0  0  0  0  0  0  0  0  0  0
  -29.2603   16.5360  -21.3571 H   0  0  0  0  0  0  0  0  0  0  0  0
  -29.1359   17.2586  -19.7173 H   0  0  0  0  0  0  0  0  0  0  0  0
  -25.8516   12.7324  -21.6961 H   0  0  0  0  0  0  0  0  0  0  0  0
  -27.2552   11.6245  -21.8545 H   0  0  0  0  0  0  0  0  0  0  0  0
  -25.8658   11.1694  -20.8097 H   0  0  0  0  0  0  0  0  0  0  0  0
  1  2  1  0  0  0  0
  1 25  1  0  0  0  0
  1 26  1  0  0  0  0
  1 27  1  0  0  0  0
  2  9  1  0  0  0  0
  2  3  1  0  0  0  0
  2 24  1  0  0  0  0
  3  4  1  0  0  0  0
  4  8  1  0  0  0  0
  4  5  1  0  0  0  0
  4 28  1  0  0  0  0
  5  6  1  0  0  0  0
  5 20  1  0  0  0  0
  5 29  1  0  0  0  0
  6  7  1  0  0  0  0
  7  8  1  0  0  0  0
  7 10  1  0  0  0  0
  7 30  1  0  0  0  0
  8  9  1  0  0  0  0
  8 31  1  0  0  0  0
 10 14  1  0  0  0  0
 10 11  1  0  0  0  0
 11 12  2  0  0  0  0
 11 32  1  0  0  0  0
 12 13  1  0  0  0  0
 13 18  2  0  0  0  0
 13 14  1  0  0  0  0
 14 15  2  0  0  0  0
 15 16  1  0  0  0  0
 16 17  2  0  0  0  0
 16 33  1  0  0  0  0
 17 18  1  0  0  0  0
 18 19  1  0  0  0  0
 19 34  1  0  0  0  0
 19 35  1  0  0  0  0
 20 21  1  0  0  0  0
 20 36  1  0  0  0  0
 20 37  1  0  0  0  0
 21 22  2  0  0  0  0
 22 23  2  0  0  0  0
 24 38  1  0  0  0  0
 24 39  1  0  0  0  0
 24 40  1  0  0  0  0
M  END
> <Name>
ZINC16953706

> <reference>
BDB4977

> <quality>
0.780

> <status>
decoy

> <atoms in reference ligand area>
24

> <score>
-28.9489

$$$$
ZINC27249941
      BALL 1.4.0 (Jan  4 2012, 23:22:29)

 59 61  0999  0  0  0  0  0  0999 V2000
  -34.4916   11.7214  -20.0388 C   0  0  0  0  0  0  0  0  0  0  0  0
  -33.8903   10.3147  -20.0143 C   0  0  0  0  0  0  0  0  0  0  0  0
  -32.6459   10.3020  -20.7874 N   0  0  0  0  0  0  0  0  0  0  0  0
  -31.5943   11.1871  -20.6598 C   0  0  0  0  0  0  0  0  0  0  0  0
  -31.3503   12.2885  -19.8506 C   0  0  0  0  0  0  0  0  0  0  0  0
  -30.1664   12.9825  -19.9806 C   0  0  0  0  0  0  0  0  0  0  0  0
  -29.2186   12.5877  -20.9143 C   0  0  0  0  0  0  0  0  0  0  0  0
  -29.4413   11.5063  -21.7187 C   0  0  0  0  0  0  0  0  0  0  0  0
  -30.6343   10.7875  -21.6047 C   0  0  0  0  0  0  0  0  0  0  0  0
  -31.1363    9.6991  -22.2424 N   0  0  0  0  0  0  0  0  0  0  0  0
  -32.3111    9.4136  -21.7618 C   0  0  0  0  0  0  0  0  0  0  0  0
  -33.1775    8.2695  -22.2217 C   0  0  0  0  0  0  0  0  0  0  0  0
  -32.3700    7.3592  -23.1493 C   0  0  0  0  0  0  0  0  0  0  0  0
  -33.2416    6.9066  -24.2923 C   0  0  0  0  0  0  0  0  0  0  0  0
  -34.3951    7.2757  -24.3585 O   0  0  0  0  0  0  0  0  0  0  0  0
  -32.7394    6.0915  -25.2410 N   0  0  0  0  0  0  0  0  0  0  0  0
  -33.5756    5.5842  -26.2420 C   0  0  0  0  0  0  0  0  0  0  0  0
  -34.8613    5.1618  -25.9253 C   0  0  0  0  0  0  0  0  0  0  0  0
  -35.6912    4.6600  -26.9102 C   0  0  0  0  0  0  0  0  0  0  0  0
  -35.2486    4.5752  -28.2148 C   0  0  0  0  0  0  0  0  0  0  0  0
  -33.9593    4.9971  -28.5431 C   0  0  0  0  0  0  0  0  0  0  0  0
  -33.1236    5.5081  -27.5500 C   0  0  0  0  0  0  0  0  0  0  0  0
  -31.7320    5.9707  -27.8970 C   0  0  0  0  0  0  0  0  0  0  0  0
  -33.4828    4.9079  -29.9400 C   0  0  0  0  0  0  0  0  0  0  0  0
  -32.8731    3.9246  -30.3125 O   0  0  0  0  0  0  0  0  0  0  0  0
  -33.7244    5.9170  -30.8002 N   0  0  0  0  0  0  0  0  0  0  0  0
  -27.7126   13.4901  -21.0634 S   0  0  0  0  0  0  0  0  0  0  0  0
  -27.2267   13.2550  -22.3778 O   0  0  0  0  0  0  0  0  0  0  0  0
  -27.9716   14.7970  -20.5693 O   0  0  0  0  0  0  0  0  0  0  0  0
  -26.6230   12.7990  -20.0253 N   0  0  0  0  0  0  0  0  0  0  0  0
  -26.7975   12.9428  -18.5779 C   0  0  0  0  0  0  0  0  0  0  0  0
  -25.4846   12.0439  -20.5544 C   0  0  0  0  0  0  0  0  0  0  0  0
  -35.5527   11.6628  -20.3226 H   0  0  0  0  0  0  0  0  0  0  0  0
  -33.9507   12.3397  -20.7703 H   0  0  0  0  0  0  0  0  0  0  0  0
  -34.4046   12.1755  -19.0408 H   0  0  0  0  0  0  0  0  0  0  0  0
  -34.6028    9.6024  -20.4559 H   0  0  0  0  0  0  0  0  0  0  0  0
  -33.6784   10.0244  -18.9746 H   0  0  0  0  0  0  0  0  0  0  0  0
  -32.0983   12.6059  -19.1091 H   0  0  0  0  0  0  0  0  0  0  0  0
  -29.9715   13.8552  -19.3399 H   0  0  0  0  0  0  0  0  0  0  0  0
  -28.6828   11.2018  -22.4549 H   0  0  0  0  0  0  0  0  0  0  0  0
  -33.5180    7.6933  -21.3488 H   0  0  0  0  0  0  0  0  0  0  0  0
  -34.0497    8.6635  -22.7640 H   0  0  0  0  0  0  0  0  0  0  0  0
  -32.0178    6.4814  -22.5879 H   0  0  0  0  0  0  0  0  0  0  0  0
  -31.5056    7.9126  -23.5449 H   0  0  0  0  0  0  0  0  0  0  0  0
  -31.7401    5.8421  -25.2292 H   0  0  0  0  0  0  0  0  0  0  0  0
  -35.2197    5.2272  -24.8874 H   0  0  0  0  0  0  0  0  0  0  0  0
  -36.7077    4.3270  -26.6534 H   0  0  0  0  0  0  0  0  0  0  0  0
  -35.9121    4.1752  -28.9957 H   0  0  0  0  0  0  0  0  0  0  0  0
  -31.6678    6.9975  -27.5078 H   0  0  0  0  0  0  0  0  0  0  0  0
  -31.7199    6.0384  -28.9948 H   0  0  0  0  0  0  0  0  0  0  0  0
  -30.9353    5.3209  -27.5058 H   0  0  0  0  0  0  0  0  0  0  0  0
  -34.2410    6.7503  -30.4846 H   0  0  0  0  0  0  0  0  0  0  0  0
  -33.3925    5.8548  -31.7733 H   0  0  0  0  0  0  0  0  0  0  0  0
  -25.9925   12.3330  -18.1419 H   0  0  0  0  0  0  0  0  0  0  0  0
  -27.7393   12.4175  -18.3609 H   0  0  0  0  0  0  0  0  0  0  0  0
  -26.7935   13.9794  -18.2099 H   0  0  0  0  0  0  0  0  0  0  0  0
  -25.5669   11.0544  -20.0809 H   0  0  0  0  0  0  0  0  0  0  0  0
  -24.6026   12.5293  -20.1113 H   0  0  0  0  0  0  0  0  0  0  0  0
  -25.4336   11.9880  -21.6518 H   0  0  0  0  0  0  0  0  0  0  0  0
  1  2  1  0  0  0  0
  1 33  1  0  0  0  0
  1 34  1  0  0  0  0
  1 35  1  0  0  0  0
  2  3  1  0  0  0  0
  2 36  1  0  0  0  0
  2 37  1  0  0  0  0
  3 11  1  0  0  0  0
  3  4  1  0  0  0  0
  4  9  1  0  0  0  0
  4  5  2  0  0  0  0
  5  6  1  0  0  0  0
  5 38  1  0  0  0  0
  6  7  2  0  0  0  0
  6 39  1  0  0  0  0
  7  8  1  0  0  0  0
  7 27  1  0  0  0  0
  8  9  2  0  0  0  0
  8 40  1  0  0  0  0
  9 10  1  0  0  0  0
 10 11  2  0  0  0  0
 11 12  1  0  0  0  0
 12 13  1  0  0  0  0
 12 41  1  0  0  0  0
 12 42  1  0  0  0  0
 13 14  1  0  0  0  0
 13 43  1  0  0  0  0
 13 44  1  0  0  0  0
 14 15  2  0  0  0  0
 14 16  1  0  0  0  0
 16 17  1  0  0  0  0
 16 45  1  0  0  0  0
 17 22  2  0  0  0  0
 17 18  1  0  0  0  0
 18 19  2  0  0  0  0
 18 46  1  0  0  0  0
 19 20  1  0  0  0  0
 19 47  1  0  0  0  0
 20 21  2  0  0  0  0
 20 48  1  0  0  0  0
 21 22  1  0  0  0  0
 21 24  1  0  0  0  0
 22 23  1  0  0  0  0
 23 49  1  0  0  0  0
 23 50  1  0  0  0  0
 23 51  1  0  0  0  0
 24 25  2  0  0  0  0
 24 26  1  0  0  0  0
 26 52  1  0  0  0  0
 26 53  1  0  0  0  0
 27 28  2  0  0  0  0
 27 29  2  0  0  0  0
 27 30  1  0  0  0  0
 30 31  1  0  0  0  0
 30 32  1  0  0  0  0
 31 54  1  0  0  0  0
 31 55  1  0  0  0  0
 31 56  1  0  0  0  0
 32 57  1  0  0  0  0
 32 58  1  0  0  0  0
 32 59  1  0  0  0  0
M  END
> <Name>
ZINC27249941

> <reference>
BDB4968

> <quality>
0.739

> <status>
decoy

> <atoms in reference ligand area>
22

> <score>
-28.8844

$$$$
ZINC17376865
      BALL 1.4.0 (Jan  4 2012, 23:22:29)

 38 40  0999  0  0  0  0  0  0999 V2000
  -24.8447   14.5443  -21.2934 C   0  0  0  0  0  0  0  0  0  0  0  0
  -26.2362   14.1562  -20.8642 C   0  0  0  0  0  0  0  0  0  0  0  0
  -27.1780   14.8661  -21.1468 O   0  0  0  0  0  0  0  0  0  0  0  0
  -26.4339   13.0203  -20.1664 N   0  0  0  0  0  0  0  0  0  0  0  0
  -27.7191   12.6618  -19.7700 C   0  0  0  0  0  0  0  0  0  0  0  0
  -28.5969   12.0554  -20.6659 C   0  0  0  0  0  0  0  0  0  0  0  0
  -29.8760   11.7140  -20.2205 C   0  0  0  0  0  0  0  0  0  0  0  0
  -30.2112   11.9778  -18.9628 N   0  0  0  0  0  0  0  0  0  0  0  0
  -29.3521   12.5528  -18.1455 C   0  0  0  0  0  0  0  0  0  0  0  0
  -28.1357   12.8907  -18.5268 N   0  0  0  0  0  0  0  0  0  0  0  0
  -30.5321   11.1362  -21.2922 N   0  0  0  0  0  0  0  0  0  0  0  0
  -29.6976   11.1215  -22.3492 C   0  0  0  0  0  0  0  0  0  0  0  0
  -29.9677   10.6790  -23.4501 O   0  0  0  0  0  0  0  0  0  0  0  0
  -28.5158   11.6667  -21.9996 N   0  0  0  0  0  0  0  0  0  0  0  0
  -31.9049   10.6250  -21.2795 C   0  0  0  0  0  0  0  0  0  0  0  0
  -32.0933    9.6186  -20.1227 C   0  0  0  0  0  0  0  0  0  0  0  0
  -33.5268    9.8987  -19.6135 C   0  0  0  0  0  0  0  0  0  0  0  0
  -34.0337   11.0378  -20.5254 C   0  0  0  0  0  0  0  0  0  0  0  0
  -32.8363   11.6924  -20.9985 O   0  0  0  0  0  0  0  0  0  0  0  0
  -34.8968   12.0177  -19.7280 C   0  0  0  0  0  0  0  0  0  0  0  0
  -34.2182   13.2707  -19.6193 O   0  0  0  0  0  0  0  0  0  0  0  0
  -34.3468    8.7376  -19.7600 O   0  0  0  0  0  0  0  0  0  0  0  0
  -31.1384    9.8611  -19.0876 O   0  0  0  0  0  0  0  0  0  0  0  0
  -24.2889   13.5986  -21.3770 H   0  0  0  0  0  0  0  0  0  0  0  0
  -24.4224   15.1057  -20.4470 H   0  0  0  0  0  0  0  0  0  0  0  0
  -24.8251   15.1231  -22.2286 H   0  0  0  0  0  0  0  0  0  0  0  0
  -25.6340   12.4174  -19.9264 H   0  0  0  0  0  0  0  0  0  0  0  0
  -29.6602   12.7581  -17.1097 H   0  0  0  0  0  0  0  0  0  0  0  0
  -27.6955   11.7767  -22.6127 H   0  0  0  0  0  0  0  0  0  0  0  0
  -32.0840   10.1658  -22.2629 H   0  0  0  0  0  0  0  0  0  0  0  0
  -31.9510    8.5750  -20.4400 H   0  0  0  0  0  0  0  0  0  0  0  0
  -33.5526   10.1660  -18.5469 H   0  0  0  0  0  0  0  0  0  0  0  0
  -34.6576   10.6631  -21.3503 H   0  0  0  0  0  0  0  0  0  0  0  0
  -35.8569   12.1648  -20.2442 H   0  0  0  0  0  0  0  0  0  0  0  0
  -35.0797   11.6121  -18.7219 H   0  0  0  0  0  0  0  0  0  0  0  0
  -34.7686   13.9820  -20.0331 H   0  0  0  0  0  0  0  0  0  0  0  0
  -35.2494    9.0152  -20.0572 H   0  0  0  0  0  0  0  0  0  0  0  0
  -30.2732    9.4542  -19.3443 H   0  0  0  0  0  0  0  0  0  0  0  0
  1  2  1  0  0  0  0
  1 24  1  0  0  0  0
  1 25  1  0  0  0  0
  1 26  1  0  0  0  0
  2  3  2  0  0  0  0
  2  4  1  0  0  0  0
  4  5  1  0  0  0  0
  4 27  1  0  0  0  0
  5 10  2  0  0  0  0
  5  6  1  0  0  0  0
  6 14  1  0  0  0  0
  6  7  2  0  0  0  0
  7  8  1  0  0  0  0
  7 11  1  0  0  0  0
  8  9  2  0  0  0  0
  9 10  1  0  0  0  0
  9 28  1  0  0  0  0
 11 12  1  0  0  0  0
 11 15  1  0  0  0  0
 12 13  2  0  0  0  0
 12 14  1  0  0  0  0
 14 29  1  0  0  0  0
 15 19  1  0  0  0  0
 15 16  1  0  0  0  0
 15 30  1  0  0  0  0
 16 17  1  0  0  0  0
 16 23  1  0  0  0  0
 16 31  1  0  0  0  0
 17 18  1  0  0  0  0
 17 22  1  0  0  0  0
 17 32  1  0  0  0  0
 18 19  1  0  0  0  0
 18 20  1  0  0  0  0
 18 33  1  0  0  0  0
 20 21  1  0  0  0  0
 20 34  1  0  0  0  0
 20 35  1  0  0  0  0
 21 36  1  0  0  0  0
 22 37  1  0  0  0  0
 23 38  1  0  0  0  0
M  END
> <Name>
ZINC17376865

> <reference>
BDB4977

> <quality>
0.652

> <status>
decoy

> <atoms in reference ligand area>
20

> <score>
-28.8655

$$$$
ZINC31217234
      BALL 1.4.0 (Jan  4 2012, 23:22:29)

 48 49  0999  0  0  0  0  0  0999 V2000
  -38.2974    8.6013  -13.0628 C   0  0  0  0  0  0  0  0  0  0  0  0
  -37.7497   10.3272  -12.9524 S   0  0  0  0  0  0  0  0  0  0  0  0
  -38.7465   11.1175  -12.3192 O   0  0  0  0  0  0  0  0  0  0  0  0
  -37.1745   10.7379  -14.1851 O   0  0  0  0  0  0  0  0  0  0  0  0
  -36.4856   10.3049  -11.8829 N   0  0  0  0  0  0  0  0  0  0  0  0
  -35.4534    9.2708  -11.9902 C   0  0  0  0  0  0  0  0  0  0  0  0
  -34.1150    9.9211  -12.3463 C   0  0  0  0  0  0  0  0  0  0  0  0
  -33.3772    9.0462  -13.3617 C   0  0  0  0  0  0  0  0  0  0  0  0
  -33.1453    9.8120  -14.5889 N   0  0  0  0  0  0  0  0  0  0  0  0
  -32.5071    9.2406  -15.6293 C   0  0  0  0  0  0  0  0  0  0  0  0
  -32.1237    8.0899  -15.5494 O   0  0  0  0  0  0  0  0  0  0  0  0
  -32.2732   10.0134  -16.8679 C   0  0  0  0  0  0  0  0  0  0  0  0
  -33.2631   10.8653  -17.3600 C   0  0  0  0  0  0  0  0  0  0  0  0
  -33.0382   11.5838  -18.5161 C   0  0  0  0  0  0  0  0  0  0  0  0
  -31.8344   11.4616  -19.1871 C   0  0  0  0  0  0  0  0  0  0  0  0
  -30.8509   10.6148  -18.7074 C   0  0  0  0  0  0  0  0  0  0  0  0
  -31.0611    9.8943  -17.5499 C   0  0  0  0  0  0  0  0  0  0  0  0
  -31.5553   12.3830  -20.6628 S   0  0  0  0  0  0  0  0  0  0  0  0
  -32.6390   12.0915  -21.5346 O   0  0  0  0  0  0  0  0  0  0  0  0
  -30.2009   12.1605  -21.0304 O   0  0  0  0  0  0  0  0  0  0  0  0
  -31.6820   13.9867  -20.2701 N   0  0  0  0  0  0  0  0  0  0  0  0
  -32.7657   14.8881  -20.6878 C   0  0  0  0  0  0  0  0  0  0  0  0
  -32.4504   16.2832  -20.1083 C   0  0  0  0  0  0  0  0  0  0  0  0
  -30.9168   16.2239  -19.8803 C   0  0  0  0  0  0  0  0  0  0  0  0
  -30.7233   14.7486  -19.4492 C   0  0  0  0  0  0  0  0  0  0  0  0
  -39.3946    8.5730  -13.1359 H   0  0  0  0  0  0  0  0  0  0  0  0
  -37.9789    8.0613  -12.1590 H   0  0  0  0  0  0  0  0  0  0  0  0
  -37.8551    8.1277  -13.9517 H   0  0  0  0  0  0  0  0  0  0  0  0
  -36.4250   11.0182  -11.1422 H   0  0  0  0  0  0  0  0  0  0  0  0
  -35.3603    8.7443  -11.0288 H   0  0  0  0  0  0  0  0  0  0  0  0
  -35.7321    8.5531  -12.7759 H   0  0  0  0  0  0  0  0  0  0  0  0
  -34.2947   10.9152  -12.7816 H   0  0  0  0  0  0  0  0  0  0  0  0
  -33.5027   10.0236  -11.4383 H   0  0  0  0  0  0  0  0  0  0  0  0
  -32.4119    8.7294  -12.9399 H   0  0  0  0  0  0  0  0  0  0  0  0
  -33.9850    8.1591  -13.5932 H   0  0  0  0  0  0  0  0  0  0  0  0
  -33.4702   10.7870  -14.6566 H   0  0  0  0  0  0  0  0  0  0  0  0
  -34.2205   10.9636  -16.8273 H   0  0  0  0  0  0  0  0  0  0  0  0
  -33.8177   12.2553  -18.9053 H   0  0  0  0  0  0  0  0  0  0  0  0
  -29.8993   10.5159  -19.2503 H   0  0  0  0  0  0  0  0  0  0  0  0
  -30.2753    9.2275  -17.1652 H   0  0  0  0  0  0  0  0  0  0  0  0
  -33.7255   14.5289  -20.2878 H   0  0  0  0  0  0  0  0  0  0  0  0
  -32.8030   14.9423  -21.7858 H   0  0  0  0  0  0  0  0  0  0  0  0
  -32.6959   17.0653  -20.8419 H   0  0  0  0  0  0  0  0  0  0  0  0
  -32.9719   16.4261  -19.1504 H   0  0  0  0  0  0  0  0  0  0  0  0
  -30.6228   16.9023  -19.0659 H   0  0  0  0  0  0  0  0  0  0  0  0
  -30.3814   16.4214  -20.8207 H   0  0  0  0  0  0  0  0  0  0  0  0
  -29.6950   14.4251  -19.6680 H   0  0  0  0  0  0  0  0  0  0  0  0
  -30.9641   14.6344  -18.3819 H   0  0  0  0  0  0  0  0  0  0  0  0
  1  2  1  0  0  0  0
  1 26  1  0  0  0  0
  1 27  1  0  0  0  0
  1 28  1  0  0  0  0
  2  3  2  0  0  0  0
  2  4  2  0  0  0  0
  2  5  1  0  0  0  0
  5  6  1  0  0  0  0
  5 29  1  0  0  0  0
  6  7  1  0  0  0  0
  6 30  1  0  0  0  0
  6 31  1  0  0  0  0
  7  8  1  0  0  0  0
  7 32  1  0  0  0  0
  7 33  1  0  0  0  0
  8  9  1  0  0  0  0
  8 34  1  0  0  0  0
  8 35  1  0  0  0  0
  9 10  1  0  0  0  0
  9 36  1  0  0  0  0
 10 11  2  0  0  0  0
 10 12  1  0  0  0  0
 12 17  2  0  0  0  0
 12 13  1  0  0  0  0
 13 14  2  0  0  0  0
 13 37  1  0  0  0  0
 14 15  1  0  0  0  0
 14 38  1  0  0  0  0
 15 16  2  0  0  0  0
 15 18  1  0  0  0  0
 16 17  1  0  0  0  0
 16 39  1  0  0  0  0
 17 40  1  0  0  0  0
 18 19  2  0  0  0  0
 18 20  2  0  0  0  0
 18 21  1  0  0  0  0
 21 25  1  0  0  0  0
 21 22  1  0  0  0  0
 22 23  1  0  0  0  0
 22 41  1  0  0  0  0
 22 42  1  0  0  0  0
 23 24  1  0  0  0  0
 23 43  1  0  0  0  0
 23 44  1  0  0  0  0
 24 25  1  0  0  0  0
 24 45  1  0  0  0  0
 24 46  1  0  0  0  0
 25 47  1  0  0  0  0
 25 48  1  0  0  0  0
M  END
> <Name>
ZINC31217234

> <reference>
BDB4945

> <quality>
0.747

> <status>
decoy

> <atoms in reference ligand area>
12

> <score>
-28.861

$$$$
ZINC03978077
      BALL 1.4.0 (Jan  4 2012, 23:22:29)

 32 33  0999  0  0  0  0  0  0999 V2000
  -34.6901    9.7837  -21.1210 C   0  0  0  0  0  0  0  0  0  0  0  0
  -35.4566    8.7218  -21.1227 N   0  0  0  0  0  0  0  0  0  0  0  0
  -34.9392    7.5110  -21.3748 C   0  0  0  0  0  0  0  0  0  0  0  0
  -33.6455    7.3738  -21.6296 N   0  0  0  0  0  0  0  0  0  0  0  0
  -32.8489    8.4463  -21.6369 C   0  0  0  0  0  0  0  0  0  0  0  0
  -31.6584    8.3248  -21.8705 O   0  0  0  0  0  0  0  0  0  0  0  0
  -33.3702    9.6644  -21.3837 N   0  0  0  0  0  0  0  0  0  0  0  0
  -32.5095   10.8499  -21.3875 C   0  0  0  0  0  0  0  0  0  0  0  0
  -32.7445   11.6548  -20.1077 C   0  0  0  0  0  0  0  0  0  0  0  0
  -33.5820   12.9241  -20.4073 C   0  0  0  0  0  0  0  0  0  0  0  0
  -33.1761   13.8624  -19.2448 C   0  0  0  0  0  0  0  0  0  0  0  0
  -31.8286   13.2969  -18.7559 C   0  0  0  0  0  0  0  0  0  0  0  0
  -31.4956   12.1847  -19.6036 O   0  0  0  0  0  0  0  0  0  0  0  0
  -31.9575   12.8255  -17.3060 C   0  0  0  0  0  0  0  0  0  0  0  0
  -32.2127   13.9491  -16.4607 O   0  0  0  0  0  0  0  0  0  0  0  0
  -33.0149   15.2019  -19.7160 O   0  0  0  0  0  0  0  0  0  0  0  0
  -34.9806   12.6342  -20.3641 O   0  0  0  0  0  0  0  0  0  0  0  0
  -35.7539    6.4064  -21.3684 N   0  0  0  0  0  0  0  0  0  0  0  0
  -35.1209   10.7726  -20.9056 H   0  0  0  0  0  0  0  0  0  0  0  0
  -32.7473   11.4742  -22.2613 H   0  0  0  0  0  0  0  0  0  0  0  0
  -31.4557   10.5380  -21.4356 H   0  0  0  0  0  0  0  0  0  0  0  0
  -33.2382   10.9715  -19.4011 H   0  0  0  0  0  0  0  0  0  0  0  0
  -33.4016   13.3499  -21.4054 H   0  0  0  0  0  0  0  0  0  0  0  0
  -33.9332   13.8998  -18.4477 H   0  0  0  0  0  0  0  0  0  0  0  0
  -31.0448   14.0674  -18.7997 H   0  0  0  0  0  0  0  0  0  0  0  0
  -32.7893   12.1103  -17.2254 H   0  0  0  0  0  0  0  0  0  0  0  0
  -31.0226   12.3373  -16.9935 H   0  0  0  0  0  0  0  0  0  0  0  0
  -32.9592   14.4813  -16.8342 H   0  0  0  0  0  0  0  0  0  0  0  0
  -33.8100   15.4551  -20.2488 H   0  0  0  0  0  0  0  0  0  0  0  0
  -35.4785   13.4785  -20.2247 H   0  0  0  0  0  0  0  0  0  0  0  0
  -35.4230    5.5220  -20.9571 H   0  0  0  0  0  0  0  0  0  0  0  0
  -36.6981    6.4625  -21.7759 H   0  0  0  0  0  0  0  0  0  0  0  0
  1  7  1  0  0  0  0
  1  2  2  0  0  0  0
  1 19  1  0  0  0  0
  2  3  1  0  0  0  0
  3  4  2  0  0  0  0
  3 18  1  0  0  0  0
  4  5  1  0  0  0  0
  5  6  2  0  0  0  0
  5  7  1  0  0  0  0
  7  8  1  0  0  0  0
  8  9  1  0  0  0  0
  8 20  1  0  0  0  0
  8 21  1  0  0  0  0
  9 13  1  0  0  0  0
  9 10  1  0  0  0  0
  9 22  1  0  0  0  0
 10 11  1  0  0  0  0
 10 17  1  0  0  0  0
 10 23  1  0  0  0  0
 11 12  1  0  0  0  0
 11 16  1  0  0  0  0
 11 24  1  0  0  0  0
 12 13  1  0  0  0  0
 12 14  1  0  0  0  0
 12 25  1  0  0  0  0
 14 15  1  0  0  0  0
 14 26  1  0  0  0  0
 14 27  1  0  0  0  0
 15 28  1  0  0  0  0
 16 29  1  0  0  0  0
 17 30  1  0  0  0  0
 18 31  1  0  0  0  0
 18 32  1  0  0  0  0
M  END
> <Name>
ZINC03978077

> <reference>
BDB5257

> <quality>
0.782

> <status>
decoy

> <atoms in reference ligand area>
12

> <score>
-28.7591

$$$$
ZINC03365459
      BALL 1.4.0 (Jan  4 2012, 23:22:29)

 45 46  0999  0  0  0  0  0  0999 V2000
  -25.5841    7.4770  -25.2162 C   0  0  0  0  0  0  0  0  0  0  0  0
  -26.4251    7.1499  -24.1081 O   0  0  0  0  0  0  0  0  0  0  0  0
  -27.8217    7.2884  -24.3776 C   0  0  0  0  0  0  0  0  0  0  0  0
  -28.6138    6.6914  -23.2431 C   0  0  0  0  0  0  0  0  0  0  0  0
  -28.7754    5.4909  -23.1822 O   0  0  0  0  0  0  0  0  0  0  0  0
  -29.1425    7.4915  -22.2961 N   0  0  0  0  0  0  0  0  0  0  0  0
  -30.5301    7.6727  -22.2269 N   0  0  0  0  0  0  0  0  0  0  0  0
  -31.0752    8.3037  -21.1681 C   0  0  0  0  0  0  0  0  0  0  0  0
  -31.5815    7.6587  -20.2708 O   0  0  0  0  0  0  0  0  0  0  0  0
  -31.0577    9.7804  -21.0982 C   0  0  0  0  0  0  0  0  0  0  0  0
  -30.8756   10.5350  -22.2583 C   0  0  0  0  0  0  0  0  0  0  0  0
  -30.8606   11.9124  -22.1863 C   0  0  0  0  0  0  0  0  0  0  0  0
  -31.0309   12.5464  -20.9680 C   0  0  0  0  0  0  0  0  0  0  0  0
  -31.2066   11.8044  -19.8137 C   0  0  0  0  0  0  0  0  0  0  0  0
  -31.2235   10.4259  -19.8720 C   0  0  0  0  0  0  0  0  0  0  0  0
  -31.4163   12.6215  -18.2668 S   0  0  0  0  0  0  0  0  0  0  0  0
  -32.1126   11.7168  -17.4208 O   0  0  0  0  0  0  0  0  0  0  0  0
  -31.9066   13.9230  -18.5582 O   0  0  0  0  0  0  0  0  0  0  0  0
  -29.9093   12.8197  -17.6095 N   0  5  0  0  0  0  0  0  0  0  0  0
  -29.0921   13.8726  -18.0371 C   0  0  0  0  0  0  0  0  0  0  0  0
  -28.9047   14.9814  -17.2249 C   0  0  0  0  0  0  0  0  0  0  0  0
  -28.1014   16.0223  -17.6516 C   0  0  0  0  0  0  0  0  0  0  0  0
  -27.4797   15.9593  -18.8848 C   0  0  0  0  0  0  0  0  0  0  0  0
  -27.6578   14.8548  -19.6975 C   0  0  0  0  0  0  0  0  0  0  0  0
  -28.4607   13.8074  -19.2771 C   0  0  0  0  0  0  0  0  0  0  0  0
  -28.6367   12.7204  -20.0756 O   0  0  0  0  0  0  0  0  0  0  0  0
  -27.6634   12.5027  -21.0988 C   0  0  0  0  0  0  0  0  0  0  0  0
  -24.9550    8.3277  -24.9151 H   0  0  0  0  0  0  0  0  0  0  0  0
  -26.2347    7.8005  -26.0421 H   0  0  0  0  0  0  0  0  0  0  0  0
  -24.9641    6.6207  -25.5197 H   0  0  0  0  0  0  0  0  0  0  0  0
  -28.0696    6.7644  -25.3125 H   0  0  0  0  0  0  0  0  0  0  0  0
  -28.0720    8.3549  -24.4774 H   0  0  0  0  0  0  0  0  0  0  0  0
  -28.5264    7.9696  -21.6232 H   0  0  0  0  0  0  0  0  0  0  0  0
  -31.1335    7.3237  -22.9851 H   0  0  0  0  0  0  0  0  0  0  0  0
  -30.7444   10.0324  -23.2279 H   0  0  0  0  0  0  0  0  0  0  0  0
  -30.7131   12.5081  -23.0991 H   0  0  0  0  0  0  0  0  0  0  0  0
  -31.0266   13.6453  -20.9173 H   0  0  0  0  0  0  0  0  0  0  0  0
  -31.3674    9.8371  -18.9541 H   0  0  0  0  0  0  0  0  0  0  0  0
  -29.3950   15.0324  -16.2416 H   0  0  0  0  0  0  0  0  0  0  0  0
  -27.9565   16.9028  -17.0084 H   0  0  0  0  0  0  0  0  0  0  0  0
  -26.8416   16.7900  -19.2204 H   0  0  0  0  0  0  0  0  0  0  0  0
  -27.1618   14.8080  -20.6782 H   0  0  0  0  0  0  0  0  0  0  0  0
  -28.1196   11.8045  -21.8161 H   0  0  0  0  0  0  0  0  0  0  0  0
  -26.8187   11.9879  -20.6176 H   0  0  0  0  0  0  0  0  0  0  0  0
  -27.3443   13.4349  -21.5879 H   0  0  0  0  0  0  0  0  0  0  0  0
  1  2  1  0  0  0  0
  1 28  1  0  0  0  0
  1 29  1  0  0  0  0
  1 30  1  0  0  0  0
  2  3  1  0  0  0  0
  3  4  1  0  0  0  0
  3 31  1  0  0  0  0
  3 32  1  0  0  0  0
  4  5  2  0  0  0  0
  4  6  1  0  0  0  0
  6  7  1  0  0  0  0
  6 33  1  0  0  0  0
  7  8  1  0  0  0  0
  7 34  1  0  0  0  0
  8  9  2  0  0  0  0
  8 10  1  0  0  0  0
 10 15  2  0  0  0  0
 10 11  1  0  0  0  0
 11 12  2  0  0  0  0
 11 35  1  0  0  0  0
 12 13  1  0  0  0  0
 12 36  1  0  0  0  0
 13 14  2  0  0  0  0
 13 37  1  0  0  0  0
 14 15  1  0  0  0  0
 14 16  1  0  0  0  0
 15 38  1  0  0  0  0
 16 17  2  0  0  0  0
 16 18  2  0  0  0  0
 16 19  1  0  0  0  0
 19 20  1  0  0  0  0
 20 25  2  0  0  0  0
 20 21  1  0  0  0  0
 21 22  2  0  0  0  0
 21 39  1  0  0  0  0
 22 23  1  0  0  0  0
 22 40  1  0  0  0  0
 23 24  2  0  0  0  0
 23 41  1  0  0  0  0
 24 25  1  0  0  0  0
 24 42  1  0  0  0  0
 25 26  1  0  0  0  0
 26 27  1  0  0  0  0
 27 43  1  0  0  0  0
 27 44  1  0  0  0  0
 27 45  1  0  0  0  0
M  END
> <Name>
ZINC03365459

> <reference>
BDB4945

> <quality>
0.723

> <status>
decoy

> <atoms in reference ligand area>
17

> <score>
-28.6393

$$$$
ZINC00016244
      BALL 1.4.0 (Jan  4 2012, 23:22:29)

 44 45  0999  0  0  0  0  0  0999 V2000
  -32.1477   12.7432  -22.2863 C   0  0  0  0  0  0  0  0  0  0  0  0
  -31.5465   11.7986  -21.3415 N   0  0  0  0  0  0  0  0  0  0  0  0
  -31.5256   10.3668  -21.6504 C   0  0  0  0  0  0  0  0  0  0  0  0
  -32.1899   10.1281  -23.0078 C   0  0  0  0  0  0  0  0  0  0  0  0
  -32.2788    8.6468  -23.2700 C   0  0  0  0  0  0  0  0  0  0  0  0
  -31.4530    7.7742  -22.5853 C   0  0  0  0  0  0  0  0  0  0  0  0
  -31.5358    6.4156  -22.8190 C   0  0  0  0  0  0  0  0  0  0  0  0
  -32.4420    5.9269  -23.7515 C   0  0  0  0  0  0  0  0  0  0  0  0
  -33.2660    6.8067  -24.4418 C   0  0  0  0  0  0  0  0  0  0  0  0
  -33.1820    8.1636  -24.1990 C   0  0  0  0  0  0  0  0  0  0  0  0
  -32.5247    4.5538  -23.9943 N   0  0  0  0  0  0  0  0  0  0  0  0
  -31.4922    3.8402  -25.0746 S   0  0  0  0  0  0  0  0  0  0  0  0
  -31.8588    2.4674  -25.0740 O   0  0  0  0  0  0  0  0  0  0  0  0
  -31.6081    4.6206  -26.2565 O   0  0  0  0  0  0  0  0  0  0  0  0
  -29.8426    4.0467  -24.3490 C   0  0  0  0  0  0  0  0  0  0  0  0
  -31.4124   10.7477  -24.0342 O   0  0  0  0  0  0  0  0  0  0  0  0
  -30.9959   12.2612  -20.1516 C   0  0  0  0  0  0  0  0  0  0  0  0
  -29.6815   11.9464  -19.8345 C   0  0  0  0  0  0  0  0  0  0  0  0
  -29.1425   12.4216  -18.6432 C   0  0  0  0  0  0  0  0  0  0  0  0
  -29.9561   13.1900  -17.8070 C   0  0  0  0  0  0  0  0  0  0  0  0
  -31.2528   13.4549  -18.1881 C   0  0  0  0  0  0  0  0  0  0  0  0
  -27.8272   12.1334  -18.2902 N   0  0  0  0  0  0  0  0  0  0  0  0
  -31.8087   13.0104  -19.3490 N   0  3  0  0  0  0  0  0  0  0  0  0
  -32.2671   12.1718  -23.2186 H   0  0  0  0  0  0  0  0  0  0  0  0
  -31.3659   13.4950  -22.4690 H   0  0  0  0  0  0  0  0  0  0  0  0
  -33.0915   13.1905  -21.9413 H   0  0  0  0  0  0  0  0  0  0  0  0
  -30.4841   10.0142  -21.6855 H   0  0  0  0  0  0  0  0  0  0  0  0
  -32.0737    9.8147  -20.8728 H   0  0  0  0  0  0  0  0  0  0  0  0
  -33.2012   10.5609  -23.0023 H   0  0  0  0  0  0  0  0  0  0  0  0
  -30.7293    8.1626  -21.8536 H   0  0  0  0  0  0  0  0  0  0  0  0
  -30.8848    5.7212  -22.2674 H   0  0  0  0  0  0  0  0  0  0  0  0
  -33.9847    6.4230  -25.1809 H   0  0  0  0  0  0  0  0  0  0  0  0
  -33.8342    8.8608  -24.7453 H   0  0  0  0  0  0  0  0  0  0  0  0
  -33.2279    3.9852  -23.5013 H   0  0  0  0  0  0  0  0  0  0  0  0
  -29.6733    5.0812  -24.0153 H   0  0  0  0  0  0  0  0  0  0  0  0
  -29.0512    3.7339  -25.0461 H   0  0  0  0  0  0  0  0  0  0  0  0
  -29.7818    3.3972  -23.4634 H   0  0  0  0  0  0  0  0  0  0  0  0
  -31.9626   11.4237  -24.5037 H   0  0  0  0  0  0  0  0  0  0  0  0
  -29.0752   11.3304  -20.5149 H   0  0  0  0  0  0  0  0  0  0  0  0
  -29.5655   13.5789  -16.8551 H   0  0  0  0  0  0  0  0  0  0  0  0
  -31.8762   14.0615  -17.5149 H   0  0  0  0  0  0  0  0  0  0  0  0
  -27.6433   11.4906  -17.5067 H   0  0  0  0  0  0  0  0  0  0  0  0
  -27.0438   12.5580  -18.8066 H   0  0  0  0  0  0  0  0  0  0  0  0
  -32.7825   13.2260  -19.6061 H   0  0  0  0  0  0  0  0  0  0  0  0
  1  2  1  0  0  0  0
  1 24  1  0  0  0  0
  1 25  1  0  0  0  0
  1 26  1  0  0  0  0
  2  3  1  0  0  0  0
  2 17  1  0  0  0  0
  3  4  1  0  0  0  0
  3 27  1  0  0  0  0
  3 28  1  0  0  0  0
  4  5  1  0  0  0  0
  4 16  1  0  0  0  0
  4 29  1  0  0  0  0
  5 10  2  0  0  0  0
  5  6  1  0  0  0  0
  6  7  2  0  0  0  0
  6 30  1  0  0  0  0
  7  8  1  0  0  0  0
  7 31  1  0  0  0  0
  8  9  2  0  0  0  0
  8 11  1  0  0  0  0
  9 10  1  0  0  0  0
  9 32  1  0  0  0  0
 10 33  1  0  0  0  0
 11 12  1  0  0  0  0
 11 34  1  0  0  0  0
 12 13  2  0  0  0  0
 12 14  2  0  0  0  0
 12 15  1  0  0  0  0
 15 35  1  0  0  0  0
 15 36  1  0  0  0  0
 15 37  1  0  0  0  0
 16 38  1  0  0  0  0
 17 18  2  0  0  0  0
 17 23  1  0  0  0  0
 18 19  1  0  0  0  0
 18 39  1  0  0  0  0
 19 20  2  0  0  0  0
 19 22  1  0  0  0  0
 20 21  1  0  0  0  0
 20 40  1  0  0  0  0
 21 23  2  0  0  0  0
 21 41  1  0  0  0  0
 22 42  1  0  0  0  0
 22 43  1  0  0  0  0
 23 44  1  0  0  0  0
M  END
> <Name>
ZINC00016244

> <reference>
BDB5200

> <quality>
0.766

> <status>
decoy

> <atoms in reference ligand area>
20

> <score>
-28.5759

$$$$
ZINC20190413
      BALL 1.4.0 (Jan  4 2012, 23:22:29)

 33 34  0999  0  0  0  0  0  0999 V2000
  -34.4093   12.2066  -14.3621 C   0  0  0  0  0  0  0  0  0  0  0  0
  -33.9188   11.0647  -14.9756 C   0  0  0  0  0  0  0  0  0  0  0  0
  -33.0525   11.1867  -15.9678 N   0  0  0  0  0  0  0  0  0  0  0  0
  -32.6539   12.3826  -16.3756 C   0  0  0  0  0  0  0  0  0  0  0  0
  -33.0994   13.4933  -15.8071 N   0  0  0  0  0  0  0  0  0  0  0  0
  -33.9713   13.4416  -14.8136 C   0  0  0  0  0  0  0  0  0  0  0  0
  -31.7463   12.4736  -17.4166 N   0  5  0  0  0  0  0  0  0  0  0  0
  -32.2841   12.6976  -18.9668 S   0  0  0  0  0  0  0  0  0  0  0  0
  -32.7232   14.0461  -19.0535 O   0  0  0  0  0  0  0  0  0  0  0  0
  -33.1346   11.5987  -19.2644 O   0  0  0  0  0  0  0  0  0  0  0  0
  -30.8856   12.5540  -20.0292 C   0  0  0  0  0  0  0  0  0  0  0  0
  -30.7133   11.4165  -20.7954 C   0  0  0  0  0  0  0  0  0  0  0  0
  -29.6194   11.3061  -21.6331 C   0  0  0  0  0  0  0  0  0  0  0  0
  -28.6966   12.3333  -21.7060 C   0  0  0  0  0  0  0  0  0  0  0  0
  -28.8666   13.4711  -20.9407 C   0  0  0  0  0  0  0  0  0  0  0  0
  -29.9621   13.5828  -20.1010 C   0  0  0  0  0  0  0  0  0  0  0  0
  -30.1297   14.6953  -19.3529 F   0  0  0  0  0  0  0  0  0  0  0  0
  -29.4327   10.0655  -22.4679 C   0  0  0  0  0  0  0  0  0  0  0  0
  -29.9042   10.3373  -23.8979 C   0  0  0  0  0  0  0  0  0  0  0  0
  -29.5059    9.2207  -24.7654 N   0  3  0  0  0  0  0  0  0  0  0  0
  -35.1307   12.1343  -13.5348 H   0  0  0  0  0  0  0  0  0  0  0  0
  -34.2459   10.0690  -14.6416 H   0  0  0  0  0  0  0  0  0  0  0  0
  -34.3442   14.3676  -14.3514 H   0  0  0  0  0  0  0  0  0  0  0  0
  -31.4469   10.5989  -20.7384 H   0  0  0  0  0  0  0  0  0  0  0  0
  -27.8269   12.2446  -22.3737 H   0  0  0  0  0  0  0  0  0  0  0  0
  -28.1320   14.2877  -20.9984 H   0  0  0  0  0  0  0  0  0  0  0  0
  -28.3682    9.7883  -22.4799 H   0  0  0  0  0  0  0  0  0  0  0  0
  -30.0215    9.2414  -22.0389 H   0  0  0  0  0  0  0  0  0  0  0  0
  -29.4466   11.2676  -24.2654 H   0  0  0  0  0  0  0  0  0  0  0  0
  -30.9995   10.4377  -23.9101 H   0  0  0  0  0  0  0  0  0  0  0  0
  -29.9621    9.3183  -25.6837 H   0  0  0  0  0  0  0  0  0  0  0  0
  -29.7915    8.3304  -24.3336 H   0  0  0  0  0  0  0  0  0  0  0  0
  -28.4833    9.2289  -24.8888 H   0  0  0  0  0  0  0  0  0  0  0  0
  1  6  2  0  0  0  0
  1  2  1  0  0  0  0
  1 21  1  0  0  0  0
  2  3  2  0  0  0  0
  2 22  1  0  0  0  0
  3  4  1  0  0  0  0
  4  5  2  0  0  0  0
  4  7  1  0  0  0  0
  5  6  1  0  0  0  0
  6 23  1  0  0  0  0
  7  8  1  0  0  0  0
  8  9  2  0  0  0  0
  8 10  2  0  0  0  0
  8 11  1  0  0  0  0
 11 16  2  0  0  0  0
 11 12  1  0  0  0  0
 12 13  2  0  0  0  0
 12 24  1  0  0  0  0
 13 14  1  0  0  0  0
 13 18  1  0  0  0  0
 14 15  2  0  0  0  0
 14 25  1  0  0  0  0
 15 16  1  0  0  0  0
 15 26  1  0  0  0  0
 16 17  1  0  0  0  0
 18 19  1  0  0  0  0
 18 27  1  0  0  0  0
 18 28  1  0  0  0  0
 19 20  1  0  0  0  0
 19 29  1  0  0  0  0
 19 30  1  0  0  0  0
 20 31  1  0  0  0  0
 20 32  1  0  0  0  0
 20 33  1  0  0  0  0
M  END
> <Name>
ZINC20190413

> <reference>
BDB5242

> <quality>
0.776

> <status>
decoy

> <atoms in reference ligand area>
16

> <score>
-28.5221

$$$$
ZINC31599770
      BALL 1.4.0 (Jan  4 2012, 23:22:29)

 38 38  0999  0  0  0  0  0  0999 V2000
  -34.9091    6.8953  -25.8886 C   0  0  0  0  0  0  0  0  0  0  0  0
  -35.2815    8.1594  -25.1112 C   0  0  0  0  0  0  0  0  0  0  0  0
  -34.3930    8.2759  -23.8711 C   0  0  0  0  0  0  0  0  0  0  0  0
  -32.9264    8.3543  -24.2999 C   0  0  0  0  0  0  0  0  0  0  0  0
  -32.5541    7.0901  -25.0772 C   0  0  0  0  0  0  0  0  0  0  0  0
  -33.4425    6.9737  -26.3174 C   0  0  0  0  0  0  0  0  0  0  0  0
  -31.8731    8.4923  -22.8296 S   0  0  0  0  0  0  0  0  0  0  0  0
  -31.6108   10.2776  -22.6437 C   0  0  0  0  0  0  0  0  0  0  0  0
  -32.3631   10.7778  -21.4088 C   0  0  0  0  0  0  0  0  0  0  0  0
  -31.6546   11.9254  -20.8370 N   0  3  0  0  0  0  0  0  0  0  0  0
  -32.1321   13.1184  -20.9828 C   0  0  0  0  0  0  0  0  0  0  0  0
  -31.4867   14.2804  -20.2726 C   0  0  0  0  0  0  0  0  0  0  0  0
  -31.2765   13.8748  -18.5170 S   0  0  0  0  0  0  0  0  0  0  0  0
  -29.2522   13.9985  -18.2183 S   0  0  0  0  0  0  0  0  0  0  0  0
  -28.8311   12.7225  -17.7560 O   0  0  0  0  0  0  0  0  0  0  0  0
  -28.7064   14.6056  -19.3815 O   0  0  0  0  0  0  0  0  0  0  0  0
  -29.0252   14.9733  -17.0717 O   0  5  0  0  0  0  0  0  0  0  0  0
  -33.2246   13.3258  -21.7829 N   0  0  0  0  0  0  0  0  0  0  0  0
  -35.5480    6.8122  -26.7801 H   0  0  0  0  0  0  0  0  0  0  0  0
  -35.0582    6.0141  -25.2472 H   0  0  0  0  0  0  0  0  0  0  0  0
  -36.3357    8.1040  -24.8022 H   0  0  0  0  0  0  0  0  0  0  0  0
  -35.1331    9.0411  -25.7521 H   0  0  0  0  0  0  0  0  0  0  0  0
  -34.6603    9.1850  -23.3125 H   0  0  0  0  0  0  0  0  0  0  0  0
  -34.5400    7.3946  -23.2293 H   0  0  0  0  0  0  0  0  0  0  0  0
  -32.7784    9.2359  -24.9410 H   0  0  0  0  0  0  0  0  0  0  0  0
  -31.4999    7.1467  -25.3862 H   0  0  0  0  0  0  0  0  0  0  0  0
  -32.7018    6.2078  -24.4371 H   0  0  0  0  0  0  0  0  0  0  0  0
  -33.1745    6.0646  -26.8757 H   0  0  0  0  0  0  0  0  0  0  0  0
  -33.2934    7.8550  -26.9584 H   0  0  0  0  0  0  0  0  0  0  0  0
  -30.5361   10.4800  -22.5246 H   0  0  0  0  0  0  0  0  0  0  0  0
  -31.9855   10.7993  -23.5366 H   0  0  0  0  0  0  0  0  0  0  0  0
  -32.4192    9.9729  -20.6612 H   0  0  0  0  0  0  0  0  0  0  0  0
  -33.3802   11.0820  -21.6971 H   0  0  0  0  0  0  0  0  0  0  0  0
  -30.7760   11.7822  -20.3188 H   0  0  0  0  0  0  0  0  0  0  0  0
  -32.1256   15.1708  -20.3684 H   0  0  0  0  0  0  0  0  0  0  0  0
  -30.5034   14.4845  -20.7214 H   0  0  0  0  0  0  0  0  0  0  0  0
  -33.2432   12.9424  -22.7387 H   0  0  0  0  0  0  0  0  0  0  0  0
  -34.0274   13.8652  -21.4286 H   0  0  0  0  0  0  0  0  0  0  0  0
  1  6  1  0  0  0  0
  1  2  1  0  0  0  0
  1 19  1  0  0  0  0
  1 20  1  0  0  0  0
  2  3  1  0  0  0  0
  2 21  1  0  0  0  0
  2 22  1  0  0  0  0
  3  4  1  0  0  0  0
  3 23  1  0  0  0  0
  3 24  1  0  0  0  0
  4  5  1  0  0  0  0
  4  7  1  0  0  0  0
  4 25  1  0  0  0  0
  5  6  1  0  0  0  0
  5 26  1  0  0  0  0
  5 27  1  0  0  0  0
  6 28  1  0  0  0  0
  6 29  1  0  0  0  0
  7  8  1  0  0  0  0
  8  9  1  0  0  0  0
  8 30  1  0  0  0  0
  8 31  1  0  0  0  0
  9 10  1  0  0  0  0
  9 32  1  0  0  0  0
  9 33  1  0  0  0  0
 10 11  2  0  0  0  0
 10 34  1  0  0  0  0
 11 12  1  0  0  0  0
 11 18  1  0  0  0  0
 12 13  1  0  0  0  0
 12 35  1  0  0  0  0
 12 36  1  0  0  0  0
 13 14  1  0  0  0  0
 14 15  2  0  0  0  0
 14 16  2  0  0  0  0
 14 17  1  0  0  0  0
 18 37  1  0  0  0  0
 18 38  1  0  0  0  0
M  END
> <Name>
ZINC31599770

> <reference>
BDB5023

> <quality>
0.664

> <status>
decoy

> <atoms in reference ligand area>
17

> <score>
-28.4975

$$$$
ZINC06414339
      BALL 1.4.0 (Jan  4 2012, 23:22:29)

 58 60  0999  0  0  0  0  0  0999 V2000
  -32.7309   17.3454  -20.7973 C   0  0  0  0  0  0  0  0  0  0  0  0
  -32.6062   16.0446  -21.3755 O   0  0  0  0  0  0  0  0  0  0  0  0
  -32.6272   14.9853  -20.5229 C   0  0  0  0  0  0  0  0  0  0  0  0
  -31.8046   14.9781  -19.4061 C   0  0  0  0  0  0  0  0  0  0  0  0
  -31.8249   13.9025  -18.5399 C   0  0  0  0  0  0  0  0  0  0  0  0
  -32.6695   12.8283  -18.7872 C   0  0  0  0  0  0  0  0  0  0  0  0
  -33.4936   12.8370  -19.9048 C   0  0  0  0  0  0  0  0  0  0  0  0
  -33.4713   13.9130  -20.7704 C   0  0  0  0  0  0  0  0  0  0  0  0
  -32.6904   11.7380  -17.9103 N   0  0  0  0  0  0  0  0  0  0  0  0
  -32.9399   10.4841  -18.6350 C   0  0  0  0  0  0  0  0  0  0  0  0
  -32.8762    9.3102  -17.6550 C   0  0  0  0  0  0  0  0  0  0  0  0
  -33.6226   10.7619  -15.8677 C   0  0  0  0  0  0  0  0  0  0  0  0
  -33.6862   11.9358  -16.8478 C   0  0  0  0  0  0  0  0  0  0  0  0
  -33.8941    8.3635  -15.6719 C   0  0  0  0  0  0  0  0  0  0  0  0
  -32.5288    8.2884  -14.9854 C   0  0  0  0  0  0  0  0  0  0  0  0
  -31.8641    6.9509  -15.3170 C   0  0  0  0  0  0  0  0  0  0  0  0
  -30.4518    7.1364  -15.4323 O   0  0  0  0  0  0  0  0  0  0  0  0
  -29.8211    6.4627  -16.4272 C   0  0  0  0  0  0  0  0  0  0  0  0
  -28.4321    6.4351  -16.4734 C   0  0  0  0  0  0  0  0  0  0  0  0
  -27.7882    5.7487  -17.4785 C   0  0  0  0  0  0  0  0  0  0  0  0
  -28.5332    5.0876  -18.4587 C   0  0  0  0  0  0  0  0  0  0  0  0
  -29.9292    5.1222  -18.4118 C   0  0  0  0  0  0  0  0  0  0  0  0
  -30.5656    5.8069  -17.4006 C   0  0  0  0  0  0  0  0  0  0  0  0
  -27.8470    4.3545  -19.5406 C   0  0  0  0  0  0  0  0  0  0  0  0
  -28.4399    4.0944  -20.5697 O   0  0  0  0  0  0  0  0  0  0  0  0
  -26.5634    3.9735  -19.3877 N   0  0  0  0  0  0  0  0  0  0  0  0
  -26.2458    2.9825  -18.5027 N   0  0  0  0  0  0  0  0  0  0  0  0
  -31.7031    9.3586  -15.4487 O   0  0  0  0  0  0  0  0  0  0  0  0
  -33.8969    9.5105  -16.6048 N   0  3  0  0  0  0  0  0  0  0  0  0
  -33.3432   17.9363  -21.4944 H   0  0  0  0  0  0  0  0  0  0  0  0
  -31.7195   17.7776  -20.7871 H   0  0  0  0  0  0  0  0  0  0  0  0
  -33.1719   17.3226  -19.7899 H   0  0  0  0  0  0  0  0  0  0  0  0
  -31.1359   15.8292  -19.2103 H   0  0  0  0  0  0  0  0  0  0  0  0
  -31.1723   13.8969  -17.6545 H   0  0  0  0  0  0  0  0  0  0  0  0
  -34.1639   11.9872  -20.1006 H   0  0  0  0  0  0  0  0  0  0  0  0
  -34.1233   13.9195  -21.6564 H   0  0  0  0  0  0  0  0  0  0  0  0
  -32.1759   10.3515  -19.4152 H   0  0  0  0  0  0  0  0  0  0  0  0
  -33.9366   10.5202  -19.0990 H   0  0  0  0  0  0  0  0  0  0  0  0
  -33.0793    8.3714  -18.1911 H   0  0  0  0  0  0  0  0  0  0  0  0
  -31.8782    9.2674  -17.1944 H   0  0  0  0  0  0  0  0  0  0  0  0
  -34.3779   10.8975  -15.0795 H   0  0  0  0  0  0  0  0  0  0  0  0
  -32.6201   10.7117  -15.4178 H   0  0  0  0  0  0  0  0  0  0  0  0
  -33.4707   12.8722  -16.3123 H   0  0  0  0  0  0  0  0  0  0  0  0
  -34.6917   11.9887  -17.2909 H   0  0  0  0  0  0  0  0  0  0  0  0
  -34.0767    7.4340  -16.2313 H   0  0  0  0  0  0  0  0  0  0  0  0
  -34.6805    8.5028  -14.9156 H   0  0  0  0  0  0  0  0  0  0  0  0
  -32.6609    8.3721  -13.8966 H   0  0  0  0  0  0  0  0  0  0  0  0
  -32.0741    6.2280  -14.5149 H   0  0  0  0  0  0  0  0  0  0  0  0
  -32.2618    6.5684  -16.2686 H   0  0  0  0  0  0  0  0  0  0  0  0
  -27.8465    6.9623  -15.7059 H   0  0  0  0  0  0  0  0  0  0  0  0
  -26.6891    5.7207  -17.5098 H   0  0  0  0  0  0  0  0  0  0  0  0
  -30.5192    4.6032  -19.1815 H   0  0  0  0  0  0  0  0  0  0  0  0
  -31.6646    5.8349  -17.3632 H   0  0  0  0  0  0  0  0  0  0  0  0
  -25.8217    4.4294  -19.9382 H   0  0  0  0  0  0  0  0  0  0  0  0
  -25.8741    3.2224  -17.5725 H   0  0  0  0  0  0  0  0  0  0  0  0
  -26.3779    1.9955  -18.7656 H   0  0  0  0  0  0  0  0  0  0  0  0
  -30.8193    9.3106  -15.0051 H   0  0  0  0  0  0  0  0  0  0  0  0
  -34.8244    9.5789  -17.0476 H   0  0  0  0  0  0  0  0  0  0  0  0
  1  2  1  0  0  0  0
  1 30  1  0  0  0  0
  1 31  1  0  0  0  0
  1 32  1  0  0  0  0
  2  3  1  0  0  0  0
  3  8  2  0  0  0  0
  3  4  1  0  0  0  0
  4  5  2  0  0  0  0
  4 33  1  0  0  0  0
  5  6  1  0  0  0  0
  5 34  1  0  0  0  0
  6  7  2  0  0  0  0
  6  9  1  0  0  0  0
  7  8  1  0  0  0  0
  7 35  1  0  0  0  0
  8 36  1  0  0  0  0
  9 13  1  0  0  0  0
  9 10  1  0  0  0  0
 10 11  1  0  0  0  0
 10 37  1  0  0  0  0
 10 38  1  0  0  0  0
 11 29  1  0  0  0  0
 11 39  1  0  0  0  0
 11 40  1  0  0  0  0
 12 13  1  0  0  0  0
 12 29  1  0  0  0  0
 12 41  1  0  0  0  0
 12 42  1  0  0  0  0
 13 43  1  0  0  0  0
 13 44  1  0  0  0  0
 14 15  1  0  0  0  0
 14 29  1  0  0  0  0
 14 45  1  0  0  0  0
 14 46  1  0  0  0  0
 15 16  1  0  0  0  0
 15 28  1  0  0  0  0
 15 47  1  0  0  0  0
 16 17  1  0  0  0  0
 16 48  1  0  0  0  0
 16 49  1  0  0  0  0
 17 18  1  0  0  0  0
 18 23  2  0  0  0  0
 18 19  1  0  0  0  0
 19 20  2  0  0  0  0
 19 50  1  0  0  0  0
 20 21  1  0  0  0  0
 20 51  1  0  0  0  0
 21 22  2  0  0  0  0
 21 24  1  0  0  0  0
 22 23  1  0  0  0  0
 22 52  1  0  0  0  0
 23 53  1  0  0  0  0
 24 25  2  0  0  0  0
 24 26  1  0  0  0  0
 26 27  1  0  0  0  0
 26 54  1  0  0  0  0
 27 55  1  0  0  0  0
 27 56  1  0  0  0  0
 28 57  1  0  0  0  0
 29 58  1  0  0  0  0
M  END
> <Name>
ZINC06414339

> <reference>
BDB5007

> <quality>
0.715

> <status>
decoy

> <atoms in reference ligand area>
11

> <score>
-28.4411

$$$$
ZINC31852179
      BALL 1.4.0 (Jan  4 2012, 23:22:29)

 41 43  0999  0  0  0  0  0  0999 V2000
  -29.0577   10.9114  -24.2870 C   0  0  0  0  0  0  0  0  0  0  0  0
  -29.8762   10.2965  -23.2390 N   0  0  0  0  0  0  0  0  0  0  0  0
  -31.2206   10.3345  -23.3246 C   0  0  0  0  0  0  0  0  0  0  0  0
  -31.7555   10.9470  -24.2296 O   0  0  0  0  0  0  0  0  0  0  0  0
  -32.0400    9.6366  -22.3257 C   0  0  0  0  0  0  0  0  0  0  0  0
  -32.2442    8.2911  -22.2617 C   0  0  0  0  0  0  0  0  0  0  0  0
  -33.0917    8.0537  -21.1527 C   0  0  0  0  0  0  0  0  0  0  0  0
  -33.3734    9.2876  -20.5874 C   0  0  0  0  0  0  0  0  0  0  0  0
  -32.7336   10.2314  -21.2936 N   0  0  0  0  0  0  0  0  0  0  0  0
  -32.7713   11.6693  -21.0158 C   0  0  0  0  0  0  0  0  0  0  0  0
  -33.5832    6.7510  -20.6933 C   0  0  0  0  0  0  0  0  0  0  0  0
  -33.0491    6.1977  -19.7551 O   0  0  0  0  0  0  0  0  0  0  0  0
  -34.7519    6.0994  -21.3866 C   0  0  0  0  0  0  0  0  0  0  0  0
  -34.2464    5.5550  -23.0415 S   0  0  0  0  0  0  0  0  0  0  0  0
  -34.8590    6.8147  -24.1103 C   0  0  0  0  0  0  0  0  0  0  0  0
  -35.0117    8.0798  -23.8022 N   0  0  0  0  0  0  0  0  0  0  0  0
  -35.5272    8.7395  -24.9256 N   0  0  0  0  0  0  0  0  0  0  0  0
  -35.6677    7.8575  -25.8843 C   0  0  0  0  0  0  0  0  0  0  0  0
  -35.2557    6.6455  -25.4072 N   0  0  0  0  0  0  0  0  0  0  0  0
  -35.2465    5.3844  -26.1528 C   0  0  0  0  0  0  0  0  0  0  0  0
  -36.5803    4.6544  -26.3226 C   0  0  0  0  0  0  0  0  0  0  0  0
  -35.9390    5.3652  -27.5171 C   0  0  0  0  0  0  0  0  0  0  0  0
  -36.1503    8.1105  -27.1620 N   0  0  0  0  0  0  0  0  0  0  0  0
  -29.7736   11.4258  -24.9449 H   0  0  0  0  0  0  0  0  0  0  0  0
  -28.6397   10.0680  -24.8561 H   0  0  0  0  0  0  0  0  0  0  0  0
  -28.2784   11.5871  -23.9049 H   0  0  0  0  0  0  0  0  0  0  0  0
  -29.4241    9.8352  -22.4367 H   0  0  0  0  0  0  0  0  0  0  0  0
  -31.8294    7.5331  -22.9424 H   0  0  0  0  0  0  0  0  0  0  0  0
  -34.0126    9.4629  -19.7095 H   0  0  0  0  0  0  0  0  0  0  0  0
  -33.8495   11.8871  -21.0094 H   0  0  0  0  0  0  0  0  0  0  0  0
  -32.3809   12.1067  -21.9465 H   0  0  0  0  0  0  0  0  0  0  0  0
  -32.2444   12.0068  -20.1110 H   0  0  0  0  0  0  0  0  0  0  0  0
  -35.0872    5.2301  -20.8018 H   0  0  0  0  0  0  0  0  0  0  0  0
  -35.5765    6.8220  -21.4752 H   0  0  0  0  0  0  0  0  0  0  0  0
  -34.2488    5.1062  -25.7826 H   0  0  0  0  0  0  0  0  0  0  0  0
  -37.4157    5.2378  -25.9083 H   0  0  0  0  0  0  0  0  0  0  0  0
  -36.4391    3.5649  -26.3794 H   0  0  0  0  0  0  0  0  0  0  0  0
  -35.4614    4.6494  -28.2022 H   0  0  0  0  0  0  0  0  0  0  0  0
  -36.4365    6.3228  -27.7301 H   0  0  0  0  0  0  0  0  0  0  0  0
  -35.9716    9.0553  -27.5311 H   0  0  0  0  0  0  0  0  0  0  0  0
  -36.6571    7.4067  -27.7177 H   0  0  0  0  0  0  0  0  0  0  0  0
  1  2  1  0  0  0  0
  1 24  1  0  0  0  0
  1 25  1  0  0  0  0
  1 26  1  0  0  0  0
  2  3  1  0  0  0  0
  2 27  1  0  0  0  0
  3  4  2  0  0  0  0
  3  5  1  0  0  0  0
  5  9  1  0  0  0  0
  5  6  2  0  0  0  0
  6  7  1  0  0  0  0
  6 28  1  0  0  0  0
  7  8  2  0  0  0  0
  7 11  1  0  0  0  0
  8  9  1  0  0  0  0
  8 29  1  0  0  0  0
  9 10  1  0  0  0  0
 10 30  1  0  0  0  0
 10 31  1  0  0  0  0
 10 32  1  0  0  0  0
 11 12  2  0  0  0  0
 11 13  1  0  0  0  0
 13 14  1  0  0  0  0
 13 33  1  0  0  0  0
 13 34  1  0  0  0  0
 14 15  1  0  0  0  0
 15 19  1  0  0  0  0
 15 16  2  0  0  0  0
 16 17  1  0  0  0  0
 17 18  2  0  0  0  0
 18 19  1  0  0  0  0
 18 23  1  0  0  0  0
 19 20  1  0  0  0  0
 20 22  1  0  0  0  0
 20 21  1  0  0  0  0
 20 35  1  0  0  0  0
 21 22  1  0  0  0  0
 21 36  1  0  0  0  0
 21 37  1  0  0  0  0
 22 38  1  0  0  0  0
 22 39  1  0  0  0  0
 23 40  1  0  0  0  0
 23 41  1  0  0  0  0
M  END
> <Name>
ZINC31852179

> <reference>
BDB5228

> <quality>
0.683

> <status>
decoy

> <atoms in reference ligand area>
11

> <score>
-28.3068

$$$$
ZINC20236119
      BALL 1.4.0 (Jan  4 2012, 23:22:29)

 40 40  0999  0  0  0  0  0  0999 V2000
  -32.4608   15.0157  -21.3876 C   0  0  0  0  0  0  0  0  0  0  0  0
  -32.6309   14.5686  -19.9343 C   0  0  0  0  0  0  0  0  0  0  0  0
  -33.3257   12.8935  -19.8945 S   0  0  0  0  0  0  0  0  0  0  0  0
  -34.1510   12.7330  -18.7489 O   0  0  0  0  0  0  0  0  0  0  0  0
  -33.7977   12.5286  -21.1842 O   0  0  0  0  0  0  0  0  0  0  0  0
  -32.0283   11.9009  -19.6230 N   0  0  0  0  0  0  0  0  0  0  0  0
  -31.6945   11.4885  -18.2573 C   0  0  0  0  0  0  0  0  0  0  0  0
  -31.8808    9.9760  -18.1215 C   0  0  0  0  0  0  0  0  0  0  0  0
  -30.6028    9.3572  -17.7451 N   0  3  0  0  0  0  0  0  0  0  0  0
  -31.2506   11.4561  -20.6978 C   0  0  0  0  0  0  0  0  0  0  0  0
  -31.6758   10.3783  -21.4632 C   0  0  0  0  0  0  0  0  0  0  0  0
  -30.9114    9.9410  -22.5285 C   0  0  0  0  0  0  0  0  0  0  0  0
  -29.7138   10.5699  -22.8278 C   0  0  0  0  0  0  0  0  0  0  0  0
  -29.2823   11.6467  -22.0596 C   0  0  0  0  0  0  0  0  0  0  0  0
  -30.0512   12.0886  -20.9955 C   0  0  0  0  0  0  0  0  0  0  0  0
  -28.1073   12.2649  -22.3534 O   0  0  0  0  0  0  0  0  0  0  0  0
  -27.7271   13.3638  -21.5227 C   0  0  0  0  0  0  0  0  0  0  0  0
  -28.9595   10.1345  -23.8736 O   0  0  0  0  0  0  0  0  0  0  0  0
  -29.6215    9.3523  -24.8697 C   0  0  0  0  0  0  0  0  0  0  0  0
  -33.3981   14.8441  -21.9373 H   0  0  0  0  0  0  0  0  0  0  0  0
  -31.6502   14.4394  -21.8572 H   0  0  0  0  0  0  0  0  0  0  0  0
  -32.2116   16.0868  -21.4157 H   0  0  0  0  0  0  0  0  0  0  0  0
  -31.6519   14.5708  -19.4329 H   0  0  0  0  0  0  0  0  0  0  0  0
  -33.3109   15.2593  -19.4142 H   0  0  0  0  0  0  0  0  0  0  0  0
  -30.6481   11.7495  -18.0407 H   0  0  0  0  0  0  0  0  0  0  0  0
  -32.3560   12.0040  -17.5455 H   0  0  0  0  0  0  0  0  0  0  0  0
  -32.2204    9.5597  -19.0813 H   0  0  0  0  0  0  0  0  0  0  0  0
  -32.6315    9.7672  -17.3450 H   0  0  0  0  0  0  0  0  0  0  0  0
  -30.1215    9.9527  -17.0562 H   0  0  0  0  0  0  0  0  0  0  0  0
  -30.0108    9.2536  -18.5816 H   0  0  0  0  0  0  0  0  0  0  0  0
  -30.7780    8.4297  -17.3327 H   0  0  0  0  0  0  0  0  0  0  0  0
  -32.6220    9.8720  -21.2215 H   0  0  0  0  0  0  0  0  0  0  0  0
  -31.2542    9.0929  -23.1393 H   0  0  0  0  0  0  0  0  0  0  0  0
  -29.7117   12.9398  -20.3870 H   0  0  0  0  0  0  0  0  0  0  0  0
  -26.8370   13.8109  -21.9895 H   0  0  0  0  0  0  0  0  0  0  0  0
  -27.4212   12.9314  -20.5586 H   0  0  0  0  0  0  0  0  0  0  0  0
  -28.5332   14.1019  -21.3981 H   0  0  0  0  0  0  0  0  0  0  0  0
  -28.8304    8.8396  -25.4365 H   0  0  0  0  0  0  0  0  0  0  0  0
  -30.1132   10.0661  -25.5469 H   0  0  0  0  0  0  0  0  0  0  0  0
  -30.3407    8.6386  -24.4417 H   0  0  0  0  0  0  0  0  0  0  0  0
  1  2  1  0  0  0  0
  1 20  1  0  0  0  0
  1 21  1  0  0  0  0
  1 22  1  0  0  0  0
  2  3  1  0  0  0  0
  2 23  1  0  0  0  0
  2 24  1  0  0  0  0
  3  4  2  0  0  0  0
  3  5  2  0  0  0  0
  3  6  1  0  0  0  0
  6  7  1  0  0  0  0
  6 10  1  0  0  0  0
  7  8  1  0  0  0  0
  7 25  1  0  0  0  0
  7 26  1  0  0  0  0
  8  9  1  0  0  0  0
  8 27  1  0  0  0  0
  8 28  1  0  0  0  0
  9 29  1  0  0  0  0
  9 30  1  0  0  0  0
  9 31  1  0  0  0  0
 10 15  2  0  0  0  0
 10 11  1  0  0  0  0
 11 12  2  0  0  0  0
 11 32  1  0  0  0  0
 12 13  1  0  0  0  0
 12 33  1  0  0  0  0
 13 14  2  0  0  0  0
 13 18  1  0  0  0  0
 14 15  1  0  0  0  0
 14 16  1  0  0  0  0
 15 34  1  0  0  0  0
 16 17  1  0  0  0  0
 17 35  1  0  0  0  0
 17 36  1  0  0  0  0
 17 37  1  0  0  0  0
 18 19  1  0  0  0  0
 19 38  1  0  0  0  0
 19 39  1  0  0  0  0
 19 40  1  0  0  0  0
M  END
> <Name>
ZINC20236119

> <reference>
BDB5222

> <quality>
0.747

> <status>
decoy

> <atoms in reference ligand area>
22

> <score>
-28.1624

$$$$
ZINC02090323
      BALL 1.4.0 (Jan  4 2012, 23:22:29)

 45 46  0999  0  0  0  0  0  0999 V2000
  -35.4128    9.1150  -22.3134 C   0  0  0  0  0  0  0  0  0  0  0  0
  -35.5201    8.7130  -20.9087 N   0  0  0  0  0  0  0  0  0  0  0  0
  -36.6265    8.2613  -20.2866 C   0  0  0  0  0  0  0  0  0  0  0  0
  -36.3527    7.9990  -19.0340 N   0  0  0  0  0  0  0  0  0  0  0  0
  -35.0678    8.2656  -18.7863 C   0  0  0  0  0  0  0  0  0  0  0  0
  -34.5070    8.7257  -19.9711 C   0  0  0  0  0  0  0  0  0  0  0  0
  -33.1421    9.0851  -19.9919 C   0  0  0  0  0  0  0  0  0  0  0  0
  -32.6273    9.4909  -21.0184 O   0  0  0  0  0  0  0  0  0  0  0  0
  -32.4141    8.9734  -18.8611 N   0  0  0  0  0  0  0  0  0  0  0  0
  -32.9684    8.5215  -17.7231 C   0  0  0  0  0  0  0  0  0  0  0  0
  -32.2804    8.4294  -16.7246 O   0  0  0  0  0  0  0  0  0  0  0  0
  -34.2674    8.1729  -17.6592 N   0  0  0  0  0  0  0  0  0  0  0  0
  -34.8339    7.6902  -16.3975 C   0  0  0  0  0  0  0  0  0  0  0  0
  -30.9971    9.3447  -18.8758 C   0  0  0  0  0  0  0  0  0  0  0  0
  -30.8672   10.8655  -18.7697 C   0  0  0  0  0  0  0  0  0  0  0  0
  -29.1521   12.5375  -19.1235 C   0  0  0  0  0  0  0  0  0  0  0  0
  -27.6803   12.8726  -18.8734 C   0  0  0  0  0  0  0  0  0  0  0  0
  -27.3739   12.6706  -17.4923 O   0  0  0  0  0  0  0  0  0  0  0  0
  -29.4202   12.5110  -20.6296 C   0  0  0  0  0  0  0  0  0  0  0  0
  -28.2051   12.2242  -21.3247 O   0  0  0  0  0  0  0  0  0  0  0  0
  -30.0357   13.6000  -18.4668 C   0  0  0  0  0  0  0  0  0  0  0  0
  -29.2112   14.5744  -17.8243 O   0  0  0  0  0  0  0  0  0  0  0  0
  -29.4521   11.2151  -18.5430 N   0  3  0  0  0  0  0  0  0  0  0  0
  -36.3194    9.7223  -22.4522 H   0  0  0  0  0  0  0  0  0  0  0  0
  -35.6059    8.1698  -22.8420 H   0  0  0  0  0  0  0  0  0  0  0  0
  -34.4836    9.6186  -22.6182 H   0  0  0  0  0  0  0  0  0  0  0  0
  -37.6111    8.1325  -20.7599 H   0  0  0  0  0  0  0  0  0  0  0  0
  -35.4591    8.5176  -16.0303 H   0  0  0  0  0  0  0  0  0  0  0  0
  -33.9763    7.6036  -15.7141 H   0  0  0  0  0  0  0  0  0  0  0  0
  -35.3947    6.7485  -16.4897 H   0  0  0  0  0  0  0  0  0  0  0  0
  -30.4855    8.8732  -18.0238 H   0  0  0  0  0  0  0  0  0  0  0  0
  -30.5370    9.0028  -19.8147 H   0  0  0  0  0  0  0  0  0  0  0  0
  -31.2150   11.3303  -19.7040 H   0  0  0  0  0  0  0  0  0  0  0  0
  -31.4744   11.2293  -17.9277 H   0  0  0  0  0  0  0  0  0  0  0  0
  -27.4916   13.9229  -19.1403 H   0  0  0  0  0  0  0  0  0  0  0  0
  -27.0454   12.2181  -19.4888 H   0  0  0  0  0  0  0  0  0  0  0  0
  -27.8285   11.8530  -17.1685 H   0  0  0  0  0  0  0  0  0  0  0  0
  -29.8041   13.4901  -20.9521 H   0  0  0  0  0  0  0  0  0  0  0  0
  -30.1640   11.7328  -20.8560 H   0  0  0  0  0  0  0  0  0  0  0  0
  -27.9445   11.2833  -21.1612 H   0  0  0  0  0  0  0  0  0  0  0  0
  -30.6516   14.0906  -19.2348 H   0  0  0  0  0  0  0  0  0  0  0  0
  -30.6896   13.1246  -17.7209 H   0  0  0  0  0  0  0  0  0  0  0  0
  -28.4490   14.1233  -17.3821 H   0  0  0  0  0  0  0  0  0  0  0  0
  -29.2637   11.2366  -17.5306 H   0  0  0  0  0  0  0  0  0  0  0  0
  -28.8494   10.5052  -18.9831 H   0  0  0  0  0  0  0  0  0  0  0  0
  1  2  1  0  0  0  0
  1 24  1  0  0  0  0
  1 25  1  0  0  0  0
  1 26  1  0  0  0  0
  2  6  1  0  0  0  0
  2  3  1  0  0  0  0
  3  4  2  0  0  0  0
  3 27  1  0  0  0  0
  4  5  1  0  0  0  0
  5 12  1  0  0  0  0
  5  6  2  0  0  0  0
  6  7  1  0  0  0  0
  7  8  2  0  0  0  0
  7  9  1  0  0  0  0
  9 10  1  0  0  0  0
  9 14  1  0  0  0  0
 10 11  2  0  0  0  0
 10 12  1  0  0  0  0
 12 13  1  0  0  0  0
 13 28  1  0  0  0  0
 13 29  1  0  0  0  0
 13 30  1  0  0  0  0
 14 15  1  0  0  0  0
 14 31  1  0  0  0  0
 14 32  1  0  0  0  0
 15 23  1  0  0  0  0
 15 33  1  0  0  0  0
 15 34  1  0  0  0  0
 16 17  1  0  0  0  0
 16 19  1  0  0  0  0
 16 21  1  0  0  0  0
 16 23  1  0  0  0  0
 17 18  1  0  0  0  0
 17 35  1  0  0  0  0
 17 36  1  0  0  0  0
 18 37  1  0  0  0  0
 19 20  1  0  0  0  0
 19 38  1  0  0  0  0
 19 39  1  0  0  0  0
 20 40  1  0  0  0  0
 21 22  1  0  0  0  0
 21 41  1  0  0  0  0
 21 42  1  0  0  0  0
 22 43  1  0  0  0  0
 23 44  1  0  0  0  0
 23 45  1  0  0  0  0
M  END
> <Name>
ZINC02090323

> <reference>
BDB5024

> <quality>
0.751

> <status>
decoy

> <atoms in reference ligand area>
19

> <score>
-28.0297

$$$$
ZINC21991926
      BALL 1.4.0 (Jan  4 2012, 23:22:29)

 42 42  0999  0  0  0  0  0  0999 V2000
  -29.4345    2.9641  -23.1332 C   0  0  0  0  0  0  0  0  0  0  0  0
  -30.4448    3.8786  -23.7766 C   0  0  0  0  0  0  0  0  0  0  0  0
  -30.0355    4.8141  -24.7085 C   0  0  0  0  0  0  0  0  0  0  0  0
  -30.9623    5.6529  -25.2986 C   0  0  0  0  0  0  0  0  0  0  0  0
  -32.2985    5.5558  -24.9576 C   0  0  0  0  0  0  0  0  0  0  0  0
  -32.7070    4.6236  -24.0222 C   0  0  0  0  0  0  0  0  0  0  0  0
  -31.7809    3.7818  -23.4352 C   0  0  0  0  0  0  0  0  0  0  0  0
  -33.4798    6.6250  -25.7099 S   0  0  0  0  0  0  0  0  0  0  0  0
  -34.7609    6.0831  -25.4195 O   0  0  0  0  0  0  0  0  0  0  0  0
  -33.0326    6.8529  -27.0393 O   0  0  0  0  0  0  0  0  0  0  0  0
  -33.3925    8.0806  -24.9251 N   0  0  0  0  0  0  0  0  0  0  0  0
  -32.1891    8.7383  -24.8282 C   0  0  0  0  0  0  0  0  0  0  0  0
  -31.1169    8.2162  -25.3541 N   0  0  0  0  0  0  0  0  0  0  0  0
  -32.1167    9.9468  -24.1766 N   0  0  0  0  0  0  0  0  0  0  0  0
  -31.0938   10.1659  -23.1511 C   0  0  0  0  0  0  0  0  0  0  0  0
  -31.3814   11.4763  -22.4155 C   0  0  0  0  0  0  0  0  0  0  0  0
  -32.6341   11.3126  -21.5526 C   0  0  0  0  0  0  0  0  0  0  0  0
  -33.0657   12.6786  -21.0156 C   0  0  0  0  0  0  0  0  0  0  0  0
  -32.0067   13.2097  -20.0842 C   0  0  0  0  0  0  0  0  0  0  0  0
  -30.8377   13.0638  -20.3528 O   0  0  0  0  0  0  0  0  0  0  0  0
  -32.3620   13.8450  -18.9564 O   0  5  0  0  0  0  0  0  0  0  0  0
  -33.2446   13.6112  -22.1364 N   0  3  0  0  0  0  0  0  0  0  0  0
  -29.0297    2.3599  -23.9584 H   0  0  0  0  0  0  0  0  0  0  0  0
  -30.0249    2.2896  -22.4956 H   0  0  0  0  0  0  0  0  0  0  0  0
  -28.6488    3.4925  -22.5732 H   0  0  0  0  0  0  0  0  0  0  0  0
  -28.9724    4.8911  -24.9803 H   0  0  0  0  0  0  0  0  0  0  0  0
  -30.6366    6.3978  -26.0396 H   0  0  0  0  0  0  0  0  0  0  0  0
  -33.7691    4.5515  -23.7450 H   0  0  0  0  0  0  0  0  0  0  0  0
  -32.1071    3.0349  -22.6965 H   0  0  0  0  0  0  0  0  0  0  0  0
  -30.5235    7.5863  -24.7954 H   0  0  0  0  0  0  0  0  0  0  0  0
  -30.8630    8.4334  -26.3284 H   0  0  0  0  0  0  0  0  0  0  0  0
  -32.7817   10.6981  -24.4096 H   0  0  0  0  0  0  0  0  0  0  0  0
  -31.1093    9.3323  -22.4335 H   0  0  0  0  0  0  0  0  0  0  0  0
  -30.1032   10.2227  -23.6259 H   0  0  0  0  0  0  0  0  0  0  0  0
  -30.5256   11.7322  -21.7737 H   0  0  0  0  0  0  0  0  0  0  0  0
  -31.5441   12.2810  -23.1477 H   0  0  0  0  0  0  0  0  0  0  0  0
  -32.4148   10.6407  -20.7097 H   0  0  0  0  0  0  0  0  0  0  0  0
  -33.4451   10.8853  -22.1607 H   0  0  0  0  0  0  0  0  0  0  0  0
  -34.0152   12.5748  -20.4699 H   0  0  0  0  0  0  0  0  0  0  0  0
  -33.6928   14.4746  -21.7978 H   0  0  0  0  0  0  0  0  0  0  0  0
  -33.8395   13.1754  -22.8555 H   0  0  0  0  0  0  0  0  0  0  0  0
  -32.3265   13.8392  -22.5440 H   0  0  0  0  0  0  0  0  0  0  0  0
  1  2  1  0  0  0  0
  1 23  1  0  0  0  0
  1 24  1  0  0  0  0
  1 25  1  0  0  0  0
  2  7  2  0  0  0  0
  2  3  1  0  0  0  0
  3  4  2  0  0  0  0
  3 26  1  0  0  0  0
  4  5  1  0  0  0  0
  4 27  1  0  0  0  0
  5  6  2  0  0  0  0
  5  8  1  0  0  0  0
  6  7  1  0  0  0  0
  6 28  1  0  0  0  0
  7 29  1  0  0  0  0
  8  9  2  0  0  0  0
  8 10  2  0  0  0  0
  8 11  1  0  0  0  0
 11 12  2  0  0  0  0
 12 13  1  0  0  0  0
 12 14  1  0  0  0  0
 13 30  1  0  0  0  0
 13 31  1  0  0  0  0
 14 15  1  0  0  0  0
 14 32  1  0  0  0  0
 15 16  1  0  0  0  0
 15 33  1  0  0  0  0
 15 34  1  0  0  0  0
 16 17  1  0  0  0  0
 16 35  1  0  0  0  0
 16 36  1  0  0  0  0
 17 18  1  0  0  0  0
 17 37  1  0  0  0  0
 17 38  1  0  0  0  0
 18 19  1  0  0  0  0
 18 22  1  0  0  0  0
 18 39  1  0  0  0  0
 19 20  2  0  0  0  0
 19 21  1  0  0  0  0
 22 40  1  0  0  0  0
 22 41  1  0  0  0  0
 22 42  1  0  0  0  0
M  END
> <Name>
ZINC21991926

> <reference>
BDB5024

> <quality>
0.756

> <status>
decoy

> <atoms in reference ligand area>
18

> <score>
-28.0132

$$$$
ZINC31576049
      BALL 1.4.0 (Jan  4 2012, 23:22:29)

 51 52  0999  0  0  0  0  0  0999 V2000
  -26.7802    6.7932  -15.0683 C   0  0  0  0  0  0  0  0  0  0  0  0
  -28.0375    7.2270  -15.6920 N   0  3  0  0  0  0  0  0  0  0  0  0
  -27.9009    7.3059  -17.1525 C   0  0  0  0  0  0  0  0  0  0  0  0
  -29.1461    6.3405  -15.3140 C   0  0  0  0  0  0  0  0  0  0  0  0
  -30.4760    7.0014  -15.6822 C   0  0  0  0  0  0  0  0  0  0  0  0
  -31.0531    6.3268  -16.9283 C   0  0  0  0  0  0  0  0  0  0  0  0
  -32.4263    6.7897  -17.1426 N   0  0  0  0  0  0  0  0  0  0  0  0
  -32.7214    7.6247  -18.2228 C   0  0  0  0  0  0  0  0  0  0  0  0
  -32.7980    7.1007  -19.5072 C   0  0  0  0  0  0  0  0  0  0  0  0
  -33.0955    7.9279  -20.5721 C   0  0  0  0  0  0  0  0  0  0  0  0
  -33.3067    9.2785  -20.3625 C   0  0  0  0  0  0  0  0  0  0  0  0
  -33.2313    9.8033  -19.0856 C   0  0  0  0  0  0  0  0  0  0  0  0
  -32.9392    8.9806  -18.0152 C   0  0  0  0  0  0  0  0  0  0  0  0
  -32.8591    9.5432  -16.6486 N   0  0  0  0  0  0  0  0  0  0  0  0
  -31.8379    9.4168  -15.9969 O   0  0  0  0  0  0  0  0  0  0  0  0
  -33.8143   10.1327  -16.1757 O   0  0  0  0  0  0  0  0  0  0  0  0
  -33.6800   10.3315  -21.7251 S   0  0  0  0  0  0  0  0  0  0  0  0
  -35.0954   10.4484  -21.7721 O   0  0  0  0  0  0  0  0  0  0  0  0
  -32.9178    9.8565  -22.8262 O   0  0  0  0  0  0  0  0  0  0  0  0
  -33.0929   11.8355  -21.3567 N   0  0  0  0  0  0  0  0  0  0  0  0
  -33.9844   12.8960  -20.8606 C   0  0  0  0  0  0  0  0  0  0  0  0
  -33.3617   13.4881  -19.5861 C   0  0  0  0  0  0  0  0  0  0  0  0
  -32.0111   13.8703  -19.8580 O   0  0  0  0  0  0  0  0  0  0  0  0
  -31.1568   12.7827  -20.2200 C   0  0  0  0  0  0  0  0  0  0  0  0
  -31.6655   12.1528  -21.5217 C   0  0  0  0  0  0  0  0  0  0  0  0
  -30.2607    8.3889  -15.9482 O   0  0  0  0  0  0  0  0  0  0  0  0
  -26.0973    7.6535  -15.0095 H   0  0  0  0  0  0  0  0  0  0  0  0
  -26.3233    6.0130  -15.6948 H   0  0  0  0  0  0  0  0  0  0  0  0
  -26.9731    6.3985  -14.0598 H   0  0  0  0  0  0  0  0  0  0  0  0
  -28.2545    8.1715  -15.3430 H   0  0  0  0  0  0  0  0  0  0  0  0
  -27.0050    7.8966  -17.3944 H   0  0  0  0  0  0  0  0  0  0  0  0
  -28.7869    7.8100  -17.5657 H   0  0  0  0  0  0  0  0  0  0  0  0
  -27.8107    6.2966  -17.5805 H   0  0  0  0  0  0  0  0  0  0  0  0
  -29.0512    5.3850  -15.8508 H   0  0  0  0  0  0  0  0  0  0  0  0
  -29.1168    6.1565  -14.2300 H   0  0  0  0  0  0  0  0  0  0  0  0
  -31.1828    6.8935  -14.8463 H   0  0  0  0  0  0  0  0  0  0  0  0
  -30.4388    6.5856  -17.8033 H   0  0  0  0  0  0  0  0  0  0  0  0
  -31.0523    5.2356  -16.7895 H   0  0  0  0  0  0  0  0  0  0  0  0
  -33.1743    6.4996  -16.4966 H   0  0  0  0  0  0  0  0  0  0  0  0
  -32.6218    6.0280  -19.6756 H   0  0  0  0  0  0  0  0  0  0  0  0
  -33.1645    7.5122  -21.5881 H   0  0  0  0  0  0  0  0  0  0  0  0
  -33.4040   10.8773  -18.9220 H   0  0  0  0  0  0  0  0  0  0  0  0
  -34.9716   12.4715  -20.6259 H   0  0  0  0  0  0  0  0  0  0  0  0
  -34.0837   13.6829  -21.6228 H   0  0  0  0  0  0  0  0  0  0  0  0
  -33.9371   14.3715  -19.2721 H   0  0  0  0  0  0  0  0  0  0  0  0
  -33.3756   12.7345  -18.7849 H   0  0  0  0  0  0  0  0  0  0  0  0
  -30.1320   13.1540  -20.3685 H   0  0  0  0  0  0  0  0  0  0  0  0
  -31.1630   12.0273  -19.4204 H   0  0  0  0  0  0  0  0  0  0  0  0
  -31.1033   11.2304  -21.7291 H   0  0  0  0  0  0  0  0  0  0  0  0
  -31.5375   12.8650  -22.3502 H   0  0  0  0  0  0  0  0  0  0  0  0
  -29.4986    8.7153  -15.4072 H   0  0  0  0  0  0  0  0  0  0  0  0
  1  2  1  0  0  0  0
  1 27  1  0  0  0  0
  1 28  1  0  0  0  0
  1 29  1  0  0  0  0
  2  3  1  0  0  0  0
  2  4  1  0  0  0  0
  2 30  1  0  0  0  0
  3 31  1  0  0  0  0
  3 32  1  0  0  0  0
  3 33  1  0  0  0  0
  4  5  1  0  0  0  0
  4 34  1  0  0  0  0
  4 35  1  0  0  0  0
  5  6  1  0  0  0  0
  5 26  1  0  0  0  0
  5 36  1  0  0  0  0
  6  7  1  0  0  0  0
  6 37  1  0  0  0  0
  6 38  1  0  0  0  0
  7  8  1  0  0  0  0
  7 39  1  0  0  0  0
  8 13  2  0  0  0  0
  8  9  1  0  0  0  0
  9 10  2  0  0  0  0
  9 40  1  0  0  0  0
 10 11  1  0  0  0  0
 10 41  1  0  0  0  0
 11 12  2  0  0  0  0
 11 17  1  0  0  0  0
 12 13  1  0  0  0  0
 12 42  1  0  0  0  0
 13 14  1  0  0  0  0
 14 15  2  0  0  0  0
 14 16  2  0  0  0  0
 17 18  2  0  0  0  0
 17 19  2  0  0  0  0
 17 20  1  0  0  0  0
 20 25  1  0  0  0  0
 20 21  1  0  0  0  0
 21 22  1  0  0  0  0
 21 43  1  0  0  0  0
 21 44  1  0  0  0  0
 22 23  1  0  0  0  0
 22 45  1  0  0  0  0
 22 46  1  0  0  0  0
 23 24  1  0  0  0  0
 24 25  1  0  0  0  0
 24 47  1  0  0  0  0
 24 48  1  0  0  0  0
 25 49  1  0  0  0  0
 25 50  1  0  0  0  0
 26 51  1  0  0  0  0
M  END
> <Name>
ZINC31576049

> <reference>
BDB4945

> <quality>
0.852

> <status>
decoy

> <atoms in reference ligand area>
15

> <score>
-27.8213

$$$$
ZINC26764321
      BALL 1.4.0 (Jan  4 2012, 23:22:29)

 41 41  0999  0  0  0  0  0  0999 V2000
  -28.7153   12.0774  -22.3913 C   0  0  0  0  0  0  0  0  0  0  0  0
  -29.6472   11.0070  -21.8844 C   0  0  0  0  0  0  0  0  0  0  0  0
  -30.1932   11.1071  -20.6212 C   0  0  0  0  0  0  0  0  0  0  0  0
  -31.0529   10.1281  -20.1564 C   0  0  0  0  0  0  0  0  0  0  0  0
  -31.3623    9.0370  -20.9494 C   0  0  0  0  0  0  0  0  0  0  0  0
  -30.8233    8.9249  -22.2141 C   0  0  0  0  0  0  0  0  0  0  0  0
  -29.9596    9.9121  -22.6914 C   0  0  0  0  0  0  0  0  0  0  0  0
  -29.3779    9.7982  -24.0459 C   0  0  0  0  0  0  0  0  0  0  0  0
  -29.0668    8.7079  -24.4839 O   0  0  0  0  0  0  0  0  0  0  0  0
  -29.1925   10.9032  -24.7948 N   0  0  0  0  0  0  0  0  0  0  0  0
  -32.4528    7.7920  -20.3449 S   0  0  0  0  0  0  0  0  0  0  0  0
  -33.1231    8.3491  -19.2226 O   0  0  0  0  0  0  0  0  0  0  0  0
  -31.6943    6.5933  -20.2614 O   0  0  0  0  0  0  0  0  0  0  0  0
  -33.6046    7.5431  -21.5085 N   0  0  0  0  0  0  0  0  0  0  0  0
  -33.5070    8.2357  -22.7957 C   0  0  0  0  0  0  0  0  0  0  0  0
  -34.4364    7.5854  -23.7878 C   0  0  0  0  0  0  0  0  0  0  0  0
  -34.9753    6.5337  -23.5147 O   0  0  0  0  0  0  0  0  0  0  0  0
  -34.6686    8.1722  -24.9787 N   0  0  0  0  0  0  0  0  0  0  0  0
  -35.5721    7.5399  -25.9431 C   0  0  0  0  0  0  0  0  0  0  0  0
  -34.9978    7.6888  -27.3535 C   0  0  0  0  0  0  0  0  0  0  0  0
  -36.0588    7.6267  -28.3088 O   0  0  0  0  0  0  0  0  0  0  0  0
  -35.6302    7.3039  -29.6332 C   0  0  0  0  0  0  0  0  0  0  0  0
  -28.5267   11.8159  -23.4430 H   0  0  0  0  0  0  0  0  0  0  0  0
  -27.7745   11.9183  -21.8440 H   0  0  0  0  0  0  0  0  0  0  0  0
  -29.1038   13.0998  -22.2741 H   0  0  0  0  0  0  0  0  0  0  0  0
  -29.9443   11.9673  -19.9823 H   0  0  0  0  0  0  0  0  0  0  0  0
  -31.4926   10.2174  -19.1521 H   0  0  0  0  0  0  0  0  0  0  0  0
  -31.0736    8.0594  -22.8451 H   0  0  0  0  0  0  0  0  0  0  0  0
  -29.8202   11.7122  -24.6833 H   0  0  0  0  0  0  0  0  0  0  0  0
  -28.4232   10.9388  -25.4788 H   0  0  0  0  0  0  0  0  0  0  0  0
  -34.3896    6.9013  -21.3272 H   0  0  0  0  0  0  0  0  0  0  0  0
  -32.4738    8.1756  -23.1684 H   0  0  0  0  0  0  0  0  0  0  0  0
  -33.7895    9.2910  -22.6668 H   0  0  0  0  0  0  0  0  0  0  0  0
  -34.2108    9.0652  -25.2107 H   0  0  0  0  0  0  0  0  0  0  0  0
  -36.5581    8.0254  -25.8964 H   0  0  0  0  0  0  0  0  0  0  0  0
  -35.6773    6.4719  -25.7015 H   0  0  0  0  0  0  0  0  0  0  0  0
  -34.4837    8.6575  -27.4398 H   0  0  0  0  0  0  0  0  0  0  0  0
  -34.2829    6.8756  -27.5472 H   0  0  0  0  0  0  0  0  0  0  0  0
  -35.4540    6.2187  -29.6694 H   0  0  0  0  0  0  0  0  0  0  0  0
  -34.6732    7.8177  -29.8065 H   0  0  0  0  0  0  0  0  0  0  0  0
  -36.3762    7.6039  -30.3838 H   0  0  0  0  0  0  0  0  0  0  0  0
  1  2  1  0  0  0  0
  1 23  1  0  0  0  0
  1 24  1  0  0  0  0
  1 25  1  0  0  0  0
  2  7  2  0  0  0  0
  2  3  1  0  0  0  0
  3  4  2  0  0  0  0
  3 26  1  0  0  0  0
  4  5  1  0  0  0  0
  4 27  1  0  0  0  0
  5  6  2  0  0  0  0
  5 11  1  0  0  0  0
  6  7  1  0  0  0  0
  6 28  1  0  0  0  0
  7  8  1  0  0  0  0
  8  9  2  0  0  0  0
  8 10  1  0  0  0  0
 10 29  1  0  0  0  0
 10 30  1  0  0  0  0
 11 12  2  0  0  0  0
 11 13  2  0  0  0  0
 11 14  1  0  0  0  0
 14 15  1  0  0  0  0
 14 31  1  0  0  0  0
 15 16  1  0  0  0  0
 15 32  1  0  0  0  0
 15 33  1  0  0  0  0
 16 17  2  0  0  0  0
 16 18  1  0  0  0  0
 18 19  1  0  0  0  0
 18 34  1  0  0  0  0
 19 20  1  0  0  0  0
 19 35  1  0  0  0  0
 19 36  1  0  0  0  0
 20 21  1  0  0  0  0
 20 37  1  0  0  0  0
 20 38  1  0  0  0  0
 21 22  1  0  0  0  0
 22 39  1  0  0  0  0
 22 40  1  0  0  0  0
 22 41  1  0  0  0  0
M  END
> <Name>
ZINC26764321

> <reference>
BDB5024

> <quality>
0.665

> <status>
decoy

> <atoms in reference ligand area>
11

> <score>
-27.7617

$$$$
ZINC00399536
      BALL 1.4.0 (Jan  4 2012, 23:22:29)

 40 41  0999  0  0  0  0  0  0999 V2000
  -27.1139    6.1696  -15.0162 C   0  0  0  0  0  0  0  0  0  0  0  0
  -27.0885    6.9736  -16.1403 C   0  0  0  0  0  0  0  0  0  0  0  0
  -28.2699    7.3222  -16.7676 C   0  0  0  0  0  0  0  0  0  0  0  0
  -29.4769    6.8674  -16.2704 C   0  0  0  0  0  0  0  0  0  0  0  0
  -29.5027    6.0681  -15.1428 C   0  0  0  0  0  0  0  0  0  0  0  0
  -28.3209    5.7150  -14.5187 C   0  0  0  0  0  0  0  0  0  0  0  0
  -30.7649    7.2479  -16.9539 C   0  0  0  0  0  0  0  0  0  0  0  0
  -31.0243    8.6612  -16.7453 O   0  0  0  0  0  0  0  0  0  0  0  0
  -31.7410    8.9966  -15.6570 C   0  0  0  0  0  0  0  0  0  0  0  0
  -31.6854    8.3087  -14.6578 O   0  0  0  0  0  0  0  0  0  0  0  0
  -32.5150   10.0973  -15.6740 O   0  0  0  0  0  0  0  0  0  0  0  0
  -32.1709   11.0803  -16.5477 C   0  0  0  0  0  0  0  0  0  0  0  0
  -31.9220   12.3644  -16.0857 C   0  0  0  0  0  0  0  0  0  0  0  0
  -31.5684   13.3607  -16.9750 C   0  0  0  0  0  0  0  0  0  0  0  0
  -31.4723   13.0811  -18.3257 C   0  0  0  0  0  0  0  0  0  0  0  0
  -31.7246   11.8031  -18.7891 C   0  0  0  0  0  0  0  0  0  0  0  0
  -32.0739   10.8023  -17.9033 C   0  0  0  0  0  0  0  0  0  0  0  0
  -31.0924   14.1712  -19.2944 C   0  0  0  0  0  0  0  0  0  0  0  0
  -32.3565   14.8761  -19.7904 C   0  0  0  0  0  0  0  0  0  0  0  0
  -32.0118   16.2760  -20.2289 C   0  0  0  0  0  0  0  0  0  0  0  0
  -32.8279   16.9417  -20.8212 O   0  0  0  0  0  0  0  0  0  0  0  0
  -30.7983   16.7835  -19.9615 O   0  5  0  0  0  0  0  0  0  0  0  0
  -32.9223   14.1093  -20.9143 N   0  3  0  0  0  0  0  0  0  0  0  0
  -26.1737    5.8915  -14.5175 H   0  0  0  0  0  0  0  0  0  0  0  0
  -26.1281    7.3359  -16.5357 H   0  0  0  0  0  0  0  0  0  0  0  0
  -28.2496    7.9616  -17.6625 H   0  0  0  0  0  0  0  0  0  0  0  0
  -30.4637    5.7130  -14.7423 H   0  0  0  0  0  0  0  0  0  0  0  0
  -28.3410    5.0724  -13.6261 H   0  0  0  0  0  0  0  0  0  0  0  0
  -30.6815    7.0462  -18.0321 H   0  0  0  0  0  0  0  0  0  0  0  0
  -31.5926    6.6580  -16.5335 H   0  0  0  0  0  0  0  0  0  0  0  0
  -32.0061   12.5892  -15.0123 H   0  0  0  0  0  0  0  0  0  0  0  0
  -31.3631   14.3773  -16.6083 H   0  0  0  0  0  0  0  0  0  0  0  0
  -31.6472   11.5832  -19.8641 H   0  0  0  0  0  0  0  0  0  0  0  0
  -32.2748    9.7858  -18.2725 H   0  0  0  0  0  0  0  0  0  0  0  0
  -30.5581   13.7329  -20.1502 H   0  0  0  0  0  0  0  0  0  0  0  0
  -30.4410   14.8998  -18.7896 H   0  0  0  0  0  0  0  0  0  0  0  0
  -33.1001   14.9339  -18.9818 H   0  0  0  0  0  0  0  0  0  0  0  0
  -32.2335   14.0509  -21.6778 H   0  0  0  0  0  0  0  0  0  0  0  0
  -33.7773   14.5714  -21.2557 H   0  0  0  0  0  0  0  0  0  0  0  0
  -33.1552   13.1585  -20.5940 H   0  0  0  0  0  0  0  0  0  0  0  0
  1  6  2  0  0  0  0
  1  2  1  0  0  0  0
  1 24  1  0  0  0  0
  2  3  2  0  0  0  0
  2 25  1  0  0  0  0
  3  4  1  0  0  0  0
  3 26  1  0  0  0  0
  4  5  2  0  0  0  0
  4  7  1  0  0  0  0
  5  6  1  0  0  0  0
  5 27  1  0  0  0  0
  6 28  1  0  0  0  0
  7  8  1  0  0  0  0
  7 29  1  0  0  0  0
  7 30  1  0  0  0  0
  8  9  1  0  0  0  0
  9 10  2  0  0  0  0
  9 11  1  0  0  0  0
 11 12  1  0  0  0  0
 12 17  2  0  0  0  0
 12 13  1  0  0  0  0
 13 14  2  0  0  0  0
 13 31  1  0  0  0  0
 14 15  1  0  0  0  0
 14 32  1  0  0  0  0
 15 16  2  0  0  0  0
 15 18  1  0  0  0  0
 16 17  1  0  0  0  0
 16 33  1  0  0  0  0
 17 34  1  0  0  0  0
 18 19  1  0  0  0  0
 18 35  1  0  0  0  0
 18 36  1  0  0  0  0
 19 20  1  0  0  0  0
 19 23  1  0  0  0  0
 19 37  1  0  0  0  0
 20 21  2  0  0  0  0
 20 22  1  0  0  0  0
 23 38  1  0  0  0  0
 23 39  1  0  0  0  0
 23 40  1  0  0  0  0
M  END
> <Name>
ZINC00399536

> <reference>
BDB5023

> <quality>
0.670

> <status>
decoy

> <atoms in reference ligand area>
10

> <score>
-27.7543

$$$$
ZINC20395712
      BALL 1.4.0 (Jan  4 2012, 23:22:29)

 26 26  0999  0  0  0  0  0  0999 V2000
  -35.2632    8.4518  -25.8636 C   0  0  0  0  0  0  0  0  0  0  0  0
  -35.3435    7.5933  -24.5998 C   0  0  0  0  0  0  0  0  0  0  0  0
  -33.8861    7.9031  -23.5649 S   0  0  0  0  0  0  0  0  0  0  0  0
  -32.9359    9.1319  -24.5017 C   0  0  0  0  0  0  0  0  0  0  0  0
  -31.9794    9.8392  -23.5766 C   0  0  0  0  0  0  0  0  0  0  0  0
  -32.0666    9.9039  -22.2782 N   0  0  0  0  0  0  0  0  0  0  0  0
  -31.0855   10.5850  -21.8034 N   0  0  0  0  0  0  0  0  0  0  0  0
  -30.3126   10.9953  -22.7820 C   0  0  0  0  0  0  0  0  0  0  0  0
  -30.8592   10.5320  -23.9444 N   0  0  0  0  0  0  0  0  0  0  0  0
  -30.3853   10.7213  -25.2115 N   0  0  0  0  0  0  0  0  0  0  0  0
  -28.8437   11.9557  -22.6248 S   0  0  0  0  0  0  0  0  0  0  0  0
  -29.3618   13.1132  -21.3334 C   0  0  0  0  0  0  0  0  0  0  0  0
  -28.2312   14.0605  -21.0249 C   0  0  0  0  0  0  0  0  0  0  0  0
  -28.1171   14.5239  -19.9148 O   0  0  0  0  0  0  0  0  0  0  0  0
  -27.3508   14.3895  -21.9832 O   0  5  0  0  0  0  0  0  0  0  0  0
  -34.8781    9.4497  -25.6066 H   0  0  0  0  0  0  0  0  0  0  0  0
  -36.2655    8.5490  -26.3065 H   0  0  0  0  0  0  0  0  0  0  0  0
  -34.5877    7.9752  -26.5893 H   0  0  0  0  0  0  0  0  0  0  0  0
  -36.2531    7.8516  -24.0379 H   0  0  0  0  0  0  0  0  0  0  0  0
  -35.3746    6.5297  -24.8790 H   0  0  0  0  0  0  0  0  0  0  0  0
  -33.6231    9.8657  -24.9484 H   0  0  0  0  0  0  0  0  0  0  0  0
  -32.3694    8.6278  -25.2986 H   0  0  0  0  0  0  0  0  0  0  0  0
  -29.7368   11.5143  -25.3182 H   0  0  0  0  0  0  0  0  0  0  0  0
  -30.6445   10.1276  -26.0122 H   0  0  0  0  0  0  0  0  0  0  0  0
  -29.6294   12.5545  -20.4244 H   0  0  0  0  0  0  0  0  0  0  0  0
  -30.2341   13.6855  -21.6822 H   0  0  0  0  0  0  0  0  0  0  0  0
  1  2  1  0  0  0  0
  1 16  1  0  0  0  0
  1 17  1  0  0  0  0
  1 18  1  0  0  0  0
  2  3  1  0  0  0  0
  2 19  1  0  0  0  0
  2 20  1  0  0  0  0
  3  4  1  0  0  0  0
  4  5  1  0  0  0  0
  4 21  1  0  0  0  0
  4 22  1  0  0  0  0
  5  9  1  0  0  0  0
  5  6  2  0  0  0  0
  6  7  1  0  0  0  0
  7  8  2  0  0  0  0
  8  9  1  0  0  0  0
  8 11  1  0  0  0  0
  9 10  1  0  0  0  0
 10 23  1  0  0  0  0
 10 24  1  0  0  0  0
 11 12  1  0  0  0  0
 12 13  1  0  0  0  0
 12 25  1  0  0  0  0
 12 26  1  0  0  0  0
 13 14  2  0  0  0  0
 13 15  1  0  0  0  0
M  END
> <Name>
ZINC20395712

> <reference>
BDB5015

> <quality>
0.712

> <status>
decoy

> <atoms in reference ligand area>
10

> <score>
-27.7296

$$$$
ZINC31259784
      BALL 1.4.0 (Jan  4 2012, 23:22:29)

 34 36  0999  0  0  0  0  0  0999 V2000
  -33.4865    8.6724  -24.1240 C   0  0  0  0  0  0  0  0  0  0  0  0
  -34.7437    8.3527  -24.2682 C   0  0  0  0  0  0  0  0  0  0  0  0
  -35.4535    8.3214  -22.9345 C   0  0  0  0  0  0  0  0  0  0  0  0
  -34.5162    9.0876  -21.9725 C   0  0  0  0  0  0  0  0  0  0  0  0
  -33.1481    8.9076  -22.6704 C   0  0  0  0  0  0  0  0  0  0  0  0
  -32.3354   10.1226  -22.5242 N   0  3  0  0  0  0  0  0  0  0  0  0
  -32.1914   10.4925  -21.1098 C   0  0  0  0  0  0  0  0  0  0  0  0
  -30.9997   11.4005  -20.9469 C   0  0  0  0  0  0  0  0  0  0  0  0
  -31.0231   12.7416  -20.7441 C   0  0  0  0  0  0  0  0  0  0  0  0
  -29.6066   13.1725  -20.6469 C   0  0  0  0  0  0  0  0  0  0  0  0
  -29.3663   14.4424  -20.4460 N   0  0  0  0  0  0  0  0  0  0  0  0
  -30.3694   15.3436  -20.3244 C   0  0  0  0  0  0  0  0  0  0  0  0
  -31.6451   15.0473  -20.3930 N   0  0  0  0  0  0  0  0  0  0  0  0
  -32.0627   13.7763  -20.5973 C   0  0  0  0  0  0  0  0  0  0  0  0
  -33.2466   13.4999  -20.6616 O   0  0  0  0  0  0  0  0  0  0  0  0
  -30.0288   16.6538  -20.1159 N   0  0  0  0  0  0  0  0  0  0  0  0
  -28.8282   12.0547  -20.8069 N   0  0  0  0  0  0  0  0  0  0  0  0
  -29.5746   11.0053  -20.9832 C   0  0  0  0  0  0  0  0  0  0  0  0
  -34.8760   10.4685  -21.8972 O   0  0  0  0  0  0  0  0  0  0  0  0
  -35.6253    6.9730  -22.4936 O   0  0  0  0  0  0  0  0  0  0  0  0
  -32.7676    8.7591  -24.9521 H   0  0  0  0  0  0  0  0  0  0  0  0
  -35.2237    8.1347  -25.2337 H   0  0  0  0  0  0  0  0  0  0  0  0
  -36.4566    8.7700  -22.9851 H   0  0  0  0  0  0  0  0  0  0  0  0
  -34.5436    8.7268  -20.9337 H   0  0  0  0  0  0  0  0  0  0  0  0
  -32.5650    8.0808  -22.2387 H   0  0  0  0  0  0  0  0  0  0  0  0
  -31.4023    9.9579  -22.9283 H   0  0  0  0  0  0  0  0  0  0  0  0
  -32.7856   10.8968  -23.0328 H   0  0  0  0  0  0  0  0  0  0  0  0
  -33.0988   11.0154  -20.7732 H   0  0  0  0  0  0  0  0  0  0  0  0
  -32.0455    9.5852  -20.5053 H   0  0  0  0  0  0  0  0  0  0  0  0
  -30.6981   17.3291  -19.7198 H   0  0  0  0  0  0  0  0  0  0  0  0
  -29.0792   16.9668  -20.3629 H   0  0  0  0  0  0  0  0  0  0  0  0
  -29.2036    9.9810  -21.1358 H   0  0  0  0  0  0  0  0  0  0  0  0
  -35.8075   10.5736  -22.2154 H   0  0  0  0  0  0  0  0  0  0  0  0
  -36.5917    6.7891  -22.3820 H   0  0  0  0  0  0  0  0  0  0  0  0
  1  5  1  0  0  0  0
  1  2  2  0  0  0  0
  1 21  1  0  0  0  0
  2  3  1  0  0  0  0
  2 22  1  0  0  0  0
  3  4  1  0  0  0  0
  3 20  1  0  0  0  0
  3 23  1  0  0  0  0
  4  5  1  0  0  0  0
  4 19  1  0  0  0  0
  4 24  1  0  0  0  0
  5  6  1  0  0  0  0
  5 25  1  0  0  0  0
  6  7  1  0  0  0  0
  6 26  1  0  0  0  0
  6 27  1  0  0  0  0
  7  8  1  0  0  0  0
  7 28  1  0  0  0  0
  7 29  1  0  0  0  0
  8 18  1  0  0  0  0
  8  9  2  0  0  0  0
  9 14  1  0  0  0  0
  9 10  1  0  0  0  0
 10 11  2  0  0  0  0
 10 17  1  0  0  0  0
 11 12  1  0  0  0  0
 12 13  2  0  0  0  0
 12 16  1  0  0  0  0
 13 14  1  0  0  0  0
 14 15  2  0  0  0  0
 16 30  1  0  0  0  0
 16 31  1  0  0  0  0
 17 18  2  0  0  0  0
 18 32  1  0  0  0  0
 19 33  1  0  0  0  0
 20 34  1  0  0  0  0
M  END
> <Name>
ZINC31259784

> <reference>
BDB5008

> <quality>
0.737

> <status>
decoy

> <atoms in reference ligand area>
12

> <score>
-27.6941

$$$$
ZINC31219731
      BALL 1.4.0 (Jan  4 2012, 23:22:29)

 46 47  0999  0  0  0  0  0  0999 V2000
  -26.1656    6.3505  -25.6771 C   0  0  0  0  0  0  0  0  0  0  0  0
  -27.6044    6.2494  -26.1874 C   0  0  0  0  0  0  0  0  0  0  0  0
  -28.7391    6.8966  -24.9288 S   0  0  0  0  0  0  0  0  0  0  0  0
  -28.2897    6.5323  -23.6308 O   0  0  0  0  0  0  0  0  0  0  0  0
  -29.0822    8.2434  -25.2251 O   0  0  0  0  0  0  0  0  0  0  0  0
  -30.1435    6.0458  -25.1439 N   0  0  0  0  0  0  0  0  0  0  0  0
  -31.3869    6.5169  -24.5288 C   0  0  0  0  0  0  0  0  0  0  0  0
  -31.9169    7.7219  -25.3086 C   0  0  0  0  0  0  0  0  0  0  0  0
  -31.9957    8.8830  -24.4187 N   0  0  0  0  0  0  0  0  0  0  0  0
  -32.0234    8.7074  -23.0827 C   0  0  0  0  0  0  0  0  0  0  0  0
  -31.9830    7.5842  -22.6155 O   0  0  0  0  0  0  0  0  0  0  0  0
  -32.1021    9.8667  -22.1943 C   0  0  0  0  0  0  0  0  0  0  0  0
  -32.5013    9.8396  -20.9631 N   0  0  0  0  0  0  0  0  0  0  0  0
  -32.4789   11.0821  -20.3328 N   0  0  0  0  0  0  0  0  0  0  0  0
  -32.0011   12.0933  -21.2888 C   0  0  0  0  0  0  0  0  0  0  0  0
  -31.7359   11.2839  -22.5733 C   0  0  0  0  0  0  0  0  0  0  0  0
  -30.7301   12.7350  -20.7950 C   0  0  0  0  0  0  0  0  0  0  0  0
  -30.5714   12.9321  -19.6088 O   0  0  0  0  0  0  0  0  0  0  0  0
  -29.7697   13.0898  -21.6714 N   0  0  0  0  0  0  0  0  0  0  0  0
  -32.8547   11.3284  -19.0103 C   0  0  0  0  0  0  0  0  0  0  0  0
  -33.3867   12.5623  -18.6563 C   0  0  0  0  0  0  0  0  0  0  0  0
  -33.7619   12.8018  -17.3493 C   0  0  0  0  0  0  0  0  0  0  0  0
  -33.5986   11.8170  -16.3892 C   0  0  0  0  0  0  0  0  0  0  0  0
  -33.0636   10.5882  -16.7385 C   0  0  0  0  0  0  0  0  0  0  0  0
  -32.6918   10.3421  -18.0452 C   0  0  0  0  0  0  0  0  0  0  0  0
  -33.9620   12.0553  -15.1100 F   0  0  0  0  0  0  0  0  0  0  0  0
  -25.6267    7.1223  -26.2462 H   0  0  0  0  0  0  0  0  0  0  0  0
  -25.6608    5.3816  -25.8056 H   0  0  0  0  0  0  0  0  0  0  0  0
  -26.1721    6.6204  -24.6107 H   0  0  0  0  0  0  0  0  0  0  0  0
  -27.7082    6.8377  -27.1111 H   0  0  0  0  0  0  0  0  0  0  0  0
  -27.8486    5.1969  -26.3936 H   0  0  0  0  0  0  0  0  0  0  0  0
  -30.1427    5.1854  -25.7102 H   0  0  0  0  0  0  0  0  0  0  0  0
  -32.1345    5.7103  -24.5487 H   0  0  0  0  0  0  0  0  0  0  0  0
  -31.1932    6.8117  -23.4870 H   0  0  0  0  0  0  0  0  0  0  0  0
  -31.2371    7.9461  -26.1438 H   0  0  0  0  0  0  0  0  0  0  0  0
  -32.9185    7.4937  -25.7021 H   0  0  0  0  0  0  0  0  0  0  0  0
  -32.0299    9.8335  -24.8141 H   0  0  0  0  0  0  0  0  0  0  0  0
  -32.7201   12.9122  -21.4386 H   0  0  0  0  0  0  0  0  0  0  0  0
  -32.3862   11.6407  -23.3857 H   0  0  0  0  0  0  0  0  0  0  0  0
  -30.6712   11.3417  -22.8435 H   0  0  0  0  0  0  0  0  0  0  0  0
  -30.0276   13.5110  -22.5754 H   0  0  0  0  0  0  0  0  0  0  0  0
  -28.7780   12.9397  -21.4374 H   0  0  0  0  0  0  0  0  0  0  0  0
  -33.5089   13.3477  -19.4168 H   0  0  0  0  0  0  0  0  0  0  0  0
  -34.1909   13.7755  -17.0702 H   0  0  0  0  0  0  0  0  0  0  0  0
  -32.9349    9.8076  -15.9742 H   0  0  0  0  0  0  0  0  0  0  0  0
  -32.2670    9.3660  -18.3221 H   0  0  0  0  0  0  0  0  0  0  0  0
  1  2  1  0  0  0  0
  1 27  1  0  0  0  0
  1 28  1  0  0  0  0
  1 29  1  0  0  0  0
  2  3  1  0  0  0  0
  2 30  1  0  0  0  0
  2 31  1  0  0  0  0
  3  4  2  0  0  0  0
  3  5  2  0  0  0  0
  3  6  1  0  0  0  0
  6  7  1  0  0  0  0
  6 32  1  0  0  0  0
  7  8  1  0  0  0  0
  7 33  1  0  0  0  0
  7 34  1  0  0  0  0
  8  9  1  0  0  0  0
  8 35  1  0  0  0  0
  8 36  1  0  0  0  0
  9 10  1  0  0  0  0
  9 37  1  0  0  0  0
 10 11  2  0  0  0  0
 10 12  1  0  0  0  0
 12 16  1  0  0  0  0
 12 13  2  0  0  0  0
 13 14  1  0  0  0  0
 14 15  1  0  0  0  0
 14 20  1  0  0  0  0
 15 16  1  0  0  0  0
 15 17  1  0  0  0  0
 15 38  1  0  0  0  0
 16 39  1  0  0  0  0
 16 40  1  0  0  0  0
 17 18  2  0  0  0  0
 17 19  1  0  0  0  0
 19 41  1  0  0  0  0
 19 42  1  0  0  0  0
 20 25  2  0  0  0  0
 20 21  1  0  0  0  0
 21 22  2  0  0  0  0
 21 43  1  0  0  0  0
 22 23  1  0  0  0  0
 22 44  1  0  0  0  0
 23 24  2  0  0  0  0
 23 26  1  0  0  0  0
 24 25  1  0  0  0  0
 24 45  1  0  0  0  0
 25 46  1  0  0  0  0
M  END
> <Name>
ZINC31219731

> <reference>
BDB4945

> <quality>
0.719

> <status>
decoy

> <atoms in reference ligand area>
15

> <score>
-27.6082

$$$$
ZINC24983928
      BALL 1.4.0 (Jan  4 2012, 23:22:29)

 39 40  0999  0  0  0  0  0  0999 V2000
  -29.5932   14.3927  -17.4321 C   0  0  0  0  0  0  0  0  0  0  0  0
  -28.1750   14.2508  -17.0929 N   0  0  0  0  0  0  0  0  0  0  0  0
  -27.0207   14.4334  -18.2661 S   0  0  0  0  0  0  0  0  0  0  0  0
  -25.8535   13.7748  -17.7936 O   0  0  0  0  0  0  0  0  0  0  0  0
  -27.0256   15.8069  -18.6304 O   0  0  0  0  0  0  0  0  0  0  0  0
  -27.5681   13.5355  -19.6798 C   0  0  0  0  0  0  0  0  0  0  0  0
  -26.8293   13.2740  -20.7807 C   0  0  0  0  0  0  0  0  0  0  0  0
  -27.6399   12.5347  -21.6562 C   0  0  0  0  0  0  0  0  0  0  0  0
  -28.8499   12.3876  -21.0409 C   0  0  0  0  0  0  0  0  0  0  0  0
  -28.7850   12.9999  -19.8404 O   0  0  0  0  0  0  0  0  0  0  0  0
  -30.0141   11.6821  -21.5867 C   0  0  0  0  0  0  0  0  0  0  0  0
  -30.1937   11.6443  -22.7897 O   0  0  0  0  0  0  0  0  0  0  0  0
  -30.8850   11.0757  -20.7559 N   0  0  0  0  0  0  0  0  0  0  0  0
  -32.0480   10.3710  -21.3010 C   0  0  0  0  0  0  0  0  0  0  0  0
  -31.5941    9.4187  -22.4091 C   0  0  0  0  0  0  0  0  0  0  0  0
  -32.6674    9.2698  -23.3951 N   0  0  0  0  0  0  0  0  0  0  0  0
  -32.5733    8.3001  -24.3807 C   0  0  0  0  0  0  0  0  0  0  0  0
  -33.7262    7.8747  -25.0380 C   0  0  0  0  0  0  0  0  0  0  0  0
  -33.6298    6.9164  -26.0108 C   0  0  0  0  0  0  0  0  0  0  0  0
  -32.3627    6.3937  -26.3125 C   0  0  0  0  0  0  0  0  0  0  0  0
  -31.2515    6.8629  -25.6100 C   0  0  0  0  0  0  0  0  0  0  0  0
  -31.3881    7.7901  -24.6847 N   0  0  0  0  0  0  0  0  0  0  0  0
  -32.2128    5.3893  -27.3222 C   0  0  0  0  0  0  0  0  0  0  0  0
  -32.0939    4.5927  -28.1231 N   0  0  0  0  0  0  0  0  0  0  0  0
  -29.5986   15.0241  -18.3329 H   0  0  0  0  0  0  0  0  0  0  0  0
  -30.0104   15.0053  -16.6193 H   0  0  0  0  0  0  0  0  0  0  0  0
  -30.1345   13.4456  -17.5726 H   0  0  0  0  0  0  0  0  0  0  0  0
  -27.8959   14.0374  -16.1247 H   0  0  0  0  0  0  0  0  0  0  0  0
  -25.7883   13.5825  -20.9575 H   0  0  0  0  0  0  0  0  0  0  0  0
  -27.3554   12.1487  -22.6463 H   0  0  0  0  0  0  0  0  0  0  0  0
  -30.7330   11.1077  -19.7377 H   0  0  0  0  0  0  0  0  0  0  0  0
  -32.5363    9.7954  -20.5008 H   0  0  0  0  0  0  0  0  0  0  0  0
  -32.7597   11.1008  -21.7144 H   0  0  0  0  0  0  0  0  0  0  0  0
  -30.6994    9.8283  -22.9010 H   0  0  0  0  0  0  0  0  0  0  0  0
  -31.3568    8.4362  -21.9753 H   0  0  0  0  0  0  0  0  0  0  0  0
  -33.4920    9.8857  -23.3556 H   0  0  0  0  0  0  0  0  0  0  0  0
  -34.7045    8.3049  -24.7775 H   0  0  0  0  0  0  0  0  0  0  0  0
  -34.5251    6.5641  -26.5439 H   0  0  0  0  0  0  0  0  0  0  0  0
  -30.2541    6.4550  -25.8309 H   0  0  0  0  0  0  0  0  0  0  0  0
  1  2  1  0  0  0  0
  1 25  1  0  0  0  0
  1 26  1  0  0  0  0
  1 27  1  0  0  0  0
  2  3  1  0  0  0  0
  2 28  1  0  0  0  0
  3  4  2  0  0  0  0
  3  5  2  0  0  0  0
  3  6  1  0  0  0  0
  6 10  1  0  0  0  0
  6  7  2  0  0  0  0
  7  8  1  0  0  0  0
  7 29  1  0  0  0  0
  8  9  2  0  0  0  0
  8 30  1  0  0  0  0
  9 10  1  0  0  0  0
  9 11  1  0  0  0  0
 11 12  2  0  0  0  0
 11 13  1  0  0  0  0
 13 14  1  0  0  0  0
 13 31  1  0  0  0  0
 14 15  1  0  0  0  0
 14 32  1  0  0  0  0
 14 33  1  0  0  0  0
 15 16  1  0  0  0  0
 15 34  1  0  0  0  0
 15 35  1  0  0  0  0
 16 17  1  0  0  0  0
 16 36  1  0  0  0  0
 17 22  2  0  0  0  0
 17 18  1  0  0  0  0
 18 19  2  0  0  0  0
 18 37  1  0  0  0  0
 19 20  1  0  0  0  0
 19 38  1  0  0  0  0
 20 21  2  0  0  0  0
 20 23  1  0  0  0  0
 21 22  1  0  0  0  0
 21 39  1  0  0  0  0
 23 24  3  0  0  0  0
M  END
> <Name>
ZINC24983928

> <reference>
BDB4942

> <quality>
0.626

> <status>
decoy

> <atoms in reference ligand area>
16

> <score>
-27.5596

$$$$
ZINC09047672
      BALL 1.4.0 (Jan  4 2012, 23:22:29)

 37 38  0999  0  0  0  0  0  0999 V2000
  -35.8170    6.3501  -24.8871 C   0  0  0  0  0  0  0  0  0  0  0  0
  -35.1868    8.4350  -25.9448 C   0  0  0  0  0  0  0  0  0  0  0  0
  -34.8296    8.1257  -23.5701 C   0  0  0  0  0  0  0  0  0  0  0  0
  -33.4394    7.9704  -22.9504 C   0  0  0  0  0  0  0  0  0  0  0  0
  -32.7555    9.2660  -22.9540 N   0  0  0  0  0  0  0  0  0  0  0  0
  -31.4460    9.3377  -22.6437 C   0  0  0  0  0  0  0  0  0  0  0  0
  -30.8336    8.3295  -22.3616 O   0  0  0  0  0  0  0  0  0  0  0  0
  -30.7425   10.6704  -22.6474 C   0  0  0  0  0  0  0  0  0  0  0  0
  -31.7322   11.7453  -22.5402 N   0  0  0  0  0  0  0  0  0  0  0  0
  -31.8153   12.4959  -21.3807 C   0  0  0  0  0  0  0  0  0  0  0  0
  -32.9230   12.3747  -20.5238 C   0  0  0  0  0  0  0  0  0  0  0  0
  -32.9517   13.1622  -19.3609 C   0  0  0  0  0  0  0  0  0  0  0  0
  -34.1243   12.8495  -18.7211 N   0  0  0  0  0  0  0  0  0  0  0  0
  -34.7648   11.9126  -19.4766 C   0  0  0  0  0  0  0  0  0  0  0  0
  -34.0583   11.6355  -20.5337 N   0  0  0  0  0  0  0  0  0  0  0  0
  -31.9388   13.9869  -19.1136 N   0  0  0  0  0  0  0  0  0  0  0  0
  -30.9203   14.0675  -19.9452 C   0  0  0  0  0  0  0  0  0  0  0  0
  -30.8476   13.3439  -21.0491 N   0  0  0  0  0  0  0  0  0  0  0  0
  -29.6233   15.1605  -19.5752 Cl  0  0  0  0  0  0  0  0  0  0  0  0
  -34.8406    7.4597  -24.8895 N   0  3  0  0  0  0  0  0  0  0  0  0
  -36.4364    6.4129  -23.9803 H   0  0  0  0  0  0  0  0  0  0  0  0
  -35.2779    5.3913  -24.8942 H   0  0  0  0  0  0  0  0  0  0  0  0
  -36.4591    6.4185  -25.7776 H   0  0  0  0  0  0  0  0  0  0  0  0
  -34.8291    8.0622  -26.9160 H   0  0  0  0  0  0  0  0  0  0  0  0
  -34.7024    9.3975  -25.7235 H   0  0  0  0  0  0  0  0  0  0  0  0
  -36.2777    8.5712  -25.9815 H   0  0  0  0  0  0  0  0  0  0  0  0
  -35.0608    9.1938  -23.6956 H   0  0  0  0  0  0  0  0  0  0  0  0
  -35.5792    7.6573  -22.9153 H   0  0  0  0  0  0  0  0  0  0  0  0
  -33.5372    7.6109  -21.9155 H   0  0  0  0  0  0  0  0  0  0  0  0
  -32.8544    7.2462  -23.5364 H   0  0  0  0  0  0  0  0  0  0  0  0
  -33.2756   10.1222  -23.1936 H   0  0  0  0  0  0  0  0  0  0  0  0
  -30.0512   10.7227  -21.7933 H   0  0  0  0  0  0  0  0  0  0  0  0
  -30.1774   10.7854  -23.5841 H   0  0  0  0  0  0  0  0  0  0  0  0
  -32.3659   11.9422  -23.3279 H   0  0  0  0  0  0  0  0  0  0  0  0
  -34.4592   13.2492  -17.8329 H   0  0  0  0  0  0  0  0  0  0  0  0
  -35.7355   11.4581  -19.2292 H   0  0  0  0  0  0  0  0  0  0  0  0
  -33.9026    7.0793  -25.0801 H   0  0  0  0  0  0  0  0  0  0  0  0
  1 20  1  0  0  0  0
  1 21  1  0  0  0  0
  1 22  1  0  0  0  0
  1 23  1  0  0  0  0
  2 20  1  0  0  0  0
  2 24  1  0  0  0  0
  2 25  1  0  0  0  0
  2 26  1  0  0  0  0
  3  4  1  0  0  0  0
  3 20  1  0  0  0  0
  3 27  1  0  0  0  0
  3 28  1  0  0  0  0
  4  5  1  0  0  0  0
  4 29  1  0  0  0  0
  4 30  1  0  0  0  0
  5  6  1  0  0  0  0
  5 31  1  0  0  0  0
  6  7  2  0  0  0  0
  6  8  1  0  0  0  0
  8  9  1  0  0  0  0
  8 32  1  0  0  0  0
  8 33  1  0  0  0  0
  9 10  1  0  0  0  0
  9 34  1  0  0  0  0
 10 18  1  0  0  0  0
 10 11  2  0  0  0  0
 11 15  1  0  0  0  0
 11 12  1  0  0  0  0
 12 13  1  0  0  0  0
 12 16  2  0  0  0  0
 13 14  1  0  0  0  0
 13 35  1  0  0  0  0
 14 15  2  0  0  0  0
 14 36  1  0  0  0  0
 16 17  1  0  0  0  0
 17 18  2  0  0  0  0
 17 19  1  0  0  0  0
 20 37  1  0  0  0  0
M  END
> <Name>
ZINC09047672

> <reference>
BDB5234

> <quality>
0.756

> <status>
decoy

> <atoms in reference ligand area>
14

> <score>
-27.3406

$$$$
ZINC06078676
      BALL 1.4.0 (Jan  4 2012, 23:22:29)

 37 38  0999  0  0  0  0  0  0999 V2000
  -34.6863    7.2499  -21.4541 C   0  0  0  0  0  0  0  0  0  0  0  0
  -33.4829    7.8000  -22.1753 C   0  0  0  0  0  0  0  0  0  0  0  0
  -33.2798    9.1943  -22.2607 C   0  0  0  0  0  0  0  0  0  0  0  0
  -34.0698    9.9747  -21.7563 O   0  0  0  0  0  0  0  0  0  0  0  0
  -32.1848    9.6410  -22.9179 N   0  0  0  0  0  0  0  0  0  0  0  0
  -31.3343    8.7261  -23.4634 C   0  0  0  0  0  0  0  0  0  0  0  0
  -31.5832    7.4316  -23.3536 N   0  0  0  0  0  0  0  0  0  0  0  0
  -32.6142    6.9868  -22.7291 N   0  0  0  0  0  0  0  0  0  0  0  0
  -29.8982    9.2714  -24.3265 S   0  0  0  0  0  0  0  0  0  0  0  0
  -28.9222    9.9085  -22.9417 C   0  0  0  0  0  0  0  0  0  0  0  0
  -28.4272   11.3179  -23.2724 C   0  0  0  0  0  0  0  0  0  0  0  0
  -29.2650   12.2802  -22.6288 O   0  0  0  0  0  0  0  0  0  0  0  0
  -29.0335   12.5164  -21.3099 C   0  0  0  0  0  0  0  0  0  0  0  0
  -27.9932   13.3499  -20.9267 C   0  0  0  0  0  0  0  0  0  0  0  0
  -27.7608   13.5934  -19.5871 C   0  0  0  0  0  0  0  0  0  0  0  0
  -28.5616   12.9966  -18.6247 C   0  0  0  0  0  0  0  0  0  0  0  0
  -29.5990   12.1593  -19.0076 C   0  0  0  0  0  0  0  0  0  0  0  0
  -29.8341   11.9194  -20.3474 C   0  0  0  0  0  0  0  0  0  0  0  0
  -28.3302   13.2329  -17.3057 O   0  0  0  0  0  0  0  0  0  0  0  0
  -27.9813   14.5689  -16.9374 C   0  0  0  0  0  0  0  0  0  0  0  0
  -31.9373   10.9796  -23.0326 N   0  0  0  0  0  0  0  0  0  0  0  0
  -34.3429    7.0609  -20.4262 H   0  0  0  0  0  0  0  0  0  0  0  0
  -34.8778    6.2722  -21.9204 H   0  0  0  0  0  0  0  0  0  0  0  0
  -35.5641    7.9118  -21.4894 H   0  0  0  0  0  0  0  0  0  0  0  0
  -29.5475    9.9429  -22.0373 H   0  0  0  0  0  0  0  0  0  0  0  0
  -28.0592    9.2493  -22.7661 H   0  0  0  0  0  0  0  0  0  0  0  0
  -27.3931   11.4364  -22.9164 H   0  0  0  0  0  0  0  0  0  0  0  0
  -28.4605   11.4734  -24.3608 H   0  0  0  0  0  0  0  0  0  0  0  0
  -27.3532   13.8172  -21.6897 H   0  0  0  0  0  0  0  0  0  0  0  0
  -26.9406   14.2606  -19.2835 H   0  0  0  0  0  0  0  0  0  0  0  0
  -30.2345   11.6864  -18.2444 H   0  0  0  0  0  0  0  0  0  0  0  0
  -30.6563   11.2547  -20.6511 H   0  0  0  0  0  0  0  0  0  0  0  0
  -27.1066   14.4888  -16.2751 H   0  0  0  0  0  0  0  0  0  0  0  0
  -28.8215   14.9548  -16.3414 H   0  0  0  0  0  0  0  0  0  0  0  0
  -27.7736   15.2096  -17.8071 H   0  0  0  0  0  0  0  0  0  0  0  0
  -32.5406   11.5566  -23.6358 H   0  0  0  0  0  0  0  0  0  0  0  0
  -31.1540   11.4099  -22.5205 H   0  0  0  0  0  0  0  0  0  0  0  0
  1  2  1  0  0  0  0
  1 22  1  0  0  0  0
  1 23  1  0  0  0  0
  1 24  1  0  0  0  0
  2  8  2  0  0  0  0
  2  3  1  0  0  0  0
  3  4  2  0  0  0  0
  3  5  1  0  0  0  0
  5  6  1  0  0  0  0
  5 21  1  0  0  0  0
  6  7  2  0  0  0  0
  6  9  1  0  0  0  0
  7  8  1  0  0  0  0
  9 10  1  0  0  0  0
 10 11  1  0  0  0  0
 10 25  1  0  0  0  0
 10 26  1  0  0  0  0
 11 12  1  0  0  0  0
 11 27  1  0  0  0  0
 11 28  1  0  0  0  0
 12 13  1  0  0  0  0
 13 18  2  0  0  0  0
 13 14  1  0  0  0  0
 14 15  2  0  0  0  0
 14 29  1  0  0  0  0
 15 16  1  0  0  0  0
 15 30  1  0  0  0  0
 16 17  2  0  0  0  0
 16 19  1  0  0  0  0
 17 18  1  0  0  0  0
 17 31  1  0  0  0  0
 18 32  1  0  0  0  0
 19 20  1  0  0  0  0
 20 33  1  0  0  0  0
 20 34  1  0  0  0  0
 20 35  1  0  0  0  0
 21 36  1  0  0  0  0
 21 37  1  0  0  0  0
M  END
> <Name>
ZINC06078676

> <reference>
BDB5199

> <quality>
0.701

> <status>
decoy

> <atoms in reference ligand area>
17

> <score>
-27.2604

$$$$
ZINC23280832
      BALL 1.4.0 (Jan  4 2012, 23:22:29)

 48 49  0999  0  0  0  0  0  0999 V2000
  -27.2428    6.8412  -26.6814 C   0  0  0  0  0  0  0  0  0  0  0  0
  -28.6998    6.6841  -26.2420 C   0  0  0  0  0  0  0  0  0  0  0  0
  -28.7720    6.6894  -24.7788 N   0  0  0  0  0  0  0  0  0  0  0  0
  -27.7256    7.3519  -23.9962 C   0  0  0  0  0  0  0  0  0  0  0  0
  -26.4627    6.4882  -23.9992 C   0  0  0  0  0  0  0  0  0  0  0  0
  -30.0365    5.9467  -24.0095 S   0  0  0  0  0  0  0  0  0  0  0  0
  -29.4798    5.2170  -22.9247 O   0  0  0  0  0  0  0  0  0  0  0  0
  -30.8206    5.3288  -25.0207 O   0  0  0  0  0  0  0  0  0  0  0  0
  -31.0344    7.2156  -23.3034 C   0  0  0  0  0  0  0  0  0  0  0  0
  -32.2633    7.1207  -22.7395 C   0  0  0  0  0  0  0  0  0  0  0  0
  -32.8639    8.2631  -22.2447 C   0  0  0  0  0  0  0  0  0  0  0  0
  -32.2061    9.4446  -22.3379 C   0  0  0  0  0  0  0  0  0  0  0  0
  -30.6921    8.9611  -23.1511 S   0  0  0  0  0  0  0  0  0  0  0  0
  -32.6425   10.8125  -21.8801 C   0  0  0  0  0  0  0  0  0  0  0  0
  -32.0046   11.1250  -20.5989 N   0  0  0  0  0  0  0  0  0  0  0  0
  -31.5433   12.3689  -20.3615 C   0  0  0  0  0  0  0  0  0  0  0  0
  -31.6562   13.2296  -21.2086 O   0  0  0  0  0  0  0  0  0  0  0  0
  -30.8871   12.6905  -19.0435 C   0  0  0  0  0  0  0  0  0  0  0  0
  -30.1193   14.3271  -19.1352 S   0  0  0  0  0  0  0  0  0  0  0  0
  -28.4181   13.8685  -19.1140 C   0  0  0  0  0  0  0  0  0  0  0  0
  -27.4858   14.3636  -18.3337 N   0  0  0  0  0  0  0  0  0  0  0  0
  -26.3591   13.7998  -18.5876 N   0  0  0  0  0  0  0  0  0  0  0  0
  -26.5037   12.9188  -19.5367 C   0  0  0  0  0  0  0  0  0  0  0  0
  -27.8203   12.9308  -19.9062 N   0  0  0  0  0  0  0  0  0  0  0  0
  -28.4138   12.1642  -20.8685 N   0  0  0  0  0  0  0  0  0  0  0  0
  -25.4215   12.0441  -20.1155 C   0  0  0  0  0  0  0  0  0  0  0  0
  -26.6941    7.4300  -25.9316 H   0  0  0  0  0  0  0  0  0  0  0  0
  -27.2050    7.3578  -27.6518 H   0  0  0  0  0  0  0  0  0  0  0  0
  -26.7789    5.8484  -26.7775 H   0  0  0  0  0  0  0  0  0  0  0  0
  -29.2953    7.5185  -26.6410 H   0  0  0  0  0  0  0  0  0  0  0  0
  -29.0988    5.7330  -26.6246 H   0  0  0  0  0  0  0  0  0  0  0  0
  -27.4997    8.3322  -24.4413 H   0  0  0  0  0  0  0  0  0  0  0  0
  -28.0721    7.4900  -22.9614 H   0  0  0  0  0  0  0  0  0  0  0  0
  -26.6351    5.5827  -23.3989 H   0  0  0  0  0  0  0  0  0  0  0  0
  -25.6261    7.0585  -23.5692 H   0  0  0  0  0  0  0  0  0  0  0  0
  -26.2166    6.2008  -25.0321 H   0  0  0  0  0  0  0  0  0  0  0  0
  -32.7750    6.1491  -22.6765 H   0  0  0  0  0  0  0  0  0  0  0  0
  -33.8608    8.2141  -21.7821 H   0  0  0  0  0  0  0  0  0  0  0  0
  -32.3462   11.5618  -22.6291 H   0  0  0  0  0  0  0  0  0  0  0  0
  -33.7356   10.8282  -21.7581 H   0  0  0  0  0  0  0  0  0  0  0  0
  -31.9087   10.3941  -19.8795 H   0  0  0  0  0  0  0  0  0  0  0  0
  -31.6444   12.6857  -18.2458 H   0  0  0  0  0  0  0  0  0  0  0  0
  -30.1168   11.9370  -18.8225 H   0  0  0  0  0  0  0  0  0  0  0  0
  -27.9843   11.2391  -21.0125 H   0  0  0  0  0  0  0  0  0  0  0  0
  -29.2291   12.4696  -21.4188 H   0  0  0  0  0  0  0  0  0  0  0  0
  -25.7467   11.0341  -19.8258 H   0  0  0  0  0  0  0  0  0  0  0  0
  -24.5554   12.2787  -19.4793 H   0  0  0  0  0  0  0  0  0  0  0  0
  -25.2291   12.1597  -21.1924 H   0  0  0  0  0  0  0  0  0  0  0  0
  1  2  1  0  0  0  0
  1 27  1  0  0  0  0
  1 28  1  0  0  0  0
  1 29  1  0  0  0  0
  2  3  1  0  0  0  0
  2 30  1  0  0  0  0
  2 31  1  0  0  0  0
  3  4  1  0  0  0  0
  3  6  1  0  0  0  0
  4  5  1  0  0  0  0
  4 32  1  0  0  0  0
  4 33  1  0  0  0  0
  5 34  1  0  0  0  0
  5 35  1  0  0  0  0
  5 36  1  0  0  0  0
  6  7  2  0  0  0  0
  6  8  2  0  0  0  0
  6  9  1  0  0  0  0
  9 13  1  0  0  0  0
  9 10  2  0  0  0  0
 10 11  1  0  0  0  0
 10 37  1  0  0  0  0
 11 12  2  0  0  0  0
 11 38  1  0  0  0  0
 12 13  1  0  0  0  0
 12 14  1  0  0  0  0
 14 15  1  0  0  0  0
 14 39  1  0  0  0  0
 14 40  1  0  0  0  0
 15 16  1  0  0  0  0
 15 41  1  0  0  0  0
 16 17  2  0  0  0  0
 16 18  1  0  0  0  0
 18 19  1  0  0  0  0
 18 42  1  0  0  0  0
 18 43  1  0  0  0  0
 19 20  1  0  0  0  0
 20 24  1  0  0  0  0
 20 21  2  0  0  0  0
 21 22  1  0  0  0  0
 22 23  2  0  0  0  0
 23 24  1  0  0  0  0
 23 26  1  0  0  0  0
 24 25  1  0  0  0  0
 25 44  1  0  0  0  0
 25 45  1  0  0  0  0
 26 46  1  0  0  0  0
 26 47  1  0  0  0  0
 26 48  1  0  0  0  0
M  END
> <Name>
ZINC23280832

> <reference>
BDB4965

> <quality>
0.685

> <status>
decoy

> <atoms in reference ligand area>
22

> <score>
-27.2023

$$$$
ZINC04535649
      BALL 1.4.0 (Jan  4 2012, 23:22:29)

 46 47  0999  0  0  0  0  0  0999 V2000
  -31.7829    7.1599  -18.5391 C   0  0  0  0  0  0  0  0  0  0  0  0
  -33.0789    7.6975  -19.0891 C   0  0  0  0  0  0  0  0  0  0  0  0
  -33.9404    6.9320  -19.4700 O   0  0  0  0  0  0  0  0  0  0  0  0
  -33.2915    9.0946  -19.1615 C   0  0  0  0  0  0  0  0  0  0  0  0
  -34.1178    9.7439  -20.0185 C   0  0  0  0  0  0  0  0  0  0  0  0
  -34.0413   11.1981  -19.7568 C   0  0  0  0  0  0  0  0  0  0  0  0
  -34.6650   12.0488  -20.3593 O   0  0  0  0  0  0  0  0  0  0  0  0
  -33.1793   11.4390  -18.7524 N   0  0  0  0  0  0  0  0  0  0  0  0
  -32.6415   10.1511  -18.2988 C   0  0  0  0  0  0  0  0  0  0  0  0
  -32.9917    9.9246  -16.8506 C   0  0  0  0  0  0  0  0  0  0  0  0
  -34.0499   10.6059  -16.2806 C   0  0  0  0  0  0  0  0  0  0  0  0
  -34.3720   10.3983  -14.9523 C   0  0  0  0  0  0  0  0  0  0  0  0
  -33.6367    9.5083  -14.1910 C   0  0  0  0  0  0  0  0  0  0  0  0
  -32.5776    8.8251  -14.7561 C   0  0  0  0  0  0  0  0  0  0  0  0
  -32.2520    9.0320  -16.0889 C   0  0  0  0  0  0  0  0  0  0  0  0
  -31.2102    8.3613  -16.6471 O   0  0  0  0  0  0  0  0  0  0  0  0
  -30.4933    7.4581  -15.8031 C   0  0  0  0  0  0  0  0  0  0  0  0
  -32.8382   12.7551  -18.2068 C   0  0  0  0  0  0  0  0  0  0  0  0
  -32.2347   13.6244  -19.3118 C   0  0  0  0  0  0  0  0  0  0  0  0
  -32.5114   15.6846  -20.5534 C   0  0  0  0  0  0  0  0  0  0  0  0
  -31.5273   16.6762  -19.9298 C   0  0  0  0  0  0  0  0  0  0  0  0
  -30.2103   16.4098  -20.4160 O   0  0  0  0  0  0  0  0  0  0  0  0
  -34.8877    9.1565  -20.9614 O   0  5  0  0  0  0  0  0  0  0  0  0
  -33.0706   14.8264  -19.4921 N   0  3  0  0  0  0  0  0  0  0  0  0
  -31.6941    7.5852  -17.5286 H   0  0  0  0  0  0  0  0  0  0  0  0
  -30.9927    7.6074  -19.1599 H   0  0  0  0  0  0  0  0  0  0  0  0
  -31.7366    6.0609  -18.5342 H   0  0  0  0  0  0  0  0  0  0  0  0
  -31.5452   10.1211  -18.3850 H   0  0  0  0  0  0  0  0  0  0  0  0
  -34.6366   11.3141  -16.8842 H   0  0  0  0  0  0  0  0  0  0  0  0
  -35.2146   10.9421  -14.5002 H   0  0  0  0  0  0  0  0  0  0  0  0
  -33.8954    9.3444  -13.1346 H   0  0  0  0  0  0  0  0  0  0  0  0
  -31.9928    8.1174  -14.1501 H   0  0  0  0  0  0  0  0  0  0  0  0
  -30.8185    7.6720  -14.7743 H   0  0  0  0  0  0  0  0  0  0  0  0
  -29.4317    7.7343  -15.8857 H   0  0  0  0  0  0  0  0  0  0  0  0
  -30.6596    6.4040  -16.0696 H   0  0  0  0  0  0  0  0  0  0  0  0
  -33.7467   13.2372  -17.8168 H   0  0  0  0  0  0  0  0  0  0  0  0
  -32.1072   12.6378  -17.3932 H   0  0  0  0  0  0  0  0  0  0  0  0
  -31.2156   13.9254  -19.0275 H   0  0  0  0  0  0  0  0  0  0  0  0
  -32.2029   13.0552  -20.2526 H   0  0  0  0  0  0  0  0  0  0  0  0
  -33.3256   16.2357  -21.0468 H   0  0  0  0  0  0  0  0  0  0  0  0
  -31.9873   15.0603  -21.2920 H   0  0  0  0  0  0  0  0  0  0  0  0
  -31.8177   17.7017  -20.2022 H   0  0  0  0  0  0  0  0  0  0  0  0
  -31.5417   16.5696  -18.8351 H   0  0  0  0  0  0  0  0  0  0  0  0
  -30.2648   16.0338  -21.3302 H   0  0  0  0  0  0  0  0  0  0  0  0
  -34.0260   14.5420  -19.7516 H   0  0  0  0  0  0  0  0  0  0  0  0
  -33.1046   15.3553  -18.6089 H   0  0  0  0  0  0  0  0  0  0  0  0
  1  2  1  0  0  0  0
  1 25  1  0  0  0  0
  1 26  1  0  0  0  0
  1 27  1  0  0  0  0
  2  3  2  0  0  0  0
  2  4  1  0  0  0  0
  4  9  1  0  0  0  0
  4  5  2  0  0  0  0
  5  6  1  0  0  0  0
  5 23  1  0  0  0  0
  6  7  2  0  0  0  0
  6  8  1  0  0  0  0
  8  9  1  0  0  0  0
  8 18  1  0  0  0  0
  9 10  1  0  0  0  0
  9 28  1  0  0  0  0
 10 15  2  0  0  0  0
 10 11  1  0  0  0  0
 11 12  2  0  0  0  0
 11 29  1  0  0  0  0
 12 13  1  0  0  0  0
 12 30  1  0  0  0  0
 13 14  2  0  0  0  0
 13 31  1  0  0  0  0
 14 15  1  0  0  0  0
 14 32  1  0  0  0  0
 15 16  1  0  0  0  0
 16 17  1  0  0  0  0
 17 33  1  0  0  0  0
 17 34  1  0  0  0  0
 17 35  1  0  0  0  0
 18 19  1  0  0  0  0
 18 36  1  0  0  0  0
 18 37  1  0  0  0  0
 19 24  1  0  0  0  0
 19 38  1  0  0  0  0
 19 39  1  0  0  0  0
 20 21  1  0  0  0  0
 20 24  1  0  0  0  0
 20 40  1  0  0  0  0
 20 41  1  0  0  0  0
 21 22  1  0  0  0  0
 21 42  1  0  0  0  0
 21 43  1  0  0  0  0
 22 44  1  0  0  0  0
 24 45  1  0  0  0  0
 24 46  1  0  0  0  0
M  END
> <Name>
ZINC04535649

> <reference>
BDB5013

> <quality>
0.764

> <status>
decoy

> <atoms in reference ligand area>
10

> <score>
-27.1314

$$$$
ZINC31971727
      BALL 1.4.0 (Jan  4 2012, 23:22:29)

 47 48  0999  0  0  0  0  0  0999 V2000
  -27.9422    6.5451  -22.4178 C   0  0  0  0  0  0  0  0  0  0  0  0
  -29.2126    6.0245  -22.0216 O   0  0  0  0  0  0  0  0  0  0  0  0
  -30.2990    6.4455  -22.7240 C   0  0  0  0  0  0  0  0  0  0  0  0
  -30.7388    7.7536  -22.6004 C   0  0  0  0  0  0  0  0  0  0  0  0
  -31.8464    8.1834  -23.3161 C   0  0  0  0  0  0  0  0  0  0  0  0
  -32.5194    7.2971  -24.1554 C   0  0  0  0  0  0  0  0  0  0  0  0
  -32.0740    5.9897  -24.2819 C   0  0  0  0  0  0  0  0  0  0  0  0
  -30.9673    5.5626  -23.5660 C   0  0  0  0  0  0  0  0  0  0  0  0
  -30.5336    4.2787  -23.6869 O   0  0  0  0  0  0  0  0  0  0  0  0
  -29.2942    4.0740  -24.3681 C   0  0  0  0  0  0  0  0  0  0  0  0
  -33.6429    7.7284  -24.8753 N   0  0  0  0  0  0  0  0  0  0  0  0
  -33.7723    7.4078  -26.1779 C   0  0  0  0  0  0  0  0  0  0  0  0
  -32.8723    6.8332  -26.7536 O   0  0  0  0  0  0  0  0  0  0  0  0
  -35.0352    7.7631  -26.9195 C   0  0  0  0  0  0  0  0  0  0  0  0
  -35.6983    6.6643  -27.7524 C   0  0  0  0  0  0  0  0  0  0  0  0
  -34.9668    7.8146  -28.4471 C   0  0  0  0  0  0  0  0  0  0  0  0
  -32.2922    9.5071  -23.1909 N   0  0  0  0  0  0  0  0  0  0  0  0
  -31.4928   10.4374  -22.6325 C   0  0  0  0  0  0  0  0  0  0  0  0
  -30.4297   10.1117  -22.1479 O   0  0  0  0  0  0  0  0  0  0  0  0
  -31.9200   11.8826  -22.6104 C   0  0  0  0  0  0  0  0  0  0  0  0
  -31.3269   12.5707  -21.3793 C   0  0  0  0  0  0  0  0  0  0  0  0
  -32.1227   13.8409  -21.0722 C   0  0  0  0  0  0  0  0  0  0  0  0
  -32.8615   14.2579  -22.2715 N   0  3  0  0  0  0  0  0  0  0  0  0
  -27.5598    7.1149  -21.5580 H   0  0  0  0  0  0  0  0  0  0  0  0
  -28.1403    7.2567  -23.2329 H   0  0  0  0  0  0  0  0  0  0  0  0
  -27.2383    5.7591  -22.7284 H   0  0  0  0  0  0  0  0  0  0  0  0
  -30.2095    8.4512  -21.9346 H   0  0  0  0  0  0  0  0  0  0  0  0
  -32.5993    5.2919  -24.9506 H   0  0  0  0  0  0  0  0  0  0  0  0
  -29.0911    2.9939  -24.3227 H   0  0  0  0  0  0  0  0  0  0  0  0
  -28.5252    4.5873  -23.7720 H   0  0  0  0  0  0  0  0  0  0  0  0
  -29.3134    4.4393  -25.4056 H   0  0  0  0  0  0  0  0  0  0  0  0
  -34.3691    8.2901  -24.4086 H   0  0  0  0  0  0  0  0  0  0  0  0
  -35.3720    8.4531  -26.1318 H   0  0  0  0  0  0  0  0  0  0  0  0
  -36.7895    6.7953  -27.7980 H   0  0  0  0  0  0  0  0  0  0  0  0
  -35.0966    5.7435  -27.7569 H   0  0  0  0  0  0  0  0  0  0  0  0
  -33.9806    7.4988  -28.8179 H   0  0  0  0  0  0  0  0  0  0  0  0
  -35.6731    8.5514  -28.8576 H   0  0  0  0  0  0  0  0  0  0  0  0
  -33.2306    9.7683  -23.5257 H   0  0  0  0  0  0  0  0  0  0  0  0
  -31.5599   12.3855  -23.5200 H   0  0  0  0  0  0  0  0  0  0  0  0
  -33.0176   11.9411  -22.5691 H   0  0  0  0  0  0  0  0  0  0  0  0
  -31.3784   11.8890  -20.5175 H   0  0  0  0  0  0  0  0  0  0  0  0
  -30.2773   12.8350  -21.5755 H   0  0  0  0  0  0  0  0  0  0  0  0
  -31.4331   14.6428  -20.7699 H   0  0  0  0  0  0  0  0  0  0  0  0
  -32.8326   13.6407  -20.2561 H   0  0  0  0  0  0  0  0  0  0  0  0
  -33.7270   14.7411  -21.9920 H   0  0  0  0  0  0  0  0  0  0  0  0
  -33.0983   13.4292  -22.8355 H   0  0  0  0  0  0  0  0  0  0  0  0
  -32.2779   14.8968  -22.8302 H   0  0  0  0  0  0  0  0  0  0  0  0
  1  2  1  0  0  0  0
  1 24  1  0  0  0  0
  1 25  1  0  0  0  0
  1 26  1  0  0  0  0
  2  3  1  0  0  0  0
  3  8  2  0  0  0  0
  3  4  1  0  0  0  0
  4  5  2  0  0  0  0
  4 27  1  0  0  0  0
  5  6  1  0  0  0  0
  5 17  1  0  0  0  0
  6  7  2  0  0  0  0
  6 11  1  0  0  0  0
  7  8  1  0  0  0  0
  7 28  1  0  0  0  0
  8  9  1  0  0  0  0
  9 10  1  0  0  0  0
 10 29  1  0  0  0  0
 10 30  1  0  0  0  0
 10 31  1  0  0  0  0
 11 12  1  0  0  0  0
 11 32  1  0  0  0  0
 12 13  2  0  0  0  0
 12 14  1  0  0  0  0
 14 16  1  0  0  0  0
 14 15  1  0  0  0  0
 14 33  1  0  0  0  0
 15 16  1  0  0  0  0
 15 34  1  0  0  0  0
 15 35  1  0  0  0  0
 16 36  1  0  0  0  0
 16 37  1  0  0  0  0
 17 18  1  0  0  0  0
 17 38  1  0  0  0  0
 18 19  2  0  0  0  0
 18 20  1  0  0  0  0
 20 21  1  0  0  0  0
 20 39  1  0  0  0  0
 20 40  1  0  0  0  0
 21 22  1  0  0  0  0
 21 41  1  0  0  0  0
 21 42  1  0  0  0  0
 22 23  1  0  0  0  0
 22 43  1  0  0  0  0
 22 44  1  0  0  0  0
 23 45  1  0  0  0  0
 23 46  1  0  0  0  0
 23 47  1  0  0  0  0
M  END
> <Name>
ZINC31971727

> <reference>
BDB5023

> <quality>
0.658

> <status>
decoy

> <atoms in reference ligand area>
13

> <score>
-27.1206

$$$$
ZINC00547494
      BALL 1.4.0 (Jan  4 2012, 23:22:29)

 40 41  0999  0  0  0  0  0  0999 V2000
  -32.6546    6.6611  -13.6494 C   0  0  0  0  0  0  0  0  0  0  0  0
  -33.8938    6.9370  -14.3054 O   0  0  0  0  0  0  0  0  0  0  0  0
  -33.9946    8.1246  -14.9604 C   0  0  0  0  0  0  0  0  0  0  0  0
  -33.6317    8.2128  -16.2912 C   0  0  0  0  0  0  0  0  0  0  0  0
  -33.7361    9.4346  -16.9610 C   0  0  0  0  0  0  0  0  0  0  0  0
  -34.2068   10.5614  -16.2820 C   0  0  0  0  0  0  0  0  0  0  0  0
  -34.5722   10.4644  -14.9559 C   0  0  0  0  0  0  0  0  0  0  0  0
  -34.4631    9.2524  -14.2898 C   0  0  0  0  0  0  0  0  0  0  0  0
  -34.8193    9.1635  -12.9810 O   0  0  0  0  0  0  0  0  0  0  0  0
  -35.2913   10.3581  -12.3547 C   0  0  0  0  0  0  0  0  0  0  0  0
  -36.6451   10.7162  -12.9118 C   0  0  0  0  0  0  0  0  0  0  0  0
  -36.8151   10.7586  -14.1118 O   0  0  0  0  0  0  0  0  0  0  0  0
  -37.6668   10.9894  -12.0763 N   0  0  0  0  0  0  0  0  0  0  0  0
  -33.3511    9.5345  -18.3805 C   0  0  0  0  0  0  0  0  0  0  0  0
  -34.2636    9.5160  -19.3032 N   0  0  0  0  0  0  0  0  0  0  0  0
  -33.8977    9.6110  -20.6523 N   0  0  0  0  0  0  0  0  0  0  0  0
  -33.2323   10.6961  -21.0953 C   0  0  0  0  0  0  0  0  0  0  0  0
  -32.0686   10.6015  -21.4246 O   0  0  0  0  0  0  0  0  0  0  0  0
  -33.9341   12.0270  -21.1817 C   0  0  0  0  0  0  0  0  0  0  0  0
  -33.1182   13.0525  -20.5267 N   0  0  0  0  0  0  0  0  0  0  0  0
  -32.5338   14.1123  -21.1118 C   0  0  0  0  0  0  0  0  0  0  0  0
  -31.8977   14.7863  -20.1883 N   0  0  0  0  0  0  0  0  0  0  0  0
  -32.0523   14.1905  -19.0067 C   0  0  0  0  0  0  0  0  0  0  0  0
  -32.7966   13.1272  -19.1616 N   0  0  0  0  0  0  0  0  0  0  0  0
  -32.5549    5.5660  -13.6248 H   0  0  0  0  0  0  0  0  0  0  0  0
  -32.7681    7.0129  -12.6135 H   0  0  0  0  0  0  0  0  0  0  0  0
  -31.7953    7.1351  -14.1464 H   0  0  0  0  0  0  0  0  0  0  0  0
  -33.2616    7.3231  -16.8218 H   0  0  0  0  0  0  0  0  0  0  0  0
  -34.2859   11.5257  -16.8052 H   0  0  0  0  0  0  0  0  0  0  0  0
  -34.9511   11.3501  -14.4250 H   0  0  0  0  0  0  0  0  0  0  0  0
  -34.5861   11.1794  -12.5504 H   0  0  0  0  0  0  0  0  0  0  0  0
  -35.3731   10.1958  -11.2698 H   0  0  0  0  0  0  0  0  0  0  0  0
  -38.5229   10.4173  -12.1054 H   0  0  0  0  0  0  0  0  0  0  0  0
  -37.5916   11.7703  -11.4088 H   0  0  0  0  0  0  0  0  0  0  0  0
  -32.2904    9.6247  -18.6577 H   0  0  0  0  0  0  0  0  0  0  0  0
  -34.1372    8.8516  -21.3055 H   0  0  0  0  0  0  0  0  0  0  0  0
  -34.0816   12.2961  -22.2381 H   0  0  0  0  0  0  0  0  0  0  0  0
  -34.9109   11.9610  -20.6803 H   0  0  0  0  0  0  0  0  0  0  0  0
  -32.5819   14.3682  -22.1805 H   0  0  0  0  0  0  0  0  0  0  0  0
  -31.6231   14.5372  -18.0550 H   0  0  0  0  0  0  0  0  0  0  0  0
  1  2  1  0  0  0  0
  1 25  1  0  0  0  0
  1 26  1  0  0  0  0
  1 27  1  0  0  0  0
  2  3  1  0  0  0  0
  3  8  2  0  0  0  0
  3  4  1  0  0  0  0
  4  5  2  0  0  0  0
  4 28  1  0  0  0  0
  5  6  1  0  0  0  0
  5 14  1  0  0  0  0
  6  7  2  0  0  0  0
  6 29  1  0  0  0  0
  7  8  1  0  0  0  0
  7 30  1  0  0  0  0
  8  9  1  0  0  0  0
  9 10  1  0  0  0  0
 10 11  1  0  0  0  0
 10 31  1  0  0  0  0
 10 32  1  0  0  0  0
 11 12  2  0  0  0  0
 11 13  1  0  0  0  0
 13 33  1  0  0  0  0
 13 34  1  0  0  0  0
 14 15  2  0  0  0  0
 14 35  1  0  0  0  0
 15 16  1  0  0  0  0
 16 17  1  0  0  0  0
 16 36  1  0  0  0  0
 17 18  2  0  0  0  0
 17 19  1  0  0  0  0
 19 20  1  0  0  0  0
 19 37  1  0  0  0  0
 19 38  1  0  0  0  0
 20 24  1  0  0  0  0
 20 21  1  0  0  0  0
 21 22  2  0  0  0  0
 21 39  1  0  0  0  0
 22 23  1  0  0  0  0
 23 24  2  0  0  0  0
 23 40  1  0  0  0  0
M  END
> <Name>
ZINC00547494

> <reference>
BDB5024

> <quality>
0.677

> <status>
decoy

> <atoms in reference ligand area>
10

> <score>
-27.0717

$$$$
ZINC20341969
      BALL 1.4.0 (Jan  4 2012, 23:22:29)

 39 39  0999  0  0  0  0  0  0999 V2000
  -35.2144    7.8144  -28.4249 C   0  0  0  0  0  0  0  0  0  0  0  0
  -34.8982    7.9609  -26.9352 C   0  0  0  0  0  0  0  0  0  0  0  0
  -34.9890    6.6473  -26.2839 N   0  0  0  0  0  0  0  0  0  0  0  0
  -36.2719    6.4938  -25.5848 C   0  0  0  0  0  0  0  0  0  0  0  0
  -36.2697    5.1823  -24.7970 C   0  0  0  0  0  0  0  0  0  0  0  0
  -36.5707    5.4498  -23.4259 O   0  0  0  0  0  0  0  0  0  0  0  0
  -33.8611    6.4353  -25.3669 C   0  0  0  0  0  0  0  0  0  0  0  0
  -33.7246    7.6272  -24.4547 C   0  0  0  0  0  0  0  0  0  0  0  0
  -33.6323    8.7419  -24.9232 O   0  0  0  0  0  0  0  0  0  0  0  0
  -33.7050    7.4540  -23.1183 N   0  0  0  0  0  0  0  0  0  0  0  0
  -33.5794    8.5501  -22.2792 C   0  0  0  0  0  0  0  0  0  0  0  0
  -32.6453    9.5792  -22.3359 C   0  0  0  0  0  0  0  0  0  0  0  0
  -32.7514   10.6077  -21.3280 C   0  0  0  0  0  0  0  0  0  0  0  0
  -33.7366   10.4801  -20.4216 C   0  0  0  0  0  0  0  0  0  0  0  0
  -34.5458    8.9692  -20.9049 S   0  0  0  0  0  0  0  0  0  0  0  0
  -34.0741   11.3951  -19.2727 C   0  0  0  0  0  0  0  0  0  0  0  0
  -31.7983   11.7745  -21.2931 C   0  0  0  0  0  0  0  0  0  0  0  0
  -31.6093    9.6205  -23.3700 C   0  0  0  0  0  0  0  0  0  0  0  0
  -30.8030    8.7143  -23.4598 O   0  0  0  0  0  0  0  0  0  0  0  0
  -31.5491   10.6637  -24.2230 O   0  5  0  0  0  0  0  0  0  0  0  0
  -36.0461    7.1067  -28.5564 H   0  0  0  0  0  0  0  0  0  0  0  0
  -34.3265    7.4383  -28.9540 H   0  0  0  0  0  0  0  0  0  0  0  0
  -35.4988    8.7935  -28.8381 H   0  0  0  0  0  0  0  0  0  0  0  0
  -33.8804    8.3602  -26.8138 H   0  0  0  0  0  0  0  0  0  0  0  0
  -35.6200    8.6497  -26.4720 H   0  0  0  0  0  0  0  0  0  0  0  0
  -37.0911    6.4784  -26.3187 H   0  0  0  0  0  0  0  0  0  0  0  0
  -36.4156    7.3366  -24.8926 H   0  0  0  0  0  0  0  0  0  0  0  0
  -35.2780    4.7117  -24.8689 H   0  0  0  0  0  0  0  0  0  0  0  0
  -37.0287    4.5034  -25.2127 H   0  0  0  0  0  0  0  0  0  0  0  0
  -37.4636    5.8724  -23.3594 H   0  0  0  0  0  0  0  0  0  0  0  0
  -34.0423    5.5325  -24.7651 H   0  0  0  0  0  0  0  0  0  0  0  0
  -32.9345    6.3100  -25.9464 H   0  0  0  0  0  0  0  0  0  0  0  0
  -33.7833    6.5072  -22.7204 H   0  0  0  0  0  0  0  0  0  0  0  0
  -35.1299   11.6276  -19.4757 H   0  0  0  0  0  0  0  0  0  0  0  0
  -33.5177   12.3051  -19.5416 H   0  0  0  0  0  0  0  0  0  0  0  0
  -33.8759   11.0226  -18.2569 H   0  0  0  0  0  0  0  0  0  0  0  0
  -31.5072   11.8560  -20.2355 H   0  0  0  0  0  0  0  0  0  0  0  0
  -32.4294   12.6477  -21.5151 H   0  0  0  0  0  0  0  0  0  0  0  0
  -30.9360   11.6847  -21.9701 H   0  0  0  0  0  0  0  0  0  0  0  0
  1  2  1  0  0  0  0
  1 21  1  0  0  0  0
  1 22  1  0  0  0  0
  1 23  1  0  0  0  0
  2  3  1  0  0  0  0
  2 24  1  0  0  0  0
  2 25  1  0  0  0  0
  3  4  1  0  0  0  0
  3  7  1  0  0  0  0
  4  5  1  0  0  0  0
  4 26  1  0  0  0  0
  4 27  1  0  0  0  0
  5  6  1  0  0  0  0
  5 28  1  0  0  0  0
  5 29  1  0  0  0  0
  6 30  1  0  0  0  0
  7  8  1  0  0  0  0
  7 31  1  0  0  0  0
  7 32  1  0  0  0  0
  8  9  2  0  0  0  0
  8 10  1  0  0  0  0
 10 11  1  0  0  0  0
 10 33  1  0  0  0  0
 11 15  1  0  0  0  0
 11 12  2  0  0  0  0
 12 13  1  0  0  0  0
 12 18  1  0  0  0  0
 13 14  2  0  0  0  0
 13 17  1  0  0  0  0
 14 15  1  0  0  0  0
 14 16  1  0  0  0  0
 16 34  1  0  0  0  0
 16 35  1  0  0  0  0
 16 36  1  0  0  0  0
 17 37  1  0  0  0  0
 17 38  1  0  0  0  0
 17 39  1  0  0  0  0
 18 19  2  0  0  0  0
 18 20  1  0  0  0  0
M  END
> <Name>
ZINC20341969

> <reference>
BDB4995

> <quality>
0.767

> <status>
decoy

> <atoms in reference ligand area>
10

> <score>
-27.0605

$$$$
ZINC05838514
      BALL 1.4.0 (Jan  4 2012, 23:22:29)

 46 48  0999  0  0  0  0  0  0999 V2000
  -32.4554   14.4372  -21.3355 C   0  0  0  0  0  0  0  0  0  0  0  0
  -33.2776   13.2050  -21.7183 C   0  0  0  0  0  0  0  0  0  0  0  0
  -33.8831   12.5843  -20.4576 C   0  0  0  0  0  0  0  0  0  0  0  0
  -33.5870   11.0833  -20.4356 C   0  0  0  0  0  0  0  0  0  0  0  0
  -34.0194    9.0637  -21.6992 C   0  0  0  0  0  0  0  0  0  0  0  0
  -34.7351    8.5423  -22.9654 C   0  0  0  0  0  0  0  0  0  0  0  0
  -35.4314    7.2456  -22.4959 C   0  0  0  0  0  0  0  0  0  0  0  0
  -34.6701    6.8131  -21.3472 O   0  0  0  0  0  0  0  0  0  0  0  0
  -34.3679    8.0204  -20.6146 C   0  0  0  0  0  0  0  0  0  0  0  0
  -33.2223    7.8052  -19.7272 N   0  0  0  0  0  0  0  0  0  0  0  0
  -32.1837    6.9493  -19.9440 C   0  0  0  0  0  0  0  0  0  0  0  0
  -31.3423    7.0112  -18.9532 N   0  0  0  0  0  0  0  0  0  0  0  0
  -31.7860    7.9082  -18.0400 C   0  0  0  0  0  0  0  0  0  0  0  0
  -32.9978    8.4284  -18.5257 C   0  0  0  0  0  0  0  0  0  0  0  0
  -33.6438    9.3398  -17.8061 N   0  0  0  0  0  0  0  0  0  0  0  0
  -33.1588    9.7523  -16.6539 C   0  0  0  0  0  0  0  0  0  0  0  0
  -32.0247    9.2933  -16.1573 N   0  0  0  0  0  0  0  0  0  0  0  0
  -31.3068    8.3831  -16.8076 C   0  0  0  0  0  0  0  0  0  0  0  0
  -30.1162    7.9126  -16.2819 N   0  0  0  0  0  0  0  0  0  0  0  0
  -35.3816    6.1853  -23.5978 C   0  0  0  0  0  0  0  0  0  0  0  0
  -36.4630    5.2674  -23.4248 O   0  0  0  0  0  0  0  0  0  0  0  0
  -33.7866    8.2595  -23.9961 O   0  0  0  0  0  0  0  0  0  0  0  0
  -34.5433   10.3890  -21.3183 N   0  3  0  0  0  0  0  0  0  0  0  0
  -32.8674   15.3248  -21.8379 H   0  0  0  0  0  0  0  0  0  0  0  0
  -31.4101   14.2928  -21.6462 H   0  0  0  0  0  0  0  0  0  0  0  0
  -32.4961   14.5820  -20.2459 H   0  0  0  0  0  0  0  0  0  0  0  0
  -34.0848   13.5012  -22.4044 H   0  0  0  0  0  0  0  0  0  0  0  0
  -32.6277   12.4682  -22.2130 H   0  0  0  0  0  0  0  0  0  0  0  0
  -33.4424   13.0575  -19.5678 H   0  0  0  0  0  0  0  0  0  0  0  0
  -34.9716   12.7425  -20.4561 H   0  0  0  0  0  0  0  0  0  0  0  0
  -32.5620   10.9056  -20.7929 H   0  0  0  0  0  0  0  0  0  0  0  0
  -33.6918   10.7020  -19.4091 H   0  0  0  0  0  0  0  0  0  0  0  0
  -32.9357    9.1824  -21.8454 H   0  0  0  0  0  0  0  0  0  0  0  0
  -35.4416    9.2733  -23.3855 H   0  0  0  0  0  0  0  0  0  0  0  0
  -36.4926    7.4065  -22.2555 H   0  0  0  0  0  0  0  0  0  0  0  0
  -35.2066    8.3435  -19.9804 H   0  0  0  0  0  0  0  0  0  0  0  0
  -32.0732    6.3019  -20.8264 H   0  0  0  0  0  0  0  0  0  0  0  0
  -33.7192   10.5076  -16.0835 H   0  0  0  0  0  0  0  0  0  0  0  0
  -29.5477    8.5299  -15.6846 H   0  0  0  0  0  0  0  0  0  0  0  0
  -29.7996    6.9538  -16.4852 H   0  0  0  0  0  0  0  0  0  0  0  0
  -35.4687    6.6728  -24.5800 H   0  0  0  0  0  0  0  0  0  0  0  0
  -34.4272    5.6413  -23.5418 H   0  0  0  0  0  0  0  0  0  0  0  0
  -37.3228    5.7554  -23.4760 H   0  0  0  0  0  0  0  0  0  0  0  0
  -33.5365    9.1052  -24.4460 H   0  0  0  0  0  0  0  0  0  0  0  0
  -34.6961   10.9516  -22.1674 H   0  0  0  0  0  0  0  0  0  0  0  0
  -35.4401   10.2721  -20.8254 H   0  0  0  0  0  0  0  0  0  0  0  0
  1  2  1  0  0  0  0
  1 24  1  0  0  0  0
  1 25  1  0  0  0  0
  1 26  1  0  0  0  0
  2  3  1  0  0  0  0
  2 27  1  0  0  0  0
  2 28  1  0  0  0  0
  3  4  1  0  0  0  0
  3 29  1  0  0  0  0
  3 30  1  0  0  0  0
  4 23  1  0  0  0  0
  4 31  1  0  0  0  0
  4 32  1  0  0  0  0
  5  9  1  0  0  0  0
  5  6  1  0  0  0  0
  5 23  1  0  0  0  0
  5 33  1  0  0  0  0
  6  7  1  0  0  0  0
  6 22  1  0  0  0  0
  6 34  1  0  0  0  0
  7  8  1  0  0  0  0
  7 20  1  0  0  0  0
  7 35  1  0  0  0  0
  8  9  1  0  0  0  0
  9 10  1  0  0  0  0
  9 36  1  0  0  0  0
 10 14  1  0  0  0  0
 10 11  1  0  0  0  0
 11 12  2  0  0  0  0
 11 37  1  0  0  0  0
 12 13  1  0  0  0  0
 13 18  2  0  0  0  0
 13 14  1  0  0  0  0
 14 15  2  0  0  0  0
 15 16  1  0  0  0  0
 16 17  2  0  0  0  0
 16 38  1  0  0  0  0
 17 18  1  0  0  0  0
 18 19  1  0  0  0  0
 19 39  1  0  0  0  0
 19 40  1  0  0  0  0
 20 21  1  0  0  0  0
 20 41  1  0  0  0  0
 20 42  1  0  0  0  0
 21 43  1  0  0  0  0
 22 44  1  0  0  0  0
 23 45  1  0  0  0  0
 23 46  1  0  0  0  0
M  END
> <Name>
ZINC05838514

> <reference>
BDB5198

> <quality>
0.779

> <status>
decoy

> <atoms in reference ligand area>
11

> <score>
-27.0537

$$$$
ZINC27856025
      BALL 1.4.0 (Jan  4 2012, 23:22:29)

 63 66  0999  0  0  0  0  0  0999 V2000
  -32.2282    4.8408  -27.9333 C   0  0  0  0  0  0  0  0  0  0  0  0
  -33.0573    3.9803  -28.6246 C   0  0  0  0  0  0  0  0  0  0  0  0
  -34.3400    4.3820  -28.9728 C   0  0  0  0  0  0  0  0  0  0  0  0
  -34.7907    5.6475  -28.6211 C   0  0  0  0  0  0  0  0  0  0  0  0
  -33.9637    6.5059  -27.9248 C   0  0  0  0  0  0  0  0  0  0  0  0
  -32.6809    6.1042  -27.5766 C   0  0  0  0  0  0  0  0  0  0  0  0
  -31.8414    6.9755  -26.8704 N   0  0  0  0  0  0  0  0  0  0  0  0
  -32.0472    7.1921  -25.5562 C   0  0  0  0  0  0  0  0  0  0  0  0
  -33.0078    6.6993  -25.0034 O   0  0  0  0  0  0  0  0  0  0  0  0
  -31.0836    8.0464  -24.7734 C   0  0  0  0  0  0  0  0  0  0  0  0
  -31.8627    8.9313  -23.7983 C   0  0  0  0  0  0  0  0  0  0  0  0
  -30.8846    9.7988  -23.0036 C   0  0  0  0  0  0  0  0  0  0  0  0
  -31.6300   10.8083  -22.2477 N   0  0  0  0  0  0  0  0  0  0  0  0
  -31.1476   12.0295  -21.9314 C   0  0  0  0  0  0  0  0  0  0  0  0
  -30.0563   12.4822  -22.2029 O   0  0  0  0  0  0  0  0  0  0  0  0
  -32.2558   12.7093  -21.1684 C   0  0  0  0  0  0  0  0  0  0  0  0
  -32.7057   13.9939  -21.8770 C   0  0  0  0  0  0  0  0  0  0  0  0
  -33.0639   14.9569  -20.7154 C   0  0  0  0  0  0  0  0  0  0  0  0
  -31.9885   14.6266  -19.6497 C   0  0  0  0  0  0  0  0  0  0  0  0
  -31.8037   13.0966  -19.7585 C   0  0  0  0  0  0  0  0  0  0  0  0
  -33.3352   11.7206  -21.1308 N   0  5  0  0  0  0  0  0  0  0  0  0
  -32.8767   10.6371  -21.7893 C   0  0  0  0  0  0  0  0  0  0  0  0
  -33.5222    9.6199  -21.9493 O   0  0  0  0  0  0  0  0  0  0  0  0
  -35.1794    3.5107  -29.6795 N   0  0  0  0  0  0  0  0  0  0  0  0
  -36.5060    3.5120  -29.4415 C   0  0  0  0  0  0  0  0  0  0  0  0
  -36.9449    4.0600  -28.4487 O   0  0  0  0  0  0  0  0  0  0  0  0
  -37.3460    2.9058  -30.3037 N   0  0  0  0  0  0  0  0  0  0  0  0
  -37.6869    1.4926  -30.1228 C   0  0  0  0  0  0  0  0  0  0  0  0
  -37.2574    0.7020  -31.3603 C   0  0  0  0  0  0  0  0  0  0  0  0
  -35.9523    1.2860  -31.9452 C   0  0  0  0  0  0  0  0  0  0  0  0
  -36.1367    1.1598  -33.4741 C   0  0  0  0  0  0  0  0  0  0  0  0
  -37.5314    0.5146  -33.6320 C   0  0  0  0  0  0  0  0  0  0  0  0
  -38.2329    0.8498  -32.4149 O   0  0  0  0  0  0  0  0  0  0  0  0
  -31.2090    4.5257  -27.6651 H   0  0  0  0  0  0  0  0  0  0  0  0
  -32.7017    2.9763  -28.8996 H   0  0  0  0  0  0  0  0  0  0  0  0
  -35.8067    5.9659  -28.8974 H   0  0  0  0  0  0  0  0  0  0  0  0
  -34.3209    7.5082  -27.6458 H   0  0  0  0  0  0  0  0  0  0  0  0
  -31.0670    7.4506  -27.3556 H   0  0  0  0  0  0  0  0  0  0  0  0
  -30.3941    7.4001  -24.2104 H   0  0  0  0  0  0  0  0  0  0  0  0
  -30.5095    8.6809  -25.4646 H   0  0  0  0  0  0  0  0  0  0  0  0
  -32.5522    9.5782  -24.3607 H   0  0  0  0  0  0  0  0  0  0  0  0
  -32.4366    8.2984  -23.1054 H   0  0  0  0  0  0  0  0  0  0  0  0
  -30.3156    9.1658  -22.3067 H   0  0  0  0  0  0  0  0  0  0  0  0
  -30.1903   10.2984  -23.6954 H   0  0  0  0  0  0  0  0  0  0  0  0
  -33.5957   13.7969  -22.4927 H   0  0  0  0  0  0  0  0  0  0  0  0
  -31.8781   14.4092  -22.4709 H   0  0  0  0  0  0  0  0  0  0  0  0
  -32.9664   16.0024  -21.0432 H   0  0  0  0  0  0  0  0  0  0  0  0
  -34.0674   14.7296  -20.3263 H   0  0  0  0  0  0  0  0  0  0  0  0
  -32.3540   14.8926  -18.6469 H   0  0  0  0  0  0  0  0  0  0  0  0
  -31.0458   15.1394  -19.8917 H   0  0  0  0  0  0  0  0  0  0  0  0
  -30.7435   12.8379  -19.6199 H   0  0  0  0  0  0  0  0  0  0  0  0
  -32.4326   12.5904  -19.0114 H   0  0  0  0  0  0  0  0  0  0  0  0
  -34.7826    2.8692  -30.3809 H   0  0  0  0  0  0  0  0  0  0  0  0
  -37.7481    3.4361  -31.0897 H   0  0  0  0  0  0  0  0  0  0  0  0
  -38.7733    1.3913  -29.9827 H   0  0  0  0  0  0  0  0  0  0  0  0
  -37.1649    1.0996  -29.2379 H   0  0  0  0  0  0  0  0  0  0  0  0
  -37.1404   -0.3453  -31.0451 H   0  0  0  0  0  0  0  0  0  0  0  0
  -35.0886    0.6885  -31.6180 H   0  0  0  0  0  0  0  0  0  0  0  0
  -35.8507    2.3443  -31.6627 H   0  0  0  0  0  0  0  0  0  0  0  0
  -35.3647    0.4997  -33.8965 H   0  0  0  0  0  0  0  0  0  0  0  0
  -36.1258    2.1560  -33.9405 H   0  0  0  0  0  0  0  0  0  0  0  0
  -38.0503    0.9480  -34.4997 H   0  0  0  0  0  0  0  0  0  0  0  0
  -37.4335   -0.5772  -33.7239 H   0  0  0  0  0  0  0  0  0  0  0  0
  1  6  2  0  0  0  0
  1  2  1  0  0  0  0
  1 34  1  0  0  0  0
  2  3  2  0  0  0  0
  2 35  1  0  0  0  0
  3  4  1  0  0  0  0
  3 24  1  0  0  0  0
  4  5  2  0  0  0  0
  4 36  1  0  0  0  0
  5  6  1  0  0  0  0
  5 37  1  0  0  0  0
  6  7  1  0  0  0  0
  7  8  1  0  0  0  0
  7 38  1  0  0  0  0
  8  9  2  0  0  0  0
  8 10  1  0  0  0  0
 10 11  1  0  0  0  0
 10 39  1  0  0  0  0
 10 40  1  0  0  0  0
 11 12  1  0  0  0  0
 11 41  1  0  0  0  0
 11 42  1  0  0  0  0
 12 13  1  0  0  0  0
 12 43  1  0  0  0  0
 12 44  1  0  0  0  0
 13 22  1  0  0  0  0
 13 14  1  0  0  0  0
 14 15  2  0  0  0  0
 14 16  1  0  0  0  0
 16 20  1  0  0  0  0
 16 17  1  0  0  0  0
 16 21  1  0  0  0  0
 17 18  1  0  0  0  0
 17 45  1  0  0  0  0
 17 46  1  0  0  0  0
 18 19  1  0  0  0  0
 18 47  1  0  0  0  0
 18 48  1  0  0  0  0
 19 20  1  0  0  0  0
 19 49  1  0  0  0  0
 19 50  1  0  0  0  0
 20 51  1  0  0  0  0
 20 52  1  0  0  0  0
 21 22  1  0  0  0  0
 22 23  2  0  0  0  0
 24 25  1  0  0  0  0
 24 53  1  0  0  0  0
 25 26  2  0  0  0  0
 25 27  1  0  0  0  0
 27 28  1  0  0  0  0
 27 54  1  0  0  0  0
 28 29  1  0  0  0  0
 28 55  1  0  0  0  0
 28 56  1  0  0  0  0
 29 33  1  0  0  0  0
 29 30  1  0  0  0  0
 29 57  1  0  0  0  0
 30 31  1  0  0  0  0
 30 58  1  0  0  0  0
 30 59  1  0  0  0  0
 31 32  1  0  0  0  0
 31 60  1  0  0  0  0
 31 61  1  0  0  0  0
 32 33  1  0  0  0  0
 32 62  1  0  0  0  0
 32 63  1  0  0  0  0
M  END
> <Name>
ZINC27856025

> <reference>
BDB4968

> <quality>
0.733

> <status>
decoy

> <atoms in reference ligand area>
14

> <score>
-27.0321

$$$$
ZINC20185343
      BALL 1.4.0 (Jan  4 2012, 23:22:29)

 38 39  0999  0  0  0  0  0  0999 V2000
  -33.2023   12.8895  -17.2840 C   0  0  0  0  0  0  0  0  0  0  0  0
  -33.4047   12.8468  -18.8000 C   0  0  0  0  0  0  0  0  0  0  0  0
  -32.1425   13.1688  -19.4704 N   0  0  0  0  0  0  0  0  0  0  0  0
  -31.6639   12.3468  -20.4786 C   0  0  0  0  0  0  0  0  0  0  0  0
  -30.4867   12.3648  -21.0742 N   0  0  0  0  0  0  0  0  0  0  0  0
  -30.1887   11.4980  -22.0240 C   0  0  0  0  0  0  0  0  0  0  0  0
  -31.1255   10.5895  -22.3863 C   0  0  0  0  0  0  0  0  0  0  0  0
  -32.4624   11.0339  -21.2873 S   0  0  0  0  0  0  0  0  0  0  0  0
  -28.8394   11.5230  -22.6945 C   0  0  0  0  0  0  0  0  0  0  0  0
  -28.1355   12.8434  -22.3752 C   0  0  0  0  0  0  0  0  0  0  0  0
  -26.8722   12.5687  -21.6775 N   0  3  0  0  0  0  0  0  0  0  0  0
  -31.3863   14.3596  -19.0752 C   0  0  0  0  0  0  0  0  0  0  0  0
  -30.0983   13.9301  -18.3533 C   0  0  0  0  0  0  0  0  0  0  0  0
  -29.1758   15.1761  -18.2272 C   0  0  0  0  0  0  0  0  0  0  0  0
  -29.4225   15.9473  -19.8820 S   0  0  0  0  0  0  0  0  0  0  0  0
  -28.4201   15.4702  -20.7689 O   0  0  0  0  0  0  0  0  0  0  0  0
  -29.6022   17.3474  -19.7181 O   0  0  0  0  0  0  0  0  0  0  0  0
  -31.0343   15.1863  -20.3355 C   0  0  0  0  0  0  0  0  0  0  0  0
  -33.4318   11.9031  -16.8545 H   0  0  0  0  0  0  0  0  0  0  0  0
  -33.8710   13.6446  -16.8448 H   0  0  0  0  0  0  0  0  0  0  0  0
  -32.1578   13.1517  -17.0601 H   0  0  0  0  0  0  0  0  0  0  0  0
  -33.7312   11.8396  -19.0982 H   0  0  0  0  0  0  0  0  0  0  0  0
  -34.1707   13.5813  -19.0896 H   0  0  0  0  0  0  0  0  0  0  0  0
  -31.0767    9.7966  -23.1472 H   0  0  0  0  0  0  0  0  0  0  0  0
  -28.2305   10.6848  -22.3247 H   0  0  0  0  0  0  0  0  0  0  0  0
  -28.9678   11.4307  -23.7830 H   0  0  0  0  0  0  0  0  0  0  0  0
  -27.9272   13.3835  -23.3105 H   0  0  0  0  0  0  0  0  0  0  0  0
  -28.7821   13.4589  -21.7326 H   0  0  0  0  0  0  0  0  0  0  0  0
  -26.8156   13.1474  -20.8273 H   0  0  0  0  0  0  0  0  0  0  0  0
  -26.0807   12.7922  -22.2976 H   0  0  0  0  0  0  0  0  0  0  0  0
  -26.8326   11.5730  -21.4171 H   0  0  0  0  0  0  0  0  0  0  0  0
  -31.9930   14.9765  -18.3959 H   0  0  0  0  0  0  0  0  0  0  0  0
  -30.3450   13.5503  -17.3509 H   0  0  0  0  0  0  0  0  0  0  0  0
  -29.5877   13.1504  -18.9377 H   0  0  0  0  0  0  0  0  0  0  0  0
  -29.5384   15.8532  -17.4398 H   0  0  0  0  0  0  0  0  0  0  0  0
  -28.1246   14.8751  -18.1067 H   0  0  0  0  0  0  0  0  0  0  0  0
  -31.7843   15.9730  -20.5043 H   0  0  0  0  0  0  0  0  0  0  0  0
  -30.9042   14.5267  -21.2061 H   0  0  0  0  0  0  0  0  0  0  0  0
  1  2  1  0  0  0  0
  1 19  1  0  0  0  0
  1 20  1  0  0  0  0
  1 21  1  0  0  0  0
  2  3  1  0  0  0  0
  2 22  1  0  0  0  0
  2 23  1  0  0  0  0
  3  4  1  0  0  0  0
  3 12  1  0  0  0  0
  4  8  1  0  0  0  0
  4  5  2  0  0  0  0
  5  6  1  0  0  0  0
  6  7  2  0  0  0  0
  6  9  1  0  0  0  0
  7  8  1  0  0  0  0
  7 24  1  0  0  0  0
  9 10  1  0  0  0  0
  9 25  1  0  0  0  0
  9 26  1  0  0  0  0
 10 11  1  0  0  0  0
 10 27  1  0  0  0  0
 10 28  1  0  0  0  0
 11 29  1  0  0  0  0
 11 30  1  0  0  0  0
 11 31  1  0  0  0  0
 12 18  1  0  0  0  0
 12 13  1  0  0  0  0
 12 32  1  0  0  0  0
 13 14  1  0  0  0  0
 13 33  1  0  0  0  0
 13 34  1  0  0  0  0
 14 15  1  0  0  0  0
 14 35  1  0  0  0  0
 14 36  1  0  0  0  0
 15 16  2  0  0  0  0
 15 17  2  0  0  0  0
 15 18  1  0  0  0  0
 18 37  1  0  0  0  0
 18 38  1  0  0  0  0
M  END
> <Name>
ZINC20185343

> <reference>
BDB5233

> <quality>
0.724

> <status>
decoy

> <atoms in reference ligand area>
23

> <score>
-27.0161

$$$$
ZINC17430523
      BALL 1.4.0 (Jan  4 2012, 23:22:29)

 49 51  0999  0  0  0  0  0  0999 V2000
  -30.7633   16.0066  -19.8494 C   0  0  0  0  0  0  0  0  0  0  0  0
  -32.0861   16.0698  -20.2457 C   0  0  0  0  0  0  0  0  0  0  0  0
  -32.6670   14.9930  -20.8889 C   0  0  0  0  0  0  0  0  0  0  0  0
  -31.9251   13.8531  -21.1362 C   0  0  0  0  0  0  0  0  0  0  0  0
  -30.6037   13.7879  -20.7352 C   0  0  0  0  0  0  0  0  0  0  0  0
  -30.0216   14.8664  -20.0958 C   0  0  0  0  0  0  0  0  0  0  0  0
  -32.5584   12.6791  -21.8375 C   0  0  0  0  0  0  0  0  0  0  0  0
  -31.5966   11.6314  -21.9754 O   0  0  0  0  0  0  0  0  0  0  0  0
  -31.7220   10.6036  -21.0095 N   0  0  0  0  0  0  0  0  0  0  0  0
  -31.8079   10.9225  -19.6699 C   0  0  0  0  0  0  0  0  0  0  0  0
  -32.5618   10.0515  -18.7525 C   0  0  0  0  0  0  0  0  0  0  0  0
  -32.9007   10.3391  -17.4440 C   0  0  0  0  0  0  0  0  0  0  0  0
  -33.5886    9.2563  -16.9764 N   0  0  0  0  0  0  0  0  0  0  0  0
  -33.6649    8.3486  -17.9887 C   0  0  0  0  0  0  0  0  0  0  0  0
  -33.0577    8.8200  -19.0379 N   0  0  0  0  0  0  0  0  0  0  0  0
  -34.1485    9.1015  -15.6315 C   0  0  0  0  0  0  0  0  0  0  0  0
  -33.0192    8.9643  -14.5789 C   0  0  0  0  0  0  0  0  0  0  0  0
  -33.7204    9.4470  -13.2859 C   0  0  0  0  0  0  0  0  0  0  0  0
  -34.9117   10.2834  -13.7921 C   0  0  0  0  0  0  0  0  0  0  0  0
  -34.8413   10.3022  -15.2277 O   0  0  0  0  0  0  0  0  0  0  0  0
  -34.8145   11.7100  -13.2478 C   0  0  0  0  0  0  0  0  0  0  0  0
  -36.1277   12.2162  -13.0008 O   0  0  0  0  0  0  0  0  0  0  0  0
  -34.1816    8.3318  -12.5208 O   0  0  0  0  0  0  0  0  0  0  0  0
  -31.9131    9.8085  -14.9048 O   0  0  0  0  0  0  0  0  0  0  0  0
  -32.5987   11.4984  -16.7427 N   0  0  0  0  0  0  0  0  0  0  0  0
  -33.4694   12.5270  -16.7342 C   0  0  0  0  0  0  0  0  0  0  0  0
  -34.0010   12.8629  -15.6971 O   0  0  0  0  0  0  0  0  0  0  0  0
  -31.2336   11.9997  -19.1458 N   0  0  0  0  0  0  0  0  0  0  0  0
  -30.3008   16.8638  -19.3380 H   0  0  0  0  0  0  0  0  0  0  0  0
  -32.6764   16.9769  -20.0491 H   0  0  0  0  0  0  0  0  0  0  0  0
  -33.7198   15.0431  -21.2041 H   0  0  0  0  0  0  0  0  0  0  0  0
  -30.0156   12.8778  -20.9248 H   0  0  0  0  0  0  0  0  0  0  0  0
  -28.9680   14.8173  -19.7832 H   0  0  0  0  0  0  0  0  0  0  0  0
  -33.4128   12.3164  -21.2471 H   0  0  0  0  0  0  0  0  0  0  0  0
  -32.9065   12.9898  -22.8336 H   0  0  0  0  0  0  0  0  0  0  0  0
  -31.7491    9.6179  -21.3069 H   0  0  0  0  0  0  0  0  0  0  0  0
  -34.1625    7.3695  -17.9284 H   0  0  0  0  0  0  0  0  0  0  0  0
  -34.8043    8.2195  -15.6738 H   0  0  0  0  0  0  0  0  0  0  0  0
  -32.6017    7.9492  -14.5053 H   0  0  0  0  0  0  0  0  0  0  0  0
  -33.0492   10.0209  -12.6299 H   0  0  0  0  0  0  0  0  0  0  0  0
  -35.8645    9.8501  -13.4537 H   0  0  0  0  0  0  0  0  0  0  0  0
  -34.2410   11.7061  -12.3091 H   0  0  0  0  0  0  0  0  0  0  0  0
  -34.3078   12.3508  -13.9844 H   0  0  0  0  0  0  0  0  0  0  0  0
  -36.1698   12.5956  -12.0874 H   0  0  0  0  0  0  0  0  0  0  0  0
  -34.8801    8.6390  -11.8901 H   0  0  0  0  0  0  0  0  0  0  0  0
  -31.1103    9.4840  -14.4248 H   0  0  0  0  0  0  0  0  0  0  0  0
  -31.7091   11.5725  -16.2289 H   0  0  0  0  0  0  0  0  0  0  0  0
  -33.6981   13.0619  -17.6679 H   0  0  0  0  0  0  0  0  0  0  0  0
  -30.7031   12.6173  -19.7767 H   0  0  0  0  0  0  0  0  0  0  0  0
  1  6  2  0  0  0  0
  1  2  1  0  0  0  0
  1 29  1  0  0  0  0
  2  3  2  0  0  0  0
  2 30  1  0  0  0  0
  3  4  1  0  0  0  0
  3 31  1  0  0  0  0
  4  5  2  0  0  0  0
  4  7  1  0  0  0  0
  5  6  1  0  0  0  0
  5 32  1  0  0  0  0
  6 33  1  0  0  0  0
  7  8  1  0  0  0  0
  7 34  1  0  0  0  0
  7 35  1  0  0  0  0
  8  9  1  0  0  0  0
  9 10  1  0  0  0  0
  9 36  1  0  0  0  0
 10 11  1  0  0  0  0
 10 28  2  0  0  0  0
 11 15  1  0  0  0  0
 11 12  2  0  0  0  0
 12 13  1  0  0  0  0
 12 25  1  0  0  0  0
 13 14  1  0  0  0  0
 13 16  1  0  0  0  0
 14 15  2  0  0  0  0
 14 37  1  0  0  0  0
 16 20  1  0  0  0  0
 16 17  1  0  0  0  0
 16 38  1  0  0  0  0
 17 18  1  0  0  0  0
 17 24  1  0  0  0  0
 17 39  1  0  0  0  0
 18 19  1  0  0  0  0
 18 23  1  0  0  0  0
 18 40  1  0  0  0  0
 19 20  1  0  0  0  0
 19 21  1  0  0  0  0
 19 41  1  0  0  0  0
 21 22  1  0  0  0  0
 21 42  1  0  0  0  0
 21 43  1  0  0  0  0
 22 44  1  0  0  0  0
 23 45  1  0  0  0  0
 24 46  1  0  0  0  0
 25 26  1  0  0  0  0
 25 47  1  0  0  0  0
 26 27  2  0  0  0  0
 26 48  1  0  0  0  0
 28 49  1  0  0  0  0
M  END
> <Name>
ZINC17430523

> <reference>
BDB4945

> <quality>
0.724

> <status>
decoy

> <atoms in reference ligand area>
12

> <score>
-27.0119

$$$$
ZINC12483756
      BALL 1.4.0 (Jan  4 2012, 23:22:29)

 48 50  0999  0  0  0  0  0  0999 V2000
  -28.1216   12.5434  -22.6915 C   0  0  0  0  0  0  0  0  0  0  0  0
  -28.5222   11.1725  -22.6438 O   0  0  0  0  0  0  0  0  0  0  0  0
  -29.0894   10.6900  -23.8634 C   0  0  0  0  0  0  0  0  0  0  0  0
  -30.5208   10.2141  -23.6070 C   0  0  0  0  0  0  0  0  0  0  0  0
  -32.2670   10.0711  -21.9358 C   0  0  0  0  0  0  0  0  0  0  0  0
  -33.0811   11.2471  -21.3855 C   0  0  0  0  0  0  0  0  0  0  0  0
  -32.5569   11.6187  -19.9938 C   0  0  0  0  0  0  0  0  0  0  0  0
  -32.5193   10.3471  -19.1301 C   0  0  0  0  0  0  0  0  0  0  0  0
  -33.8499    9.5899  -19.3492 C   0  0  0  0  0  0  0  0  0  0  0  0
  -33.5959    8.7066  -20.4565 O   0  0  0  0  0  0  0  0  0  0  0  0
  -32.2434    8.9499  -20.8854 C   0  0  0  0  0  0  0  0  0  0  0  0
  -31.5453    9.4544  -19.7256 O   0  0  0  0  0  0  0  0  0  0  0  0
  -30.8907   13.0419  -18.9638 C   0  0  0  0  0  0  0  0  0  0  0  0
  -29.4972   13.5948  -19.1170 C   0  0  0  0  0  0  0  0  0  0  0  0
  -28.8825   14.4276  -18.2580 C   0  0  0  0  0  0  0  0  0  0  0  0
  -27.5976   14.6872  -18.7877 C   0  0  0  0  0  0  0  0  0  0  0  0
  -27.5071   14.0040  -19.9429 C   0  0  0  0  0  0  0  0  0  0  0  0
  -28.6606   13.3442  -20.1373 O   0  0  0  0  0  0  0  0  0  0  0  0
  -26.3139   13.9831  -20.8632 C   0  0  0  0  0  0  0  0  0  0  0  0
  -25.7516   15.2943  -20.9440 O   0  0  0  0  0  0  0  0  0  0  0  0
  -34.4570   10.8729  -21.2929 O   0  0  0  0  0  0  0  0  0  0  0  0
  -30.8891   10.5198  -22.2118 N   0  3  0  0  0  0  0  0  0  0  0  0
  -31.1963   12.1749  -20.1174 N   0  0  0  0  0  0  0  0  0  0  0  0
  -28.7664   13.0520  -23.4232 H   0  0  0  0  0  0  0  0  0  0  0  0
  -27.0858   12.5735  -23.0604 H   0  0  0  0  0  0  0  0  0  0  0  0
  -28.1987   13.0216  -21.7038 H   0  0  0  0  0  0  0  0  0  0  0  0
  -28.4873    9.8512  -24.2425 H   0  0  0  0  0  0  0  0  0  0  0  0
  -29.1005   11.4994  -24.6082 H   0  0  0  0  0  0  0  0  0  0  0  0
  -31.2088   10.7333  -24.2905 H   0  0  0  0  0  0  0  0  0  0  0  0
  -30.5837    9.1286  -23.7737 H   0  0  0  0  0  0  0  0  0  0  0  0
  -32.7216    9.6994  -22.8659 H   0  0  0  0  0  0  0  0  0  0  0  0
  -32.9827   12.1110  -22.0593 H   0  0  0  0  0  0  0  0  0  0  0  0
  -33.2124   12.3690  -19.5278 H   0  0  0  0  0  0  0  0  0  0  0  0
  -32.3191   10.6096  -18.0808 H   0  0  0  0  0  0  0  0  0  0  0  0
  -34.1032    9.0075  -18.4511 H   0  0  0  0  0  0  0  0  0  0  0  0
  -34.6494   10.2998  -19.6075 H   0  0  0  0  0  0  0  0  0  0  0  0
  -31.7746    8.0453  -21.3002 H   0  0  0  0  0  0  0  0  0  0  0  0
  -30.9530   12.4540  -18.0361 H   0  0  0  0  0  0  0  0  0  0  0  0
  -31.6137   13.8701  -18.9256 H   0  0  0  0  0  0  0  0  0  0  0  0
  -29.2995   14.8295  -17.3227 H   0  0  0  0  0  0  0  0  0  0  0  0
  -26.8210   15.3255  -18.3410 H   0  0  0  0  0  0  0  0  0  0  0  0
  -26.6283   13.6573  -21.8656 H   0  0  0  0  0  0  0  0  0  0  0  0
  -25.5600   13.2850  -20.4704 H   0  0  0  0  0  0  0  0  0  0  0  0
  -25.3229   15.5243  -20.0818 H   0  0  0  0  0  0  0  0  0  0  0  0
  -34.9178   11.0944  -22.1406 H   0  0  0  0  0  0  0  0  0  0  0  0
  -30.8240   11.5358  -22.0552 H   0  0  0  0  0  0  0  0  0  0  0  0
  -30.2396   10.0381  -21.5738 H   0  0  0  0  0  0  0  0  0  0  0  0
  -30.5143   11.4040  -20.1544 H   0  0  0  0  0  0  0  0  0  0  0  0
  1  2  1  0  0  0  0
  1 24  1  0  0  0  0
  1 25  1  0  0  0  0
  1 26  1  0  0  0  0
  2  3  1  0  0  0  0
  3  4  1  0  0  0  0
  3 27  1  0  0  0  0
  3 28  1  0  0  0  0
  4 22  1  0  0  0  0
  4 29  1  0  0  0  0
  4 30  1  0  0  0  0
  5 11  1  0  0  0  0
  5  6  1  0  0  0  0
  5 22  1  0  0  0  0
  5 31  1  0  0  0  0
  6  7  1  0  0  0  0
  6 21  1  0  0  0  0
  6 32  1  0  0  0  0
  7  8  1  0  0  0  0
  7 23  1  0  0  0  0
  7 33  1  0  0  0  0
  8 12  1  0  0  0  0
  8  9  1  0  0  0  0
  8 34  1  0  0  0  0
  9 10  1  0  0  0  0
  9 35  1  0  0  0  0
  9 36  1  0  0  0  0
 10 11  1  0  0  0  0
 11 12  1  0  0  0  0
 11 37  1  0  0  0  0
 13 14  1  0  0  0  0
 13 23  1  0  0  0  0
 13 38  1  0  0  0  0
 13 39  1  0  0  0  0
 14 18  1  0  0  0  0
 14 15  2  0  0  0  0
 15 16  1  0  0  0  0
 15 40  1  0  0  0  0
 16 17  2  0  0  0  0
 16 41  1  0  0  0  0
 17 18  1  0  0  0  0
 17 19  1  0  0  0  0
 19 20  1  0  0  0  0
 19 42  1  0  0  0  0
 19 43  1  0  0  0  0
 20 44  1  0  0  0  0
 21 45  1  0  0  0  0
 22 46  1  0  0  0  0
 22 47  1  0  0  0  0
 23 48  1  0  0  0  0
M  END
> <Name>
ZINC12483756

> <reference>
BDB5023

> <quality>
0.670

> <status>
decoy

> <atoms in reference ligand area>
30

> <score>
-27.0039

$$$$
ZINC20423298
      BALL 1.4.0 (Jan  4 2012, 23:22:29)

 41 41  0999  0  0  0  0  0  0999 V2000
  -32.1839    8.4936  -14.0024 C   0  0  0  0  0  0  0  0  0  0  0  0
  -33.4236    8.9258  -14.5669 O   0  0  0  0  0  0  0  0  0  0  0  0
  -33.4130    9.2841  -15.8777 C   0  0  0  0  0  0  0  0  0  0  0  0
  -32.6059   10.3279  -16.3047 C   0  0  0  0  0  0  0  0  0  0  0  0
  -32.5919   10.6906  -17.6431 C   0  0  0  0  0  0  0  0  0  0  0  0
  -33.3919   10.0156  -18.5529 C   0  0  0  0  0  0  0  0  0  0  0  0
  -34.2028    8.9753  -18.1249 C   0  0  0  0  0  0  0  0  0  0  0  0
  -34.2135    8.6097  -16.7872 C   0  0  0  0  0  0  0  0  0  0  0  0
  -34.9866    8.3138  -19.0165 O   0  0  0  0  0  0  0  0  0  0  0  0
  -35.8045    9.1097  -19.8766 C   0  0  0  0  0  0  0  0  0  0  0  0
  -33.3794   10.4122  -20.0067 C   0  0  0  0  0  0  0  0  0  0  0  0
  -32.0912    9.9096  -20.6615 C   0  0  0  0  0  0  0  0  0  0  0  0
  -32.1343   10.2023  -22.1626 C   0  0  0  0  0  0  0  0  0  0  0  0
  -30.7131   10.1744  -22.7286 C   0  0  0  0  0  0  0  0  0  0  0  0
  -30.7556   10.4627  -24.2072 C   0  0  0  0  0  0  0  0  0  0  0  0
  -31.8138   10.6693  -24.7523 O   0  0  0  0  0  0  0  0  0  0  0  0
  -29.6176   10.4900  -24.9186 O   0  5  0  0  0  0  0  0  0  0  0  0
  -33.4453   11.8757  -20.1155 N   0  3  0  0  0  0  0  0  0  0  0  0
  -31.7969   11.7098  -18.0626 O   0  0  0  0  0  0  0  0  0  0  0  0
  -31.5276   12.7516  -17.1223 C   0  0  0  0  0  0  0  0  0  0  0  0
  -31.6719    9.4008  -13.6493 H   0  0  0  0  0  0  0  0  0  0  0  0
  -31.5953    8.0754  -14.8323 H   0  0  0  0  0  0  0  0  0  0  0  0
  -32.3176    7.7623  -13.1917 H   0  0  0  0  0  0  0  0  0  0  0  0
  -31.9770   10.8682  -15.5819 H   0  0  0  0  0  0  0  0  0  0  0  0
  -34.8570    7.7847  -16.4477 H   0  0  0  0  0  0  0  0  0  0  0  0
  -35.5898    8.7766  -20.9028 H   0  0  0  0  0  0  0  0  0  0  0  0
  -35.4447   10.1442  -19.7753 H   0  0  0  0  0  0  0  0  0  0  0  0
  -36.8757    9.0284  -19.6401 H   0  0  0  0  0  0  0  0  0  0  0  0
  -34.2472    9.9673  -20.5156 H   0  0  0  0  0  0  0  0  0  0  0  0
  -31.2275   10.4224  -20.2132 H   0  0  0  0  0  0  0  0  0  0  0  0
  -31.9968    8.8252  -20.5026 H   0  0  0  0  0  0  0  0  0  0  0  0
  -32.7445    9.4391  -22.6677 H   0  0  0  0  0  0  0  0  0  0  0  0
  -32.5758   11.1956  -22.3312 H   0  0  0  0  0  0  0  0  0  0  0  0
  -30.2703    9.1813  -22.5621 H   0  0  0  0  0  0  0  0  0  0  0  0
  -30.1023   10.9375  -22.2242 H   0  0  0  0  0  0  0  0  0  0  0  0
  -32.5101   12.2756  -19.9529 H   0  0  0  0  0  0  0  0  0  0  0  0
  -34.1024   12.2440  -19.4131 H   0  0  0  0  0  0  0  0  0  0  0  0
  -33.7699   12.1363  -21.0577 H   0  0  0  0  0  0  0  0  0  0  0  0
  -30.9918   13.5369  -17.6757 H   0  0  0  0  0  0  0  0  0  0  0  0
  -30.8337   12.3278  -16.3814 H   0  0  0  0  0  0  0  0  0  0  0  0
  -32.4396   13.1415  -16.6466 H   0  0  0  0  0  0  0  0  0  0  0  0
  1  2  1  0  0  0  0
  1 21  1  0  0  0  0
  1 22  1  0  0  0  0
  1 23  1  0  0  0  0
  2  3  1  0  0  0  0
  3  8  2  0  0  0  0
  3  4  1  0  0  0  0
  4  5  2  0  0  0  0
  4 24  1  0  0  0  0
  5  6  1  0  0  0  0
  5 19  1  0  0  0  0
  6  7  2  0  0  0  0
  6 11  1  0  0  0  0
  7  8  1  0  0  0  0
  7  9  1  0  0  0  0
  8 25  1  0  0  0  0
  9 10  1  0  0  0  0
 10 26  1  0  0  0  0
 10 27  1  0  0  0  0
 10 28  1  0  0  0  0
 11 12  1  0  0  0  0
 11 18  1  0  0  0  0
 11 29  1  0  0  0  0
 12 13  1  0  0  0  0
 12 30  1  0  0  0  0
 12 31  1  0  0  0  0
 13 14  1  0  0  0  0
 13 32  1  0  0  0  0
 13 33  1  0  0  0  0
 14 15  1  0  0  0  0
 14 34  1  0  0  0  0
 14 35  1  0  0  0  0
 15 16  2  0  0  0  0
 15 17  1  0  0  0  0
 18 36  1  0  0  0  0
 18 37  1  0  0  0  0
 18 38  1  0  0  0  0
 19 20  1  0  0  0  0
 20 39  1  0  0  0  0
 20 40  1  0  0  0  0
 20 41  1  0  0  0  0
M  END
> <Name>
ZINC20423298

> <reference>
BDB4986

> <quality>
0.824

> <status>
decoy

> <atoms in reference ligand area>
16

> <score>
-27.0019

$$$$
ZINC29647851
      BALL 1.4.0 (Jan  4 2012, 23:22:29)

 62 63  0999  0  0  0  0  0  0999 V2000
  -29.2773   10.9400  -23.8464 C   0  0  0  0  0  0  0  0  0  0  0  0
  -29.7594    9.9255  -24.8852 C   0  0  0  0  0  0  0  0  0  0  0  0
  -30.8195    9.0979  -24.3043 N   0  0  0  0  0  0  0  0  0  0  0  0
  -32.1724    9.6396  -24.1543 C   0  0  0  0  0  0  0  0  0  0  0  0
  -33.1662    8.5072  -24.1218 C   0  0  0  0  0  0  0  0  0  0  0  0
  -33.6597    7.9864  -25.3021 C   0  0  0  0  0  0  0  0  0  0  0  0
  -34.5709    6.9469  -25.2732 C   0  0  0  0  0  0  0  0  0  0  0  0
  -34.9916    6.4251  -24.0633 C   0  0  0  0  0  0  0  0  0  0  0  0
  -34.4985    6.9380  -22.8798 C   0  0  0  0  0  0  0  0  0  0  0  0
  -33.5866    7.9857  -22.9051 C   0  0  0  0  0  0  0  0  0  0  0  0
  -33.0892    8.5096  -21.7097 N   0  0  0  0  0  0  0  0  0  0  0  0
  -33.1049    9.9567  -21.4815 C   0  0  0  0  0  0  0  0  0  0  0  0
  -32.3020   10.2795  -20.2477 C   0  0  0  0  0  0  0  0  0  0  0  0
  -31.9218    9.3849  -19.5193 O   0  0  0  0  0  0  0  0  0  0  0  0
  -31.9919   11.6211  -19.9385 C   0  0  0  0  0  0  0  0  0  0  0  0
  -31.1438   11.9405  -18.8641 C   0  0  0  0  0  0  0  0  0  0  0  0
  -30.8727   13.2536  -18.6043 N   0  0  0  0  0  0  0  0  0  0  0  0
  -31.4031   14.2360  -19.3491 C   0  0  0  0  0  0  0  0  0  0  0  0
  -31.1351   15.3892  -19.0739 O   0  0  0  0  0  0  0  0  0  0  0  0
  -32.2152   13.9917  -20.3904 N   0  0  0  0  0  0  0  0  0  0  0  0
  -32.5447   12.7282  -20.7294 C   0  0  0  0  0  0  0  0  0  0  0  0
  -33.2849   12.5104  -21.6707 O   0  0  0  0  0  0  0  0  0  0  0  0
  -32.7551   15.1121  -21.1648 C   0  0  0  0  0  0  0  0  0  0  0  0
  -29.9904   13.5970  -17.4864 C   0  0  0  0  0  0  0  0  0  0  0  0
  -28.6664   14.1384  -18.0294 C   0  0  0  0  0  0  0  0  0  0  0  0
  -27.5788   13.0733  -17.8767 C   0  0  0  0  0  0  0  0  0  0  0  0
  -28.2676   15.3905  -17.2457 C   0  0  0  0  0  0  0  0  0  0  0  0
  -30.6012   10.9574  -18.0957 N   0  0  0  0  0  0  0  0  0  0  0  0
  -30.5503    7.8382  -23.9079 C   0  0  0  0  0  0  0  0  0  0  0  0
  -31.3536    6.9531  -24.1129 O   0  0  0  0  0  0  0  0  0  0  0  0
  -29.2508    7.5297  -23.2097 C   0  0  0  0  0  0  0  0  0  0  0  0
  -28.6151   11.6740  -24.3289 H   0  0  0  0  0  0  0  0  0  0  0  0
  -28.7262   10.4177  -23.0505 H   0  0  0  0  0  0  0  0  0  0  0  0
  -30.1435   11.4598  -23.4109 H   0  0  0  0  0  0  0  0  0  0  0  0
  -28.9196    9.2836  -25.1897 H   0  0  0  0  0  0  0  0  0  0  0  0
  -30.1511   10.4585  -25.7641 H   0  0  0  0  0  0  0  0  0  0  0  0
  -32.3997   10.3017  -25.0027 H   0  0  0  0  0  0  0  0  0  0  0  0
  -32.2370   10.2103  -23.2162 H   0  0  0  0  0  0  0  0  0  0  0  0
  -33.3275    8.3991  -26.2661 H   0  0  0  0  0  0  0  0  0  0  0  0
  -34.9622    6.5338  -26.2147 H   0  0  0  0  0  0  0  0  0  0  0  0
  -35.7197    5.6008  -24.0439 H   0  0  0  0  0  0  0  0  0  0  0  0
  -34.8275    6.5174  -21.9181 H   0  0  0  0  0  0  0  0  0  0  0  0
  -32.7114    7.8787  -20.9886 H   0  0  0  0  0  0  0  0  0  0  0  0
  -34.1420   10.2958  -21.3423 H   0  0  0  0  0  0  0  0  0  0  0  0
  -32.6648   10.4697  -22.3493 H   0  0  0  0  0  0  0  0  0  0  0  0
  -31.8966   15.7724  -21.3568 H   0  0  0  0  0  0  0  0  0  0  0  0
  -33.4293   15.6425  -20.4762 H   0  0  0  0  0  0  0  0  0  0  0  0
  -33.2617   14.8055  -22.0917 H   0  0  0  0  0  0  0  0  0  0  0  0
  -30.4712   14.3643  -16.8619 H   0  0  0  0  0  0  0  0  0  0  0  0
  -29.7977   12.6992  -16.8808 H   0  0  0  0  0  0  0  0  0  0  0  0
  -28.7831   14.3934  -19.0931 H   0  0  0  0  0  0  0  0  0  0  0  0
  -27.7995   12.4453  -17.0010 H   0  0  0  0  0  0  0  0  0  0  0  0
  -26.6025   13.5615  -17.7405 H   0  0  0  0  0  0  0  0  0  0  0  0
  -27.5506   12.4451  -18.7793 H   0  0  0  0  0  0  0  0  0  0  0  0
  -28.9245   15.5011  -16.3704 H   0  0  0  0  0  0  0  0  0  0  0  0
  -28.3662   16.2755  -17.8915 H   0  0  0  0  0  0  0  0  0  0  0  0
  -27.2242   15.2971  -16.9103 H   0  0  0  0  0  0  0  0  0  0  0  0
  -30.9316    9.9877  -18.2022 H   0  0  0  0  0  0  0  0  0  0  0  0
  -29.8644   11.1803  -17.4113 H   0  0  0  0  0  0  0  0  0  0  0  0
  -29.3094    8.0582  -22.2468 H   0  0  0  0  0  0  0  0  0  0  0  0
  -28.4763    8.0293  -23.8102 H   0  0  0  0  0  0  0  0  0  0  0  0
  -29.0586    6.4535  -23.0874 H   0  0  0  0  0  0  0  0  0  0  0  0
  1  2  1  0  0  0  0
  1 32  1  0  0  0  0
  1 33  1  0  0  0  0
  1 34  1  0  0  0  0
  2  3  1  0  0  0  0
  2 35  1  0  0  0  0
  2 36  1  0  0  0  0
  3  4  1  0  0  0  0
  3 29  1  0  0  0  0
  4  5  1  0  0  0  0
  4 37  1  0  0  0  0
  4 38  1  0  0  0  0
  5 10  2  0  0  0  0
  5  6  1  0  0  0  0
  6  7  2  0  0  0  0
  6 39  1  0  0  0  0
  7  8  1  0  0  0  0
  7 40  1  0  0  0  0
  8  9  2  0  0  0  0
  8 41  1  0  0  0  0
  9 10  1  0  0  0  0
  9 42  1  0  0  0  0
 10 11  1  0  0  0  0
 11 12  1  0  0  0  0
 11 43  1  0  0  0  0
 12 13  1  0  0  0  0
 12 44  1  0  0  0  0
 12 45  1  0  0  0  0
 13 14  2  0  0  0  0
 13 15  1  0  0  0  0
 15 21  1  0  0  0  0
 15 16  2  0  0  0  0
 16 17  1  0  0  0  0
 16 28  1  0  0  0  0
 17 18  1  0  0  0  0
 17 24  1  0  0  0  0
 18 19  2  0  0  0  0
 18 20  1  0  0  0  0
 20 21  1  0  0  0  0
 20 23  1  0  0  0  0
 21 22  2  0  0  0  0
 23 46  1  0  0  0  0
 23 47  1  0  0  0  0
 23 48  1  0  0  0  0
 24 25  1  0  0  0  0
 24 49  1  0  0  0  0
 24 50  1  0  0  0  0
 25 26  1  0  0  0  0
 25 27  1  0  0  0  0
 25 51  1  0  0  0  0
 26 52  1  0  0  0  0
 26 53  1  0  0  0  0
 26 54  1  0  0  0  0
 27 55  1  0  0  0  0
 27 56  1  0  0  0  0
 27 57  1  0  0  0  0
 28 58  1  0  0  0  0
 28 59  1  0  0  0  0
 29 30  2  0  0  0  0
 29 31  1  0  0  0  0
 31 60  1  0  0  0  0
 31 61  1  0  0  0  0
 31 62  1  0  0  0  0
M  END
> <Name>
ZINC29647851

> <reference>
BDB4946

> <quality>
0.749

> <status>
decoy

> <atoms in reference ligand area>
21

> <score>
-26.9466

$$$$
ZINC10329109
      BALL 1.4.0 (Jan  4 2012, 23:22:29)

 42 44  0999  0  0  0  0  0  0999 V2000
  -28.0523   15.1227  -17.8331 C   0  0  0  0  0  0  0  0  0  0  0  0
  -27.1312   14.1891  -18.6210 C   0  0  0  0  0  0  0  0  0  0  0  0
  -27.9038   13.5033  -19.6598 N   0  0  0  0  0  0  0  0  0  0  0  0
  -28.9443   12.7219  -19.3061 C   0  0  0  0  0  0  0  0  0  0  0  0
  -29.2401   12.5871  -18.1316 O   0  0  0  0  0  0  0  0  0  0  0  0
  -29.6855   12.0633  -20.3046 C   0  0  0  0  0  0  0  0  0  0  0  0
  -29.3234   12.2361  -21.6395 C   0  0  0  0  0  0  0  0  0  0  0  0
  -30.1706   11.5219  -22.3871 N   0  0  0  0  0  0  0  0  0  0  0  0
  -31.0329   10.9094  -21.6179 C   0  0  0  0  0  0  0  0  0  0  0  0
  -30.7726   11.2155  -20.3098 N   0  0  0  0  0  0  0  0  0  0  0  0
  -31.5575   10.6874  -19.1957 C   0  0  0  0  0  0  0  0  0  0  0  0
  -32.8082   10.0391  -19.7227 C   0  0  0  0  0  0  0  0  0  0  0  0
  -33.0122    9.7765  -20.9478 N   0  0  0  0  0  0  0  0  0  0  0  0
  -32.0816   10.0755  -21.9566 N   0  0  0  0  0  0  0  0  0  0  0  0
  -32.2169    9.5275  -23.3084 C   0  0  0  0  0  0  0  0  0  0  0  0
  -33.5638    8.8665  -23.4500 C   0  0  0  0  0  0  0  0  0  0  0  0
  -34.1800    8.5280  -22.4617 O   0  0  0  0  0  0  0  0  0  0  0  0
  -34.0835    8.6513  -24.6748 N   0  0  0  0  0  0  0  0  0  0  0  0
  -35.4171    8.8481  -24.8950 N   0  0  0  0  0  0  0  0  0  0  0  0
  -33.8868    9.6781  -18.7341 C   0  0  0  0  0  0  0  0  0  0  0  0
  -28.2445   13.0516  -21.9387 N   0  0  0  0  0  0  0  0  0  0  0  0
  -27.5642   13.6625  -20.9506 C   0  0  0  0  0  0  0  0  0  0  0  0
  -26.6199   14.3750  -21.2324 O   0  0  0  0  0  0  0  0  0  0  0  0
  -27.8431   13.2501  -23.3335 C   0  0  0  0  0  0  0  0  0  0  0  0
  -27.7956   15.0766  -16.7644 H   0  0  0  0  0  0  0  0  0  0  0  0
  -29.0980   14.8110  -17.9722 H   0  0  0  0  0  0  0  0  0  0  0  0
  -27.9270   16.1539  -18.1950 H   0  0  0  0  0  0  0  0  0  0  0  0
  -26.6921   13.4450  -17.9402 H   0  0  0  0  0  0  0  0  0  0  0  0
  -26.3278   14.7764  -19.0898 H   0  0  0  0  0  0  0  0  0  0  0  0
  -31.8297   11.5085  -18.5162 H   0  0  0  0  0  0  0  0  0  0  0  0
  -30.9617    9.9420  -18.6484 H   0  0  0  0  0  0  0  0  0  0  0  0
  -31.4247    8.7853  -23.4855 H   0  0  0  0  0  0  0  0  0  0  0  0
  -32.1289   10.3404  -24.0442 H   0  0  0  0  0  0  0  0  0  0  0  0
  -33.4751    8.3385  -25.4448 H   0  0  0  0  0  0  0  0  0  0  0  0
  -35.7275    9.5390  -25.5931 H   0  0  0  0  0  0  0  0  0  0  0  0
  -36.1125    8.3056  -24.3629 H   0  0  0  0  0  0  0  0  0  0  0  0
  -33.3918    9.0722  -17.9608 H   0  0  0  0  0  0  0  0  0  0  0  0
  -34.5793    9.0175  -19.2764 H   0  0  0  0  0  0  0  0  0  0  0  0
  -34.3988   10.5536  -18.3083 H   0  0  0  0  0  0  0  0  0  0  0  0
  -26.8255   13.6647  -23.2817 H   0  0  0  0  0  0  0  0  0  0  0  0
  -28.5002   14.0483  -23.7091 H   0  0  0  0  0  0  0  0  0  0  0  0
  -27.8949   12.3392  -23.9481 H   0  0  0  0  0  0  0  0  0  0  0  0
  1  2  1  0  0  0  0
  1 25  1  0  0  0  0
  1 26  1  0  0  0  0
  1 27  1  0  0  0  0
  2  3  1  0  0  0  0
  2 28  1  0  0  0  0
  2 29  1  0  0  0  0
  3 22  1  0  0  0  0
  3  4  1  0  0  0  0
  4  5  2  0  0  0  0
  4  6  1  0  0  0  0
  6 10  1  0  0  0  0
  6  7  2  0  0  0  0
  7  8  1  0  0  0  0
  7 21  1  0  0  0  0
  8  9  2  0  0  0  0
  9 14  1  0  0  0  0
  9 10  1  0  0  0  0
 10 11  1  0  0  0  0
 11 12  1  0  0  0  0
 11 30  1  0  0  0  0
 11 31  1  0  0  0  0
 12 13  2  0  0  0  0
 12 20  1  0  0  0  0
 13 14  1  0  0  0  0
 14 15  1  0  0  0  0
 15 16  1  0  0  0  0
 15 32  1  0  0  0  0
 15 33  1  0  0  0  0
 16 17  2  0  0  0  0
 16 18  1  0  0  0  0
 18 19  1  0  0  0  0
 18 34  1  0  0  0  0
 19 35  1  0  0  0  0
 19 36  1  0  0  0  0
 20 37  1  0  0  0  0
 20 38  1  0  0  0  0
 20 39  1  0  0  0  0
 21 22  1  0  0  0  0
 21 24  1  0  0  0  0
 22 23  2  0  0  0  0
 24 40  1  0  0  0  0
 24 41  1  0  0  0  0
 24 42  1  0  0  0  0
M  END
> <Name>
ZINC10329109

> <reference>
BDB4977

> <quality>
0.673

> <status>
decoy

> <atoms in reference ligand area>
20

> <score>
-26.8624

$$$$
ZINC18517895
      BALL 1.4.0 (Jan  4 2012, 23:22:29)

 50 52  0999  0  0  0  0  0  0999 V2000
  -30.6483    9.9793  -24.6281 C   0  0  0  0  0  0  0  0  0  0  0  0
  -31.8054    9.8976  -23.8752 C   0  0  0  0  0  0  0  0  0  0  0  0
  -31.7751   10.1903  -22.5258 C   0  0  0  0  0  0  0  0  0  0  0  0
  -30.5809   10.5665  -21.9251 C   0  0  0  0  0  0  0  0  0  0  0  0
  -29.4217   10.6524  -22.6850 C   0  0  0  0  0  0  0  0  0  0  0  0
  -29.4577   10.3539  -24.0329 C   0  0  0  0  0  0  0  0  0  0  0  0
  -30.5469   10.8646  -20.5569 N   0  0  0  0  0  0  0  0  0  0  0  0
  -31.5849   10.7329  -19.6862 C   0  0  0  0  0  0  0  0  0  0  0  0
  -31.1079   11.1417  -18.4305 C   0  0  0  0  0  0  0  0  0  0  0  0
  -29.7611   11.5155  -18.5962 C   0  0  0  0  0  0  0  0  0  0  0  0
  -29.4394   11.3493  -19.8499 N   0  0  0  0  0  0  0  0  0  0  0  0
  -32.0307   11.1007  -17.2963 C   0  0  0  0  0  0  0  0  0  0  0  0
  -31.6774   11.4420  -16.1814 O   0  0  0  0  0  0  0  0  0  0  0  0
  -33.2920   10.6690  -17.5318 N   0  0  0  0  0  0  0  0  0  0  0  0
  -33.6643   10.2931  -18.7814 C   0  0  0  0  0  0  0  0  0  0  0  0
  -32.8571   10.3227  -19.8012 N   0  0  0  0  0  0  0  0  0  0  0  0
  -35.0783    9.8191  -18.9977 C   0  0  0  0  0  0  0  0  0  0  0  0
  -35.1037    8.2897  -19.0333 C   0  0  0  0  0  0  0  0  0  0  0  0
  -35.6372    7.8270  -20.3647 C   0  0  0  0  0  0  0  0  0  0  0  0
  -36.8232    7.6487  -20.5112 O   0  0  0  0  0  0  0  0  0  0  0  0
  -34.7948    7.6131  -21.3876 O   0  0  0  0  0  0  0  0  0  0  0  0
  -35.1754    6.5983  -22.3539 C   0  0  0  0  0  0  0  0  0  0  0  0
  -35.3008    7.2257  -23.7182 C   0  0  0  0  0  0  0  0  0  0  0  0
  -35.0902    8.4110  -23.8621 O   0  0  0  0  0  0  0  0  0  0  0  0
  -35.6471    6.4693  -24.7785 N   0  0  0  0  0  0  0  0  0  0  0  0
  -35.7592    7.0303  -25.9988 C   0  0  0  0  0  0  0  0  0  0  0  0
  -35.7285    8.2396  -26.1168 O   0  0  0  0  0  0  0  0  0  0  0  0
  -35.9055    6.2505  -27.0882 N   0  0  0  0  0  0  0  0  0  0  0  0
  -36.8277    6.6477  -28.1550 C   0  0  0  0  0  0  0  0  0  0  0  0
  -36.1107    6.5698  -29.5043 C   0  0  0  0  0  0  0  0  0  0  0  0
  -35.4815    5.3263  -29.6271 F   0  0  0  0  0  0  0  0  0  0  0  0
  -37.0418    6.7253  -30.5368 F   0  0  0  0  0  0  0  0  0  0  0  0
  -35.1531    7.5867  -29.5830 F   0  0  0  0  0  0  0  0  0  0  0  0
  -30.6751    9.7459  -25.7027 H   0  0  0  0  0  0  0  0  0  0  0  0
  -32.7509    9.5991  -24.3515 H   0  0  0  0  0  0  0  0  0  0  0  0
  -32.6959   10.1254  -21.9275 H   0  0  0  0  0  0  0  0  0  0  0  0
  -28.4758   10.9579  -22.2138 H   0  0  0  0  0  0  0  0  0  0  0  0
  -28.5382   10.4141  -24.6336 H   0  0  0  0  0  0  0  0  0  0  0  0
  -29.0934   11.8847  -17.8038 H   0  0  0  0  0  0  0  0  0  0  0  0
  -33.9718   10.6257  -16.7592 H   0  0  0  0  0  0  0  0  0  0  0  0
  -35.7150   10.1767  -18.1750 H   0  0  0  0  0  0  0  0  0  0  0  0
  -35.4566   10.2137  -19.9523 H   0  0  0  0  0  0  0  0  0  0  0  0
  -35.7524    7.9138  -18.2285 H   0  0  0  0  0  0  0  0  0  0  0  0
  -34.0836    7.9026  -18.8931 H   0  0  0  0  0  0  0  0  0  0  0  0
  -36.1406    6.1576  -22.0637 H   0  0  0  0  0  0  0  0  0  0  0  0
  -34.4068    5.8118  -22.3818 H   0  0  0  0  0  0  0  0  0  0  0  0
  -35.8260    5.4623  -24.6563 H   0  0  0  0  0  0  0  0  0  0  0  0
  -35.3688    5.3753  -27.1709 H   0  0  0  0  0  0  0  0  0  0  0  0
  -37.1690    7.6789  -27.9811 H   0  0  0  0  0  0  0  0  0  0  0  0
  -37.6946    5.9707  -28.1614 H   0  0  0  0  0  0  0  0  0  0  0  0
  1  6  2  0  0  0  0
  1  2  1  0  0  0  0
  1 34  1  0  0  0  0
  2  3  2  0  0  0  0
  2 35  1  0  0  0  0
  3  4  1  0  0  0  0
  3 36  1  0  0  0  0
  4  5  2  0  0  0  0
  4  7  1  0  0  0  0
  5  6  1  0  0  0  0
  5 37  1  0  0  0  0
  6 38  1  0  0  0  0
  7 11  1  0  0  0  0
  7  8  1  0  0  0  0
  8 16  1  0  0  0  0
  8  9  2  0  0  0  0
  9 10  1  0  0  0  0
  9 12  1  0  0  0  0
 10 11  2  0  0  0  0
 10 39  1  0  0  0  0
 12 13  2  0  0  0  0
 12 14  1  0  0  0  0
 14 15  1  0  0  0  0
 14 40  1  0  0  0  0
 15 16  2  0  0  0  0
 15 17  1  0  0  0  0
 17 18  1  0  0  0  0
 17 41  1  0  0  0  0
 17 42  1  0  0  0  0
 18 19  1  0  0  0  0
 18 43  1  0  0  0  0
 18 44  1  0  0  0  0
 19 20  2  0  0  0  0
 19 21  1  0  0  0  0
 21 22  1  0  0  0  0
 22 23  1  0  0  0  0
 22 45  1  0  0  0  0
 22 46  1  0  0  0  0
 23 24  2  0  0  0  0
 23 25  1  0  0  0  0
 25 26  1  0  0  0  0
 25 47  1  0  0  0  0
 26 27  2  0  0  0  0
 26 28  1  0  0  0  0
 28 29  1  0  0  0  0
 28 48  1  0  0  0  0
 29 30  1  0  0  0  0
 29 49  1  0  0  0  0
 29 50  1  0  0  0  0
 30 31  1  0  0  0  0
 30 32  1  0  0  0  0
 30 33  1  0  0  0  0
M  END
> <Name>
ZINC18517895

> <reference>
BDB4972

> <quality>
0.698

> <status>
decoy

> <atoms in reference ligand area>
16

> <score>
-26.8524

$$$$
ZINC31220835
      BALL 1.4.0 (Jan  4 2012, 23:22:29)

 42 42  0999  0  0  0  0  0  0999 V2000
  -37.7828   10.4107  -14.3835 C   0  0  0  0  0  0  0  0  0  0  0  0
  -38.5606   10.3453  -13.0675 C   0  0  0  0  0  0  0  0  0  0  0  0
  -37.4651    9.7588  -11.7461 S   0  0  0  0  0  0  0  0  0  0  0  0
  -37.0112    8.4433  -12.0343 O   0  0  0  0  0  0  0  0  0  0  0  0
  -38.0194   10.0717  -10.4756 O   0  0  0  0  0  0  0  0  0  0  0  0
  -36.1126   10.7073  -11.8622 N   0  0  0  0  0  0  0  0  0  0  0  0
  -34.9533   10.2396  -12.6259 C   0  0  0  0  0  0  0  0  0  0  0  0
  -34.4319   11.3755  -13.5083 C   0  0  0  0  0  0  0  0  0  0  0  0
  -34.0428   10.8396  -14.8150 N   0  0  0  0  0  0  0  0  0  0  0  0
  -33.9400   11.6625  -15.8775 C   0  0  0  0  0  0  0  0  0  0  0  0
  -34.1649   12.8474  -15.7507 O   0  0  0  0  0  0  0  0  0  0  0  0
  -33.5396   11.1111  -17.2217 C   0  0  0  0  0  0  0  0  0  0  0  0
  -33.0183   12.2471  -18.1040 C   0  0  0  0  0  0  0  0  0  0  0  0
  -32.3928   11.6703  -19.3480 C   0  0  0  0  0  0  0  0  0  0  0  0
  -33.0408   11.7316  -20.5310 C   0  0  0  0  0  0  0  0  0  0  0  0
  -32.4564   11.2071  -21.6516 N   0  0  0  0  0  0  0  0  0  0  0  0
  -31.2466   10.6223  -21.5838 C   0  0  0  0  0  0  0  0  0  0  0  0
  -30.7478   10.1586  -22.5911 O   0  0  0  0  0  0  0  0  0  0  0  0
  -30.5810   10.5429  -20.4166 N   0  0  0  0  0  0  0  0  0  0  0  0
  -31.1206   11.0518  -19.2907 C   0  0  0  0  0  0  0  0  0  0  0  0
  -30.5191   10.9804  -18.2341 O   0  0  0  0  0  0  0  0  0  0  0  0
  -34.3989   12.3788  -20.6177 C   0  0  0  0  0  0  0  0  0  0  0  0
  -37.3241   11.4047  -14.4905 H   0  0  0  0  0  0  0  0  0  0  0  0
  -38.4681   10.2312  -15.2251 H   0  0  0  0  0  0  0  0  0  0  0  0
  -36.9953    9.6428  -14.3833 H   0  0  0  0  0  0  0  0  0  0  0  0
  -39.4079    9.6520  -13.1751 H   0  0  0  0  0  0  0  0  0  0  0  0
  -38.9368   11.3473  -12.8135 H   0  0  0  0  0  0  0  0  0  0  0  0
  -36.0865   11.6262  -11.3975 H   0  0  0  0  0  0  0  0  0  0  0  0
  -34.1609    9.9218  -11.9321 H   0  0  0  0  0  0  0  0  0  0  0  0
  -35.2485    9.3901  -13.2593 H   0  0  0  0  0  0  0  0  0  0  0  0
  -35.2225   12.1285  -13.6421 H   0  0  0  0  0  0  0  0  0  0  0  0
  -33.5585   11.8421  -13.0294 H   0  0  0  0  0  0  0  0  0  0  0  0
  -33.8477    9.8339  -14.9218 H   0  0  0  0  0  0  0  0  0  0  0  0
  -32.7486   10.3583  -17.0886 H   0  0  0  0  0  0  0  0  0  0  0  0
  -34.4121   10.6450  -17.7027 H   0  0  0  0  0  0  0  0  0  0  0  0
  -33.8532   12.9056  -18.3856 H   0  0  0  0  0  0  0  0  0  0  0  0
  -32.2647   12.8265  -17.5506 H   0  0  0  0  0  0  0  0  0  0  0  0
  -32.9474   11.2604  -22.5555 H   0  0  0  0  0  0  0  0  0  0  0  0
  -29.6558   10.0916  -20.3835 H   0  0  0  0  0  0  0  0  0  0  0  0
  -35.0577   11.6055  -21.0396 H   0  0  0  0  0  0  0  0  0  0  0  0
  -34.2923   13.1666  -21.3779 H   0  0  0  0  0  0  0  0  0  0  0  0
  -34.7677   12.7677  -19.6571 H   0  0  0  0  0  0  0  0  0  0  0  0
  1  2  1  0  0  0  0
  1 23  1  0  0  0  0
  1 24  1  0  0  0  0
  1 25  1  0  0  0  0
  2  3  1  0  0  0  0
  2 26  1  0  0  0  0
  2 27  1  0  0  0  0
  3  4  2  0  0  0  0
  3  5  2  0  0  0  0
  3  6  1  0  0  0  0
  6  7  1  0  0  0  0
  6 28  1  0  0  0  0
  7  8  1  0  0  0  0
  7 29  1  0  0  0  0
  7 30  1  0  0  0  0
  8  9  1  0  0  0  0
  8 31  1  0  0  0  0
  8 32  1  0  0  0  0
  9 10  1  0  0  0  0
  9 33  1  0  0  0  0
 10 11  2  0  0  0  0
 10 12  1  0  0  0  0
 12 13  1  0  0  0  0
 12 34  1  0  0  0  0
 12 35  1  0  0  0  0
 13 14  1  0  0  0  0
 13 36  1  0  0  0  0
 13 37  1  0  0  0  0
 14 20  1  0  0  0  0
 14 15  2  0  0  0  0
 15 16  1  0  0  0  0
 15 22  1  0  0  0  0
 16 17  1  0  0  0  0
 16 38  1  0  0  0  0
 17 18  2  0  0  0  0
 17 19  1  0  0  0  0
 19 20  1  0  0  0  0
 19 39  1  0  0  0  0
 20 21  2  0  0  0  0
 22 40  1  0  0  0  0
 22 41  1  0  0  0  0
 22 42  1  0  0  0  0
M  END
> <Name>
ZINC31220835

> <reference>
BDB5024

> <quality>
0.667

> <status>
decoy

> <atoms in reference ligand area>
14

> <score>
-26.7896

$$$$
ZINC23365452
      BALL 1.4.0 (Jan  4 2012, 23:22:29)

 51 53  0999  0  0  0  0  0  0999 V2000
  -33.9643   10.6700  -19.7921 C   0  0  0  0  0  0  0  0  0  0  0  0
  -32.9798   10.6426  -20.9330 C   0  0  0  0  0  0  0  0  0  0  0  0
  -32.6071   11.8217  -21.5522 C   0  0  0  0  0  0  0  0  0  0  0  0
  -31.7086   11.8002  -22.6029 C   0  0  0  0  0  0  0  0  0  0  0  0
  -31.1768   10.6005  -23.0342 C   0  0  0  0  0  0  0  0  0  0  0  0
  -31.5450    9.4156  -22.4113 C   0  0  0  0  0  0  0  0  0  0  0  0
  -32.4474    9.4406  -21.3557 C   0  0  0  0  0  0  0  0  0  0  0  0
  -32.8498    8.1569  -20.6767 C   0  0  0  0  0  0  0  0  0  0  0  0
  -31.0078    8.1987  -22.8456 N   0  0  0  0  0  0  0  0  0  0  0  0
  -30.5581    7.3013  -21.9461 C   0  0  0  0  0  0  0  0  0  0  0  0
  -30.5628    7.5730  -20.7641 O   0  0  0  0  0  0  0  0  0  0  0  0
  -30.0495    5.9605  -22.4092 C   0  0  0  0  0  0  0  0  0  0  0  0
  -29.2528    5.1070  -21.0261 S   0  0  0  0  0  0  0  0  0  0  0  0
  -28.7669    3.6144  -21.8265 C   0  0  0  0  0  0  0  0  0  0  0  0
  -28.9718    3.3010  -23.0848 N   0  0  0  0  0  0  0  0  0  0  0  0
  -28.4860    2.1366  -23.3295 N   0  0  0  0  0  0  0  0  0  0  0  0
  -27.9467    1.6414  -22.2516 C   0  0  0  0  0  0  0  0  0  0  0  0
  -28.1010    2.5674  -21.2570 N   0  0  0  0  0  0  0  0  0  0  0  0
  -27.6488    2.4571  -19.8679 C   0  0  0  0  0  0  0  0  0  0  0  0
  -27.3347    3.8512  -19.3215 C   0  0  0  0  0  0  0  0  0  0  0  0
  -27.5893    3.8778  -17.8364 C   0  0  0  0  0  0  0  0  0  0  0  0
  -28.7206    4.0015  -17.4172 O   0  0  0  0  0  0  0  0  0  0  0  0
  -26.5597    3.7640  -16.9741 N   0  0  0  0  0  0  0  0  0  0  0  0
  -27.2722    0.2997  -22.1258 C   0  0  0  0  0  0  0  0  0  0  0  0
  -26.2287   -0.0682  -23.1826 C   0  0  0  0  0  0  0  0  0  0  0  0
  -27.5962   -0.7559  -23.1848 C   0  0  0  0  0  0  0  0  0  0  0  0
  -30.2150   10.5783  -24.1592 N   0  0  0  0  0  0  0  0  0  0  0  0
  -29.0672   10.2163  -23.9720 O   0  0  0  0  0  0  0  0  0  0  0  0
  -30.5714   10.9220  -25.2719 O   0  0  0  0  0  0  0  0  0  0  0  0
  -34.5733   11.5703  -19.9613 H   0  0  0  0  0  0  0  0  0  0  0  0
  -33.3562   10.8526  -18.8938 H   0  0  0  0  0  0  0  0  0  0  0  0
  -34.5744    9.7586  -19.7091 H   0  0  0  0  0  0  0  0  0  0  0  0
  -33.0263   12.7788  -21.2080 H   0  0  0  0  0  0  0  0  0  0  0  0
  -31.4170   12.7393  -23.0958 H   0  0  0  0  0  0  0  0  0  0  0  0
  -33.9146    8.2848  -20.4320 H   0  0  0  0  0  0  0  0  0  0  0  0
  -32.2964    8.1510  -19.7261 H   0  0  0  0  0  0  0  0  0  0  0  0
  -32.6614    7.2562  -21.2794 H   0  0  0  0  0  0  0  0  0  0  0  0
  -30.9560    7.9888  -23.8527 H   0  0  0  0  0  0  0  0  0  0  0  0
  -30.8916    5.3555  -22.7764 H   0  0  0  0  0  0  0  0  0  0  0  0
  -29.3199    6.1038  -23.2197 H   0  0  0  0  0  0  0  0  0  0  0  0
  -28.4408    1.9954  -19.2598 H   0  0  0  0  0  0  0  0  0  0  0  0
  -26.7430    1.8343  -19.8243 H   0  0  0  0  0  0  0  0  0  0  0  0
  -27.9780    4.5937  -19.8163 H   0  0  0  0  0  0  0  0  0  0  0  0
  -26.2793    4.0924  -19.5163 H   0  0  0  0  0  0  0  0  0  0  0  0
  -26.7327    3.4751  -16.0007 H   0  0  0  0  0  0  0  0  0  0  0  0
  -25.5999    3.9658  -17.2886 H   0  0  0  0  0  0  0  0  0  0  0  0
  -27.2891    0.3299  -21.0264 H   0  0  0  0  0  0  0  0  0  0  0  0
  -25.4490   -0.7245  -22.7688 H   0  0  0  0  0  0  0  0  0  0  0  0
  -26.1627    0.6989  -23.9682 H   0  0  0  0  0  0  0  0  0  0  0  0
  -28.2489   -0.3510  -23.9721 H   0  0  0  0  0  0  0  0  0  0  0  0
  -27.5357   -1.7735  -22.7714 H   0  0  0  0  0  0  0  0  0  0  0  0
  1  2  1  0  0  0  0
  1 30  1  0  0  0  0
  1 31  1  0  0  0  0
  1 32  1  0  0  0  0
  2  7  2  0  0  0  0
  2  3  1  0  0  0  0
  3  4  2  0  0  0  0
  3 33  1  0  0  0  0
  4  5  1  0  0  0  0
  4 34  1  0  0  0  0
  5  6  2  0  0  0  0
  5 27  1  0  0  0  0
  6  7  1  0  0  0  0
  6  9  1  0  0  0  0
  7  8  1  0  0  0  0
  8 35  1  0  0  0  0
  8 36  1  0  0  0  0
  8 37  1  0  0  0  0
  9 10  1  0  0  0  0
  9 38  1  0  0  0  0
 10 11  2  0  0  0  0
 10 12  1  0  0  0  0
 12 13  1  0  0  0  0
 12 39  1  0  0  0  0
 12 40  1  0  0  0  0
 13 14  1  0  0  0  0
 14 18  1  0  0  0  0
 14 15  2  0  0  0  0
 15 16  1  0  0  0  0
 16 17  2  0  0  0  0
 17 18  1  0  0  0  0
 17 24  1  0  0  0  0
 18 19  1  0  0  0  0
 19 20  1  0  0  0  0
 19 41  1  0  0  0  0
 19 42  1  0  0  0  0
 20 21  1  0  0  0  0
 20 43  1  0  0  0  0
 20 44  1  0  0  0  0
 21 22  2  0  0  0  0
 21 23  1  0  0  0  0
 23 45  1  0  0  0  0
 23 46  1  0  0  0  0
 24 26  1  0  0  0  0
 24 25  1  0  0  0  0
 24 47  1  0  0  0  0
 25 26  1  0  0  0  0
 25 48  1  0  0  0  0
 25 49  1  0  0  0  0
 26 50  1  0  0  0  0
 26 51  1  0  0  0  0
 27 28  2  0  0  0  0
 27 29  2  0  0  0  0
M  END
> <Name>
ZINC23365452

> <reference>
BDB4965

> <quality>
0.690

> <status>
decoy

> <atoms in reference ligand area>
10

> <score>
-26.6469

$$$$
ZINC30969187
      BALL 1.4.0 (Jan  4 2012, 23:22:29)

 60 61  0999  0  0  0  0  0  0999 V2000
  -30.5315   -1.6078  -29.7436 C   0  0  0  0  0  0  0  0  0  0  0  0
  -31.8272   -1.1538  -29.0683 C   0  0  0  0  0  0  0  0  0  0  0  0
  -31.5931    0.1834  -28.3626 C   0  0  0  0  0  0  0  0  0  0  0  0
  -32.8952    0.9867  -28.3472 C   0  0  0  0  0  0  0  0  0  0  0  0
  -32.5928    2.4028  -28.1247 N   0  0  0  0  0  0  0  0  0  0  0  0
  -32.7367    2.9377  -26.8961 C   0  0  0  0  0  0  0  0  0  0  0  0
  -33.1166    2.2467  -25.9746 O   0  0  0  0  0  0  0  0  0  0  0  0
  -32.4257    4.3944  -26.6673 C   0  0  0  0  0  0  0  0  0  0  0  0
  -32.1810    4.6372  -25.1754 C   0  0  0  0  0  0  0  0  0  0  0  0
  -31.9259    6.1279  -24.9413 C   0  0  0  0  0  0  0  0  0  0  0  0
  -33.0873    6.9021  -25.3976 N   0  0  0  0  0  0  0  0  0  0  0  0
  -33.3131    6.7219  -26.8374 C   0  0  0  0  0  0  0  0  0  0  0  0
  -33.6096    5.2489  -27.1281 C   0  0  0  0  0  0  0  0  0  0  0  0
  -32.9364    8.3244  -25.0624 C   0  0  0  0  0  0  0  0  0  0  0  0
  -32.4802    8.4578  -23.6323 C   0  0  0  0  0  0  0  0  0  0  0  0
  -32.4077    7.4754  -22.9247 O   0  0  0  0  0  0  0  0  0  0  0  0
  -32.1524    9.6687  -23.1397 N   0  0  0  0  0  0  0  0  0  0  0  0
  -31.0490    9.8029  -22.2869 N   0  0  0  0  0  0  0  0  0  0  0  0
  -30.9450   10.8800  -21.4837 C   0  0  0  0  0  0  0  0  0  0  0  0
  -31.8813   11.2092  -20.7864 O   0  0  0  0  0  0  0  0  0  0  0  0
  -29.6655   11.6757  -21.4519 C   0  0  0  0  0  0  0  0  0  0  0  0
  -29.7163   12.6772  -20.2963 C   0  0  0  0  0  0  0  0  0  0  0  0
  -30.2611   11.9790  -19.0393 C   0  0  0  0  0  0  0  0  0  0  0  0
  -30.0102   12.9117  -17.8201 C   0  0  0  0  0  0  0  0  0  0  0  0
  -28.3190   13.5298  -18.2109 S   0  0  0  0  0  0  0  0  0  0  0  0
  -27.3622   12.6869  -17.5837 O   0  0  0  0  0  0  0  0  0  0  0  0
  -28.2745   14.9313  -17.9811 O   0  0  0  0  0  0  0  0  0  0  0  0
  -28.2925   13.2195  -20.0235 C   0  0  0  0  0  0  0  0  0  0  0  0
  -30.6410   -1.5348  -30.8357 H   0  0  0  0  0  0  0  0  0  0  0  0
  -30.3180   -2.6505  -29.4660 H   0  0  0  0  0  0  0  0  0  0  0  0
  -29.7015   -0.9648  -29.4156 H   0  0  0  0  0  0  0  0  0  0  0  0
  -32.6141   -1.0343  -29.8275 H   0  0  0  0  0  0  0  0  0  0  0  0
  -32.1407   -1.9070  -28.3305 H   0  0  0  0  0  0  0  0  0  0  0  0
  -31.2637    0.0000  -27.3292 H   0  0  0  0  0  0  0  0  0  0  0  0
  -30.8189    0.7516  -28.8989 H   0  0  0  0  0  0  0  0  0  0  0  0
  -33.4099    0.8694  -29.3122 H   0  0  0  0  0  0  0  0  0  0  0  0
  -33.5442    0.6196  -27.5384 H   0  0  0  0  0  0  0  0  0  0  0  0
  -32.2701    2.9896  -28.9073 H   0  0  0  0  0  0  0  0  0  0  0  0
  -31.5268    4.6684  -27.2391 H   0  0  0  0  0  0  0  0  0  0  0  0
  -31.3044    4.0594  -24.8471 H   0  0  0  0  0  0  0  0  0  0  0  0
  -33.0654    4.3222  -24.6021 H   0  0  0  0  0  0  0  0  0  0  0  0
  -31.7645    6.3082  -23.8683 H   0  0  0  0  0  0  0  0  0  0  0  0
  -31.0338    6.4410  -25.5036 H   0  0  0  0  0  0  0  0  0  0  0  0
  -34.1683    7.3370  -27.1542 H   0  0  0  0  0  0  0  0  0  0  0  0
  -32.4146    7.0305  -27.3919 H   0  0  0  0  0  0  0  0  0  0  0  0
  -33.7627    5.1121  -28.2087 H   0  0  0  0  0  0  0  0  0  0  0  0
  -34.5169    4.9440  -26.5861 H   0  0  0  0  0  0  0  0  0  0  0  0
  -32.1900    8.7812  -25.7289 H   0  0  0  0  0  0  0  0  0  0  0  0
  -33.9019    8.8363  -25.1877 H   0  0  0  0  0  0  0  0  0  0  0  0
  -32.7133   10.4956  -23.3901 H   0  0  0  0  0  0  0  0  0  0  0  0
  -30.3172    9.0782  -22.2738 H   0  0  0  0  0  0  0  0  0  0  0  0
  -28.8135   10.9947  -21.3090 H   0  0  0  0  0  0  0  0  0  0  0  0
  -29.5461   12.2183  -22.4013 H   0  0  0  0  0  0  0  0  0  0  0  0
  -30.3782   13.5153  -20.5599 H   0  0  0  0  0  0  0  0  0  0  0  0
  -31.3409   11.8021  -19.1528 H   0  0  0  0  0  0  0  0  0  0  0  0
  -29.7358   11.0244  -18.8879 H   0  0  0  0  0  0  0  0  0  0  0  0
  -30.7237   13.7488  -17.8146 H   0  0  0  0  0  0  0  0  0  0  0  0
  -29.9917   12.3358  -16.8830 H   0  0  0  0  0  0  0  0  0  0  0  0
  -28.1285   14.1646  -20.5619 H   0  0  0  0  0  0  0  0  0  0  0  0
  -27.5366   12.4563  -20.2610 H   0  0  0  0  0  0  0  0  0  0  0  0
  1  2  1  0  0  0  0
  1 29  1  0  0  0  0
  1 30  1  0  0  0  0
  1 31  1  0  0  0  0
  2  3  1  0  0  0  0
  2 32  1  0  0  0  0
  2 33  1  0  0  0  0
  3  4  1  0  0  0  0
  3 34  1  0  0  0  0
  3 35  1  0  0  0  0
  4  5  1  0  0  0  0
  4 36  1  0  0  0  0
  4 37  1  0  0  0  0
  5  6  1  0  0  0  0
  5 38  1  0  0  0  0
  6  7  2  0  0  0  0
  6  8  1  0  0  0  0
  8 13  1  0  0  0  0
  8  9  1  0  0  0  0
  8 39  1  0  0  0  0
  9 10  1  0  0  0  0
  9 40  1  0  0  0  0
  9 41  1  0  0  0  0
 10 11  1  0  0  0  0
 10 42  1  0  0  0  0
 10 43  1  0  0  0  0
 11 12  1  0  0  0  0
 11 14  1  0  0  0  0
 12 13  1  0  0  0  0
 12 44  1  0  0  0  0
 12 45  1  0  0  0  0
 13 46  1  0  0  0  0
 13 47  1  0  0  0  0
 14 15  1  0  0  0  0
 14 48  1  0  0  0  0
 14 49  1  0  0  0  0
 15 16  2  0  0  0  0
 15 17  1  0  0  0  0
 17 18  1  0  0  0  0
 17 50  1  0  0  0  0
 18 19  1  0  0  0  0
 18 51  1  0  0  0  0
 19 20  2  0  0  0  0
 19 21  1  0  0  0  0
 21 22  1  0  0  0  0
 21 52  1  0  0  0  0
 21 53  1  0  0  0  0
 22 28  1  0  0  0  0
 22 23  1  0  0  0  0
 22 54  1  0  0  0  0
 23 24  1  0  0  0  0
 23 55  1  0  0  0  0
 23 56  1  0  0  0  0
 24 25  1  0  0  0  0
 24 57  1  0  0  0  0
 24 58  1  0  0  0  0
 25 26  2  0  0  0  0
 25 27  2  0  0  0  0
 25 28  1  0  0  0  0
 28 59  1  0  0  0  0
 28 60  1  0  0  0  0
M  END
> <Name>
ZINC30969187

> <reference>
BDB4965

> <quality>
0.662

> <status>
decoy

> <atoms in reference ligand area>
18

> <score>
-26.5497

$$$$
ZINC01731417
      BALL 1.4.0 (Jan  4 2012, 23:22:29)

 35 35  0999  0  0  0  0  0  0999 V2000
  -33.6717   11.2471  -21.2520 C   0  0  0  0  0  0  0  0  0  0  0  0
  -33.7980   12.6013  -20.6029 C   0  0  0  0  0  0  0  0  0  0  0  0
  -33.0659   12.5489  -18.9561 Cl  0  0  0  0  0  0  0  0  0  0  0  0
  -32.4920   10.8731  -21.8255 N   0  0  0  0  0  0  0  0  0  0  0  0
  -31.5242   10.6325  -21.1262 O   0  0  0  0  0  0  0  0  0  0  0  0
  -30.3677   11.2316  -21.4578 C   0  0  0  0  0  0  0  0  0  0  0  0
  -29.8713   11.0325  -22.5494 O   0  0  0  0  0  0  0  0  0  0  0  0
  -29.7006   12.1306  -20.4968 C   0  0  0  0  0  0  0  0  0  0  0  0
  -30.0104   12.0549  -19.1364 C   0  0  0  0  0  0  0  0  0  0  0  0
  -29.3798   12.8945  -18.2375 C   0  0  0  0  0  0  0  0  0  0  0  0
  -28.4451   13.8231  -18.6882 C   0  0  0  0  0  0  0  0  0  0  0  0
  -28.1385   13.9041  -20.0440 C   0  0  0  0  0  0  0  0  0  0  0  0
  -28.7620   13.0631  -20.9462 C   0  0  0  0  0  0  0  0  0  0  0  0
  -27.2248   14.8120  -20.4807 O   0  0  0  0  0  0  0  0  0  0  0  0
  -26.1876   14.3283  -21.3363 C   0  0  0  0  0  0  0  0  0  0  0  0
  -27.8311   14.6515  -17.8031 O   0  0  0  0  0  0  0  0  0  0  0  0
  -28.3379   15.9838  -17.7023 C   0  0  0  0  0  0  0  0  0  0  0  0
  -29.6764   12.8173  -16.9125 O   0  0  0  0  0  0  0  0  0  0  0  0
  -31.0600   12.8339  -16.5555 C   0  0  0  0  0  0  0  0  0  0  0  0
  -34.6618   10.3798  -21.2989 N   0  0  0  0  0  0  0  0  0  0  0  0
  -34.8609   12.8728  -20.5223 H   0  0  0  0  0  0  0  0  0  0  0  0
  -33.2732   13.3510  -21.2132 H   0  0  0  0  0  0  0  0  0  0  0  0
  -32.4195   10.7942  -22.8499 H   0  0  0  0  0  0  0  0  0  0  0  0
  -30.7556   11.3280  -18.7811 H   0  0  0  0  0  0  0  0  0  0  0  0
  -28.5195   13.1277  -22.0172 H   0  0  0  0  0  0  0  0  0  0  0  0
  -25.9463   15.1511  -22.0253 H   0  0  0  0  0  0  0  0  0  0  0  0
  -26.6293   13.5121  -21.9268 H   0  0  0  0  0  0  0  0  0  0  0  0
  -25.3000   13.9918  -20.7805 H   0  0  0  0  0  0  0  0  0  0  0  0
  -29.2536   16.0132  -18.3112 H   0  0  0  0  0  0  0  0  0  0  0  0
  -27.5926   16.6353  -18.1821 H   0  0  0  0  0  0  0  0  0  0  0  0
  -28.5324   16.2875  -16.6631 H   0  0  0  0  0  0  0  0  0  0  0  0
  -31.1548   12.2080  -15.6559 H   0  0  0  0  0  0  0  0  0  0  0  0
  -31.5966   12.3318  -17.3739 H   0  0  0  0  0  0  0  0  0  0  0  0
  -31.4428   13.8507  -16.3837 H   0  0  0  0  0  0  0  0  0  0  0  0
  -35.5573   10.6521  -20.8689 H   0  0  0  0  0  0  0  0  0  0  0  0
  1  2  1  0  0  0  0
  1  4  1  0  0  0  0
  1 20  2  0  0  0  0
  2  3  1  0  0  0  0
  2 21  1  0  0  0  0
  2 22  1  0  0  0  0
  4  5  1  0  0  0  0
  4 23  1  0  0  0  0
  5  6  1  0  0  0  0
  6  7  2  0  0  0  0
  6  8  1  0  0  0  0
  8 13  2  0  0  0  0
  8  9  1  0  0  0  0
  9 10  2  0  0  0  0
  9 24  1  0  0  0  0
 10 11  1  0  0  0  0
 10 18  1  0  0  0  0
 11 12  2  0  0  0  0
 11 16  1  0  0  0  0
 12 13  1  0  0  0  0
 12 14  1  0  0  0  0
 13 25  1  0  0  0  0
 14 15  1  0  0  0  0
 15 26  1  0  0  0  0
 15 27  1  0  0  0  0
 15 28  1  0  0  0  0
 16 17  1  0  0  0  0
 17 29  1  0  0  0  0
 17 30  1  0  0  0  0
 17 31  1  0  0  0  0
 18 19  1  0  0  0  0
 19 32  1  0  0  0  0
 19 33  1  0  0  0  0
 19 34  1  0  0  0  0
 20 35  1  0  0  0  0
M  END
> <Name>
ZINC01731417

> <reference>
BDB4986

> <quality>
0.750

> <status>
decoy

> <atoms in reference ligand area>
21

> <score>
-26.4942

$$$$
ZINC28069362
      BALL 1.4.0 (Jan  4 2012, 23:22:29)

 46 47  0999  0  0  0  0  0  0999 V2000
  -30.5215    4.4150  -30.5015 C   0  0  0  0  0  0  0  0  0  0  0  0
  -31.5516    4.6155  -29.3881 C   0  0  0  0  0  0  0  0  0  0  0  0
  -30.8968    5.3416  -28.2098 C   0  0  0  0  0  0  0  0  0  0  0  0
  -31.9464    5.5935  -27.1250 C   0  0  0  0  0  0  0  0  0  0  0  0
  -33.0382    6.4052  -27.6777 N   0  3  0  0  0  0  0  0  0  0  0  0
  -33.7128    5.7081  -28.7800 C   0  0  0  0  0  0  0  0  0  0  0  0
  -32.7159    5.4595  -29.9143 C   0  0  0  0  0  0  0  0  0  0  0  0
  -33.9957    6.7833  -26.6297 C   0  0  0  0  0  0  0  0  0  0  0  0
  -33.4438    7.9713  -25.8392 C   0  0  0  0  0  0  0  0  0  0  0  0
  -33.0585    7.5123  -24.4314 C   0  0  0  0  0  0  0  0  0  0  0  0
  -32.7574    8.6816  -23.6018 N   0  0  0  0  0  0  0  0  0  0  0  0
  -31.5559    9.2847  -23.6975 C   0  0  0  0  0  0  0  0  0  0  0  0
  -30.7216    8.8581  -24.4725 O   0  0  0  0  0  0  0  0  0  0  0  0
  -31.2529   10.4622  -22.8621 C   0  0  0  0  0  0  0  0  0  0  0  0
  -32.1127   10.8395  -21.8238 C   0  0  0  0  0  0  0  0  0  0  0  0
  -31.7834   11.9514  -21.0696 C   0  0  0  0  0  0  0  0  0  0  0  0
  -30.6259   12.6518  -21.3595 C   0  0  0  0  0  0  0  0  0  0  0  0
  -29.8300   12.2786  -22.3426 N   0  0  0  0  0  0  0  0  0  0  0  0
  -30.0979   11.2239  -23.0938 C   0  0  0  0  0  0  0  0  0  0  0  0
  -29.2518   10.8766  -24.0927 O   0  0  0  0  0  0  0  0  0  0  0  0
  -32.6622   12.3883  -19.9615 N   0  0  0  0  0  0  0  0  0  0  0  0
  -32.1894   12.6127  -18.8616 O   0  0  0  0  0  0  0  0  0  0  0  0
  -33.8579   12.5234  -20.1495 O   0  0  0  0  0  0  0  0  0  0  0  0
  -29.6089    3.9672  -30.0813 H   0  0  0  0  0  0  0  0  0  0  0  0
  -30.2768    5.3868  -30.9550 H   0  0  0  0  0  0  0  0  0  0  0  0
  -30.9364    3.7467  -31.2704 H   0  0  0  0  0  0  0  0  0  0  0  0
  -31.9249    3.6352  -29.0573 H   0  0  0  0  0  0  0  0  0  0  0  0
  -30.0873    4.7201  -27.7995 H   0  0  0  0  0  0  0  0  0  0  0  0
  -30.4857    6.3028  -28.5521 H   0  0  0  0  0  0  0  0  0  0  0  0
  -31.4833    6.1281  -26.2826 H   0  0  0  0  0  0  0  0  0  0  0  0
  -32.3475    4.6317  -26.7726 H   0  0  0  0  0  0  0  0  0  0  0  0
  -32.6258    7.2691  -28.0579 H   0  0  0  0  0  0  0  0  0  0  0  0
  -34.5435    6.3256  -29.1519 H   0  0  0  0  0  0  0  0  0  0  0  0
  -34.1047    4.7455  -28.4197 H   0  0  0  0  0  0  0  0  0  0  0  0
  -33.2186    4.9238  -30.7331 H   0  0  0  0  0  0  0  0  0  0  0  0
  -32.3338    6.4225  -30.2841 H   0  0  0  0  0  0  0  0  0  0  0  0
  -34.9535    7.0643  -27.0919 H   0  0  0  0  0  0  0  0  0  0  0  0
  -34.1521    5.9325  -25.9501 H   0  0  0  0  0  0  0  0  0  0  0  0
  -32.5554    8.3709  -26.3501 H   0  0  0  0  0  0  0  0  0  0  0  0
  -34.2115    8.7561  -25.7709 H   0  0  0  0  0  0  0  0  0  0  0  0
  -33.8946    6.9530  -23.9863 H   0  0  0  0  0  0  0  0  0  0  0  0
  -32.1714    6.8641  -24.4859 H   0  0  0  0  0  0  0  0  0  0  0  0
  -33.4641    9.0429  -22.9453 H   0  0  0  0  0  0  0  0  0  0  0  0
  -33.0274   10.2662  -21.6130 H   0  0  0  0  0  0  0  0  0  0  0  0
  -30.3649   13.5359  -20.7592 H   0  0  0  0  0  0  0  0  0  0  0  0
  -28.9763   12.8235  -22.5303 H   0  0  0  0  0  0  0  0  0  0  0  0
  1  2  1  0  0  0  0
  1 24  1  0  0  0  0
  1 25  1  0  0  0  0
  1 26  1  0  0  0  0
  2  7  1  0  0  0  0
  2  3  1  0  0  0  0
  2 27  1  0  0  0  0
  3  4  1  0  0  0  0
  3 28  1  0  0  0  0
  3 29  1  0  0  0  0
  4  5  1  0  0  0  0
  4 30  1  0  0  0  0
  4 31  1  0  0  0  0
  5  6  1  0  0  0  0
  5  8  1  0  0  0  0
  5 32  1  0  0  0  0
  6  7  1  0  0  0  0
  6 33  1  0  0  0  0
  6 34  1  0  0  0  0
  7 35  1  0  0  0  0
  7 36  1  0  0  0  0
  8  9  1  0  0  0  0
  8 37  1  0  0  0  0
  8 38  1  0  0  0  0
  9 10  1  0  0  0  0
  9 39  1  0  0  0  0
  9 40  1  0  0  0  0
 10 11  1  0  0  0  0
 10 41  1  0  0  0  0
 10 42  1  0  0  0  0
 11 12  1  0  0  0  0
 11 43  1  0  0  0  0
 12 13  2  0  0  0  0
 12 14  1  0  0  0  0
 14 15  2  0  0  0  0
 14 19  1  0  0  0  0
 15 16  1  0  0  0  0
 15 44  1  0  0  0  0
 16 17  2  0  0  0  0
 16 21  1  0  0  0  0
 17 18  1  0  0  0  0
 17 45  1  0  0  0  0
 18 19  1  0  0  0  0
 18 46  1  0  0  0  0
 19 20  2  0  0  0  0
 21 22  2  0  0  0  0
 21 23  2  0  0  0  0
M  END
> <Name>
ZINC28069362

> <reference>
BDB5195

> <quality>
0.744

> <status>
decoy

> <atoms in reference ligand area>
13

> <score>
-26.3984

$$$$
ZINC05425837
      BALL 1.4.0 (Jan  4 2012, 23:22:29)

 39 40  0999  0  0  0  0  0  0999 V2000
  -32.0550    9.2263  -22.9401 C   0  0  0  0  0  0  0  0  0  0  0  0
  -31.2869    9.6136  -24.2068 C   0  0  0  0  0  0  0  0  0  0  0  0
  -29.8574   10.0093  -23.8299 C   0  0  0  0  0  0  0  0  0  0  0  0
  -30.5835   10.7758  -21.6487 C   0  0  0  0  0  0  0  0  0  0  0  0
  -32.0347   10.4030  -21.9605 C   0  0  0  0  0  0  0  0  0  0  0  0
  -28.5373   11.6351  -22.6156 C   0  0  0  0  0  0  0  0  0  0  0  0
  -28.6247   12.9529  -21.8431 C   0  0  0  0  0  0  0  0  0  0  0  0
  -28.1694   12.7430  -20.4665 N   0  0  0  0  0  0  0  0  0  0  0  0
  -28.8190   13.2865  -19.4748 C   0  0  0  0  0  0  0  0  0  0  0  0
  -29.6185   14.5328  -19.6172 C   0  0  0  0  0  0  0  0  0  0  0  0
  -30.5880   14.7657  -18.6923 C   0  0  0  0  0  0  0  0  0  0  0  0
  -30.8325   13.9518  -17.6708 N   0  0  0  0  0  0  0  0  0  0  0  0
  -30.0692   12.9527  -17.3236 C   0  0  0  0  0  0  0  0  0  0  0  0
  -28.8251   12.7087  -18.0860 C   0  0  0  0  0  0  0  0  0  0  0  0
  -27.8136   12.0458  -17.5927 N   0  0  0  0  0  0  0  0  0  0  0  0
  -29.3834   15.4253  -20.6556 N   0  0  0  0  0  0  0  0  0  0  0  0
  -28.2610   15.2487  -21.5007 O   0  0  0  0  0  0  0  0  0  0  0  0
  -30.2662   16.5118  -20.8688 O   0  0  0  0  0  0  0  0  0  0  0  0
  -29.9066   11.1617  -22.9051 N   0  3  0  0  0  0  0  0  0  0  0  0
  -33.0953    8.9828  -23.2021 H   0  0  0  0  0  0  0  0  0  0  0  0
  -31.5772    8.3518  -22.4743 H   0  0  0  0  0  0  0  0  0  0  0  0
  -31.2604    8.7572  -24.8966 H   0  0  0  0  0  0  0  0  0  0  0  0
  -31.7859   10.4640  -24.6945 H   0  0  0  0  0  0  0  0  0  0  0  0
  -29.3008   10.2892  -24.7364 H   0  0  0  0  0  0  0  0  0  0  0  0
  -29.3593    9.1623  -23.3355 H   0  0  0  0  0  0  0  0  0  0  0  0
  -30.5637   11.6216  -20.9457 H   0  0  0  0  0  0  0  0  0  0  0  0
  -30.0679    9.9118  -21.2041 H   0  0  0  0  0  0  0  0  0  0  0  0
  -32.5474   10.1167  -21.0304 H   0  0  0  0  0  0  0  0  0  0  0  0
  -32.5459   11.2659  -22.4123 H   0  0  0  0  0  0  0  0  0  0  0  0
  -28.0096   10.8852  -22.0080 H   0  0  0  0  0  0  0  0  0  0  0  0
  -27.9965   11.7968  -23.5597 H   0  0  0  0  0  0  0  0  0  0  0  0
  -27.9868   13.7059  -22.3289 H   0  0  0  0  0  0  0  0  0  0  0  0
  -29.6667   13.3055  -21.8341 H   0  0  0  0  0  0  0  0  0  0  0  0
  -31.2005   15.6736  -18.7949 H   0  0  0  0  0  0  0  0  0  0  0  0
  -30.3453   12.3037  -16.4794 H   0  0  0  0  0  0  0  0  0  0  0  0
  -26.9833   11.9203  -18.1891 H   0  0  0  0  0  0  0  0  0  0  0  0
  -27.7589   16.0999  -21.4403 H   0  0  0  0  0  0  0  0  0  0  0  0
  -30.5698   16.4145  -21.8061 H   0  0  0  0  0  0  0  0  0  0  0  0
  -30.4380   11.9237  -23.3499 H   0  0  0  0  0  0  0  0  0  0  0  0
  1  5  1  0  0  0  0
  1  2  1  0  0  0  0
  1 20  1  0  0  0  0
  1 21  1  0  0  0  0
  2  3  1  0  0  0  0
  2 22  1  0  0  0  0
  2 23  1  0  0  0  0
  3 19  1  0  0  0  0
  3 24  1  0  0  0  0
  3 25  1  0  0  0  0
  4  5  1  0  0  0  0
  4 19  1  0  0  0  0
  4 26  1  0  0  0  0
  4 27  1  0  0  0  0
  5 28  1  0  0  0  0
  5 29  1  0  0  0  0
  6  7  1  0  0  0  0
  6 19  1  0  0  0  0
  6 30  1  0  0  0  0
  6 31  1  0  0  0  0
  7  8  1  0  0  0  0
  7 32  1  0  0  0  0
  7 33  1  0  0  0  0
  8  9  2  0  0  0  0
  9 14  1  0  0  0  0
  9 10  1  0  0  0  0
 10 11  2  0  0  0  0
 10 16  1  0  0  0  0
 11 12  1  0  0  0  0
 11 34  1  0  0  0  0
 12 13  2  0  0  0  0
 13 14  1  0  0  0  0
 13 35  1  0  0  0  0
 14 15  2  0  0  0  0
 15 36  1  0  0  0  0
 16 17  1  0  0  0  0
 16 18  1  0  0  0  0
 17 37  1  0  0  0  0
 18 38  1  0  0  0  0
 19 39  1  0  0  0  0
M  END
> <Name>
ZINC05425837

> <reference>
BDB5233

> <quality>
0.734

> <status>
decoy

> <atoms in reference ligand area>
22

> <score>
-26.3912

$$$$
