ZINC26140662
 OpenBabel01081722523D

 26 28  0  0  0  0  0  0  0  0999 V2000
    9.2380   11.7850    3.6100 C   0  0  0  0  0  0  0  0  0  0  0  0
    8.9680   11.2910    2.3860 N   0  0  0  0  0  0  0  0  0  0  0  0
    9.4930   11.5880    1.6070 H   0  0  0  0  0  0  0  0  0  0  0  0
    8.5910   11.4180    4.5690 O   0  0  0  0  0  0  0  0  0  0  0  0
   10.3440   12.7920    3.7880 C   0  0  0  0  0  0  0  0  0  0  0  0
   12.0870   14.7750   -1.5740 C   0  0  0  0  0  0  0  0  0  0  0  0
   11.1320   15.7750   -1.2930 C   0  0  0  0  0  0  0  0  0  0  0  0
   10.4440   15.7590   -0.1380 C   0  0  0  0  0  0  0  0  0  0  0  0
   10.6470   14.7620    0.7860 N   0  0  0  0  0  0  0  0  0  0  0  0
   11.5770   13.7690    0.5370 C   0  0  0  0  0  0  0  0  0  0  0  0
   11.5900   12.9470    1.5610 N   0  0  0  0  0  0  0  0  0  0  0  0
   10.6540   13.4110    2.4960 N   0  0  0  0  0  0  0  0  0  0  0  0
   10.0910   14.5270    1.9910 C   0  0  0  0  0  0  0  0  0  0  0  0
    9.2330   15.2040    2.5300 O   0  0  0  0  0  0  0  0  0  0  0  0
   12.3100   13.7850   -0.6770 C   0  0  0  0  0  0  0  0  0  0  0  0
    7.8920   10.3100    2.2120 C   0  0  0  0  0  0  0  0  0  0  0  0
    6.8980   10.8230    1.1680 C   0  0  0  0  0  0  0  0  0  0  0  0
    7.5800   11.7380    0.2510 N   0  0  0  0  0  0  0  0  0  0  0  0
    8.3590   12.2570    0.5600 H   0  0  0  0  0  0  0  0  0  0  0  0
    7.1450   11.8700   -1.0180 C   0  0  0  0  0  0  0  0  0  0  0  0
    6.1840   11.2300   -1.4010 O   0  0  0  0  0  0  0  0  0  0  0  0
    7.8290   12.7860   -1.9360 C   0  0  0  0  0  0  0  0  0  0  0  0
    7.6110   14.1310   -2.0380 C   0  0  0  0  0  0  0  0  0  0  0  0
    8.4780   14.6050   -3.0360 C   0  0  0  0  0  0  0  0  0  0  0  0
    9.1770   13.5430   -3.4920 C   0  0  0  0  0  0  0  0  0  0  0  0
    8.7870   12.4500   -2.8230 O   0  0  0  0  0  0  0  0  0  0  0  0
  1  5  1  0  0  0  0
  1  4  2  0  0  0  0
  2  1  1  0  0  0  0
  3  2  1  0  0  0  0
  6  7  1  0  0  0  0
  6 15  2  0  0  0  0
  7  8  2  0  0  0  0
  8  9  1  0  0  0  0
  9 13  1  0  0  0  0
 10  9  1  0  0  0  0
 10 11  2  0  0  0  0
 11 12  1  0  0  0  0
 12  5  1  0  0  0  0
 13 12  1  0  0  0  0
 13 14  2  0  0  0  0
 15 10  1  0  0  0  0
 16  2  1  0  0  0  0
 17 16  1  0  0  0  0
 18 19  1  0  0  0  0
 18 17  1  0  0  0  0
 20 18  1  0  0  0  0
 21 20  2  0  0  0  0
 22 20  1  0  0  0  0
 23 22  2  0  0  0  0
 24 23  1  0  0  0  0
 25 24  2  0  0  0  0
 25 26  1  0  0  0  0
 26 22  1  0  0  0  0
M  END
>  <MODEL>
1

>  <REMARK>
 VINA RESULT:      -7.8      0.000      0.000
  Name = ZINC26140662
                            x       y       z     vdW  Elec       q    Type
                         _______ _______ _______ _____ _____    ______ ____

>  <TORSDO>
F 6

>  <vina_score>
-7.8

$$$$
ZINC06157444
 OpenBabel01081722303D

 29 31  0  0  1  0  0  0  0  0999 V2000
    7.4290   11.0090    0.9500 N   0  0  0  0  0  0  0  0  0  0  0  0
    8.2570   11.3680   -0.0520 C   0  0  0  0  0  0  0  0  0  0  0  0
    7.3770   11.5150   -1.2780 C   0  0  1  0  0  0  0  0  0  0  0  0
    6.0290   11.2000   -0.7750 N   0  0  0  0  0  0  0  0  0  0  0  0
    9.4550   11.5360    0.0140 O   0  0  0  0  0  0  0  0  0  0  0  0
    6.1620   10.9180    0.5330 C   0  0  0  0  0  0  0  0  0  0  0  0
    5.2330   10.6140    1.2560 O   0  0  0  0  0  0  0  0  0  0  0  0
    7.8640   10.7590    2.3260 C   0  0  0  0  0  0  0  0  0  0  0  0
    8.4270   12.0270    2.9140 C   0  0  0  0  0  0  0  0  0  0  0  0
    7.8190   13.0720    2.7970 O   0  0  0  0  0  0  0  0  0  0  0  0
    9.6620   12.0010    3.6040 C   0  0  2  0  0  0  0  0  0  0  0  0
   12.0500   12.5600    3.0980 C   0  0  0  0  0  0  0  0  0  0  0  0
   10.6190   12.9650    3.3470 C   0  0  1  0  0  0  0  0  0  0  0  0
   10.2740   14.2690    3.3180 N   0  0  0  0  0  0  0  0  0  0  0  0
    9.3380   14.5340    3.4810 H   0  0  0  0  0  0  0  0  0  0  0  0
   10.9540   14.9560    3.1360 H   0  0  0  0  0  0  0  0  0  0  0  0
    9.9230   10.9710    4.5650 C   0  0  0  0  0  0  0  0  0  0  0  0
   10.1300   10.1540    5.3270 N   0  0  0  0  0  0  0  0  0  0  0  0
    7.4330   12.9480   -1.8060 C   0  0  0  0  0  0  0  0  0  0  0  0
    8.7930   13.2130   -2.4010 C   0  0  0  0  0  0  0  0  0  0  0  0
    9.2250   12.8220   -3.6100 C   0  0  0  0  0  0  0  0  0  0  0  0
   10.5120   13.2450   -3.8050 N   0  0  0  0  0  0  0  0  0  0  0  0
   11.0450   13.0800   -4.6150 H   0  0  0  0  0  0  0  0  0  0  0  0
   10.9500   13.9360   -2.6970 C   0  0  0  0  0  0  0  0  0  0  0  0
   12.1470   14.5660   -2.3740 C   0  0  0  0  0  0  0  0  0  0  0  0
   12.2820   15.1900   -1.1520 C   0  0  0  0  0  0  0  0  0  0  0  0
   11.2370   15.1980   -0.2400 C   0  0  0  0  0  0  0  0  0  0  0  0
   10.0520   14.5850   -0.5390 C   0  0  0  0  0  0  0  0  0  0  0  0
    9.8900   13.9520   -1.7720 C   0  0  0  0  0  0  0  0  0  0  0  0
  1  8  1  0  0  0  0
  2  5  2  0  0  0  0
  2  1  1  0  0  0  0
  3 19  1  1  0  0  0
  3  4  1  0  0  0  0
  3  2  1  0  0  0  0
  4  6  1  0  0  0  0
  6  1  1  0  0  0  0
  6  7  2  0  0  0  0
  8  9  1  0  0  0  0
 10  9  2  0  0  0  0
 11  9  1  6  0  0  0
 11 17  1  0  0  0  0
 13 12  1  6  0  0  0
 13 11  1  0  0  0  0
 14 13  1  0  0  0  0
 14 15  1  0  0  0  0
 16 14  1  0  0  0  0
 17 18  3  0  0  0  0
 20 19  1  0  0  0  0
 20 29  1  0  0  0  0
 21 20  2  0  0  0  0
 22 21  1  0  0  0  0
 22 24  1  0  0  0  0
 23 22  1  0  0  0  0
 24 25  2  0  0  0  0
 24 29  1  0  0  0  0
 25 26  1  0  0  0  0
 26 27  2  0  0  0  0
 28 27  1  0  0  0  0
 29 28  2  0  0  0  0
M  END
>  <MODEL>
1

>  <REMARK>
 VINA RESULT:      -7.6      0.000      0.000
  Name = ZINC06157444
                            x       y       z     vdW  Elec       q    Type
                         _______ _______ _______ _____ _____    ______ ____

>  <TORSDO>
F 7

>  <vina_score>
-7.6

$$$$
ZINC05426335
 OpenBabel01081722483D

 23 25  0  0  1  0  0  0  0  0999 V2000
   11.7250   13.3330    1.0290 N   0  0  0  0  0  0  0  0  0  0  0  0
   10.5130   12.8970    1.4970 C   0  0  0  0  0  0  0  0  0  0  0  0
    9.3570   12.5440    0.9770 N   0  0  0  0  0  0  0  0  0  0  0  0
    8.3410   12.1570    1.7450 C   0  0  0  0  0  0  0  0  0  0  0  0
    8.3920   12.0890    3.0630 N   0  0  0  0  0  0  0  0  0  0  0  0
    9.5020   12.4090    3.7430 C   0  0  0  0  0  0  0  0  0  0  0  0
    9.5410   12.3470    4.9610 O   0  0  0  0  0  0  0  0  0  0  0  0
   10.6680   12.8530    2.9610 C   0  0  0  0  0  0  0  0  0  0  0  0
   11.8870   13.2500    3.2340 N   0  0  0  0  0  0  0  0  0  0  0  0
   12.5320   13.5360    2.1590 N   0  0  0  0  0  0  0  0  0  0  0  0
   11.8710   15.0220   -0.7550 C   0  0  0  0  0  0  0  0  0  0  0  0
   10.8770   14.9550   -1.9410 C   0  0  1  0  0  0  0  0  0  0  0  0
   11.0720   13.5020   -2.4450 C   0  0  1  0  0  0  0  0  0  0  0  0
   11.2710   12.7480   -1.2300 O   0  0  0  0  0  0  0  0  0  0  0  0
   12.1000   13.5470   -0.3700 C   0  0  2  0  0  0  0  0  0  0  0  0
    9.5360   15.1640   -1.4960 O   0  0  0  0  0  0  0  0  0  0  0  0
    8.9850   15.4400   -2.2460 H   0  0  0  0  0  0  0  0  0  0  0  0
    9.8220   13.0150   -3.1820 C   0  0  0  0  0  0  0  0  0  0  0  0
   10.0630   13.0330   -4.5910 O   0  0  0  0  0  0  0  0  0  0  0  0
   10.9650   12.7250   -4.7680 H   0  0  0  0  0  0  0  0  0  0  0  0
    7.1650   11.8030    1.1260 N   0  0  0  0  0  0  0  0  0  0  0  0
    6.8890   10.8580    1.0960 H   0  0  0  0  0  0  0  0  0  0  0  0
    6.5980   12.4940    0.7130 H   0  0  0  0  0  0  0  0  0  0  0  0
  1  2  1  0  0  0  0
  1 10  1  0  0  0  0
  2  8  2  0  0  0  0
  3  2  1  0  0  0  0
  3  4  1  0  0  0  0
  4  5  2  0  0  0  0
  5  6  1  0  0  0  0
  6  7  2  0  0  0  0
  8  9  1  0  0  0  0
  8  6  1  0  0  0  0
 10  9  2  0  0  0  0
 11 15  1  0  0  0  0
 12 16  1  1  0  0  0
 12 11  1  0  0  0  0
 13 18  1  1  0  0  0
 13 12  1  0  0  0  0
 13 14  1  0  0  0  0
 14 15  1  0  0  0  0
 15  1  1  1  0  0  0
 17 16  1  0  0  0  0
 19 18  1  0  0  0  0
 20 19  1  0  0  0  0
 21  4  1  0  0  0  0
 22 21  1  0  0  0  0
 23 21  1  0  0  0  0
M  END
>  <MODEL>
1

>  <REMARK>
 VINA RESULT:      -7.6      0.000      0.000
  Name = ZINC05426335
                            x       y       z     vdW  Elec       q    Type
                         _______ _______ _______ _____ _____    ______ ____

>  <TORSDO>
F 5

>  <vina_score>
-7.6

$$$$
ZINC04535649
 OpenBabel01081722523D

 27 28  0  0  1  0  0  0  0  0999 V2000
   13.2320   13.0680    2.4640 C   0  0  0  0  0  0  0  0  0  0  0  0
   11.9500   13.0120    3.2540 C   0  0  0  0  0  0  0  0  0  0  0  0
   10.7560   12.5710    2.6350 C   0  0  0  0  0  0  0  0  0  0  0  0
    9.5590   12.3690    3.2380 C   0  0  0  0  0  0  0  0  0  0  0  0
    9.3020   12.5560    4.5520 O   0  0  0  0  0  0  0  0  0  0  0  0
    8.5800   11.9090    2.2290 C   0  0  0  0  0  0  0  0  0  0  0  0
    9.1670   11.8300    1.0220 N   0  0  0  0  0  0  0  0  0  0  0  0
    7.4160   11.6430    2.4570 O   0  0  0  0  0  0  0  0  0  0  0  0
   10.5700   12.2350    1.1740 C   0  0  1  0  0  0  0  0  0  0  0  0
   11.9410   13.3450    4.4210 O   0  0  0  0  0  0  0  0  0  0  0  0
   10.8540   13.4470    0.3230 C   0  0  0  0  0  0  0  0  0  0  0  0
   11.7470   13.3590   -0.7280 C   0  0  0  0  0  0  0  0  0  0  0  0
   12.0080   14.4690   -1.5090 C   0  0  0  0  0  0  0  0  0  0  0  0
   11.3760   15.6700   -1.2410 C   0  0  0  0  0  0  0  0  0  0  0  0
   10.4830   15.7620   -0.1910 C   0  0  0  0  0  0  0  0  0  0  0  0
   10.2200   14.6500    0.5940 C   0  0  0  0  0  0  0  0  0  0  0  0
    9.3420   14.7390    1.6280 O   0  0  0  0  0  0  0  0  0  0  0  0
    9.3970   15.9220    2.4260 C   0  0  0  0  0  0  0  0  0  0  0  0
    8.5210   11.4130   -0.2250 C   0  0  0  0  0  0  0  0  0  0  0  0
    7.7170   12.5820   -0.7990 C   0  0  0  0  0  0  0  0  0  0  0  0
    7.7790   12.5350   -2.2710 N   0  0  0  0  0  0  0  0  0  0  0  0
    8.1730   11.6400   -2.5590 H   0  0  0  0  0  0  0  0  0  0  0  0
    6.8380   12.6400   -2.6510 H   0  0  0  0  0  0  0  0  0  0  0  0
    8.6330   13.6230   -2.7830 C   0  0  0  0  0  0  0  0  0  0  0  0
    9.5230   13.0770   -3.9010 C   0  0  0  0  0  0  0  0  0  0  0  0
    8.8330   12.0340   -4.5930 O   0  0  0  0  0  0  0  0  0  0  0  0
    8.8610   12.2060   -5.5470 H   0  0  0  0  0  0  0  0  0  0  0  0
  1  2  1  0  0  0  0
  2 10  2  0  0  0  0
  3  4  2  0  0  0  0
  3  2  1  0  0  0  0
  4  5  1  0  0  0  0
  6  8  2  0  0  0  0
  6  4  1  0  0  0  0
  7  9  1  0  0  0  0
  7  6  1  0  0  0  0
  9 11  1  6  0  0  0
  9  3  1  0  0  0  0
 11 16  1  0  0  0  0
 12 11  2  0  0  0  0
 13 14  2  0  0  0  0
 13 12  1  0  0  0  0
 14 15  1  0  0  0  0
 15 16  2  0  0  0  0
 16 17  1  0  0  0  0
 17 18  1  0  0  0  0
 19  7  1  0  0  0  0
 20 19  1  0  0  0  0
 21 20  1  0  0  0  0
 22 21  1  0  0  0  0
 23 21  1  0  0  0  0
 24 21  1  0  0  0  0
 25 24  1  0  0  0  0
 26 25  1  0  0  0  0
 27 26  1  0  0  0  0
M  END
>  <MODEL>
1

>  <REMARK>
 VINA RESULT:      -7.6      0.000      0.000
  Name = ZINC04535649
                            x       y       z     vdW  Elec       q    Type
                         _______ _______ _______ _____ _____    ______ ____

>  <TORSDO>
F 8

>  <vina_score>
-7.6

$$$$
ZINC05677679
 OpenBabel01081722453D

 26 27  0  0  1  0  0  0  0  0999 V2000
    7.4220   13.3850   -1.2650 N   0  0  0  0  0  0  0  0  0  0  0  0
    6.8350   13.8810   -0.6490 H   0  0  0  0  0  0  0  0  0  0  0  0
    8.3740   14.0370   -1.9620 C   0  0  0  0  0  0  0  0  0  0  0  0
    9.0060   13.3500   -3.3970 S   0  0  0  0  0  0  0  0  0  0  0  0
    8.8260   15.2300   -1.5290 N   0  0  0  0  0  0  0  0  0  0  0  0
    8.3410   16.0550   -1.7610 H   0  0  0  0  0  0  0  0  0  0  0  0
    9.8780   16.4290    0.3080 C   0  0  0  0  0  0  0  0  0  0  0  0
   10.0410   15.3010   -0.7130 C   0  0  2  0  0  0  0  0  0  0  0  0
   11.2240   15.6310   -1.6220 C   0  0  0  0  0  0  0  0  0  0  0  0
   12.5370   15.0490   -1.0370 C   0  0  0  0  0  0  0  0  0  0  0  0
   11.9030   13.4280   -0.4160 S   0  0  0  0  0  0  0  0  0  0  0  0
   11.8240   12.5120   -1.4990 O   0  0  0  0  0  0  0  0  0  0  0  0
   12.6150   13.0680    0.7600 O   0  0  0  0  0  0  0  0  0  0  0  0
   10.2050   13.9690    0.0450 C   0  0  0  0  0  0  0  0  0  0  0  0
    7.2600   11.9380   -1.4240 C   0  0  0  0  0  0  0  0  0  0  0  0
    7.6740   11.2330   -0.1300 C   0  0  0  0  0  0  0  0  0  0  0  0
    7.2230   12.0350    1.0230 N   0  0  0  0  0  0  0  0  0  0  0  0
    7.2590   13.0230    0.7760 H   0  0  0  0  0  0  0  0  0  0  0  0
    6.2670   11.7690    1.2630 H   0  0  0  0  0  0  0  0  0  0  0  0
    8.0990   11.7980    2.1850 C   0  0  1  0  0  0  0  0  0  0  0  0
    9.3810   11.0860    1.7220 C   0  0  0  0  0  0  0  0  0  0  0  0
   10.4410   11.1190    2.8480 C   0  0  0  0  0  0  0  0  0  0  0  0
   10.0050   12.6520    3.7670 S   0  0  0  0  0  0  0  0  0  0  0  0
   11.0270   13.6180    3.5640 O   0  0  0  0  0  0  0  0  0  0  0  0
    9.6230   12.3040    5.0920 O   0  0  0  0  0  0  0  0  0  0  0  0
    8.5050   13.1560    2.8240 C   0  0  0  0  0  0  0  0  0  0  0  0
  1  2  1  0  0  0  0
  3  5  1  0  0  0  0
  3  1  1  0  0  0  0
  4  3  2  0  0  0  0
  6  5  1  0  0  0  0
  8  5  1  6  0  0  0
  8 14  1  0  0  0  0
  8  7  1  0  0  0  0
  9 10  1  0  0  0  0
  9  8  1  0  0  0  0
 10 11  1  0  0  0  0
 11 14  1  0  0  0  0
 11 13  2  0  0  0  0
 12 11  2  0  0  0  0
 15  1  1  0  0  0  0
 15 16  1  0  0  0  0
 16 17  1  0  0  0  0
 17 19  1  0  0  0  0
 18 17  1  0  0  0  0
 20 17  1  6  0  0  0
 20 26  1  0  0  0  0
 21 20  1  0  0  0  0
 21 22  1  0  0  0  0
 22 23  1  0  0  0  0
 23 25  2  0  0  0  0
 24 23  2  0  0  0  0
 26 23  1  0  0  0  0
M  END
>  <MODEL>
1

>  <REMARK>
 VINA RESULT:      -7.3      0.000      0.000
  Name = ZINC05677679
                            x       y       z     vdW  Elec       q    Type
                         _______ _______ _______ _____ _____    ______ ____

>  <TORSDO>
F 7

>  <vina_score>
-7.3

$$$$
ZINC17430523
 OpenBabel01081723413D

 34 36  0  0  1  0  0  0  0  0999 V2000
    9.5130   12.5760    2.7930 C   0  0  0  0  0  0  0  0  0  0  0  0
    9.4710   12.6830    1.4150 C   0  0  0  0  0  0  0  0  0  0  0  0
    9.6110   14.0110    1.1280 N   0  0  0  0  0  0  0  0  0  0  0  0
    9.7250   14.6790    2.3090 C   0  0  0  0  0  0  0  0  0  0  0  0
    9.6660   13.8300    3.2920 N   0  0  0  0  0  0  0  0  0  0  0  0
    9.6310   14.6080   -0.2090 C   0  0  1  0  0  0  0  0  0  0  0  0
   11.0390   14.4810   -0.8460 C   0  0  2  0  0  0  0  0  0  0  0  0
   10.7180   14.5490   -2.3590 C   0  0  1  0  0  0  0  0  0  0  0  0
    9.2280   14.1660   -2.4470 C   0  0  2  0  0  0  0  0  0  0  0  0
    8.7850   13.8660   -1.1120 O   0  0  0  0  0  0  0  0  0  0  0  0
   11.6400   13.2290   -0.5080 O   0  0  0  0  0  0  0  0  0  0  0  0
   10.9980   12.6800   -0.0320 H   0  0  0  0  0  0  0  0  0  0  0  0
   10.9250   15.8730   -2.8560 O   0  0  0  0  0  0  0  0  0  0  0  0
   11.8140   16.1720   -2.6140 H   0  0  0  0  0  0  0  0  0  0  0  0
    9.0570   12.9370   -3.3410 C   0  0  0  0  0  0  0  0  0  0  0  0
    9.8720   13.0770   -4.5060 O   0  0  0  0  0  0  0  0  0  0  0  0
   10.5360   13.7670   -4.3550 H   0  0  0  0  0  0  0  0  0  0  0  0
    9.3190   11.6470    0.5060 N   0  0  0  0  0  0  0  0  0  0  0  0
   10.1060   11.2770    0.0440 H   0  0  0  0  0  0  0  0  0  0  0  0
    8.0930   11.1440    0.2550 C   0  0  0  0  0  0  0  0  0  0  0  0
    7.1140   11.6580    0.7540 O   0  0  0  0  0  0  0  0  0  0  0  0
    9.4030   11.3330    3.5740 C   0  0  0  0  0  0  0  0  0  0  0  0
    8.2400   10.6920    3.5310 N   0  0  0  0  0  0  0  0  0  0  0  0
    8.1210    9.8560    4.0370 H   0  0  0  0  0  0  0  0  0  0  0  0
   10.4820   10.8820    4.3070 N   0  0  0  0  0  0  0  0  0  0  0  0
   10.5330   11.0660    5.2730 H   0  0  0  0  0  0  0  0  0  0  0  0
   11.5160   10.1540    3.6700 O   0  0  0  0  0  0  0  0  0  0  0  0
   12.4560   10.9710    2.9700 C   0  0  0  0  0  0  0  0  0  0  0  0
   15.7080   11.9420    5.5660 C   0  0  0  0  0  0  0  0  0  0  0  0
   14.9200   12.9480    5.0390 C   0  0  0  0  0  0  0  0  0  0  0  0
   13.8680   12.6330    4.1990 C   0  0  0  0  0  0  0  0  0  0  0  0
   13.6040   11.3130    3.8860 C   0  0  0  0  0  0  0  0  0  0  0  0
   14.3880   10.3070    4.4170 C   0  0  0  0  0  0  0  0  0  0  0  0
   15.4430   10.6210    5.2530 C   0  0  0  0  0  0  0  0  0  0  0  0
  1  5  1  0  0  0  0
  1 22  1  0  0  0  0
  2  1  2  0  0  0  0
  3  2  1  0  0  0  0
  3  4  1  0  0  0  0
  4  5  2  0  0  0  0
  6  3  1  1  0  0  0
  7 11  1  6  0  0  0
  7  6  1  0  0  0  0
  8 13  1  1  0  0  0
  8  7  1  0  0  0  0
  9 15  1  6  0  0  0
  9  8  1  0  0  0  0
  9 10  1  0  0  0  0
 10  6  1  0  0  0  0
 11 12  1  0  0  0  0
 13 14  1  0  0  0  0
 16 17  1  0  0  0  0
 16 15  1  0  0  0  0
 18  2  1  0  0  0  0
 19 18  1  0  0  0  0
 20 18  1  0  0  0  0
 20 21  2  0  0  0  0
 22 25  1  0  0  0  0
 23 22  2  0  0  0  0
 23 24  1  0  0  0  0
 25 26  1  0  0  0  0
 27 25  1  0  0  0  0
 28 27  1  0  0  0  0
 28 32  1  0  0  0  0
 30 29  2  0  0  0  0
 31 30  1  0  0  0  0
 32 31  2  0  0  0  0
 32 33  1  0  0  0  0
 33 34  2  0  0  0  0
 34 29  1  0  0  0  0
M  END
>  <MODEL>
1

>  <REMARK>
 VINA RESULT:      -7.3      0.000      0.000
  Name = ZINC17430523
                            x       y       z     vdW  Elec       q    Type
                         _______ _______ _______ _____ _____    ______ ____

>  <TORSDO>
F 11

>  <vina_score>
-7.3

$$$$
ZINC04226596
 OpenBabel01081722333D

 23 24  0  0  1  0  0  0  0  0999 V2000
    9.8410   12.1820    1.0230 C   0  0  1  0  0  0  0  0  0  0  0  0
    8.6250   11.5280    0.8870 C   0  0  0  0  0  0  0  0  0  0  0  0
    7.9490   11.5810   -0.3230 C   0  0  0  0  0  0  0  0  0  0  0  0
    8.3860   12.2410   -1.4230 N   0  0  0  0  0  0  0  0  0  0  0  0
    7.8740   12.2530   -2.2640 H   0  0  0  0  0  0  0  0  0  0  0  0
    9.5890   12.8940   -1.2930 C   0  0  0  0  0  0  0  0  0  0  0  0
   10.0910   13.6000   -2.4170 C   0  0  0  0  0  0  0  0  0  0  0  0
   11.3040   14.2680   -2.3140 C   0  0  0  0  0  0  0  0  0  0  0  0
   12.0230   14.2520   -1.1280 C   0  0  0  0  0  0  0  0  0  0  0  0
   11.5600   13.5790   -0.0340 C   0  0  0  0  0  0  0  0  0  0  0  0
    6.6330   10.8630   -0.4590 C   0  0  0  0  0  0  0  0  0  0  0  0
   10.3410   12.8910   -0.0950 C   0  0  0  0  0  0  0  0  0  0  0  0
    9.3320   13.6240   -3.6790 C   0  0  0  0  0  0  0  0  0  0  0  0
    9.2600   12.5150   -4.4410 O   0  0  0  0  0  0  0  0  0  0  0  0
    8.7720   14.6420   -4.0330 O   0  0  0  0  0  0  0  0  0  0  0  0
   10.5390   12.1480    2.2200 N   0  0  0  0  0  0  0  0  0  0  0  0
   11.2570   11.4870    2.3510 H   0  0  0  0  0  0  0  0  0  0  0  0
   10.2110   13.0950    3.2880 C   0  0  1  0  0  0  0  0  0  0  0  0
    9.4460   15.3510    2.5370 C   0  0  0  0  0  0  0  0  0  0  0  0
    8.9960   13.9290    2.8740 C   0  0  0  0  0  0  0  0  0  0  0  0
    9.8890   12.3260    4.5700 C   0  0  0  0  0  0  0  0  0  0  0  0
    8.4970   12.4530    4.8660 O   0  0  0  0  0  0  0  0  0  0  0  0
    8.2800   11.9070    5.6380 H   0  0  0  0  0  0  0  0  0  0  0  0
  1 16  1  1  0  0  0
  2  1  1  0  0  0  0
  3  2  2  0  0  0  0
  4  6  1  0  0  0  0
  4  3  1  0  0  0  0
  5  4  1  0  0  0  0
  6 12  2  0  0  0  0
  7  8  2  0  0  0  0
  7  6  1  0  0  0  0
  8  9  1  0  0  0  0
  9 10  2  0  0  0  0
 11  3  1  0  0  0  0
 12 10  1  0  0  0  0
 12  1  1  0  0  0  0
 13  7  1  0  0  0  0
 14 13  2  0  0  0  0
 15 13  1  0  0  0  0
 16 17  1  0  0  0  0
 18 16  1  6  0  0  0
 18 21  1  0  0  0  0
 19 20  1  0  0  0  0
 20 18  1  0  0  0  0
 21 22  1  0  0  0  0
 22 23  1  0  0  0  0
M  END
>  <MODEL>
1

>  <REMARK>
 VINA RESULT:      -7.2      0.000      0.000
  Name = ZINC04226596
                            x       y       z     vdW  Elec       q    Type
                         _______ _______ _______ _____ _____    ______ ____

>  <TORSDO>
F 6

>  <vina_score>
-7.2

$$$$
ZINC05114539
 OpenBabel01081722363D

 30 32  0  0  1  0  0  0  0  0999 V2000
    9.6640   13.0450   -3.8590 C   0  0  0  0  0  0  0  0  0  0  0  0
    9.3100   14.1620   -2.8750 C   0  0  1  0  0  0  0  0  0  0  0  0
    8.3010   13.6470   -1.8630 C   0  0  0  0  0  0  0  0  0  0  0  0
    8.8170   12.8420   -0.7530 C   0  0  0  0  0  0  0  0  0  0  0  0
   10.1820   12.8270   -0.4130 C   0  0  0  0  0  0  0  0  0  0  0  0
   11.1690   13.6280   -1.1730 C   0  0  0  0  0  0  0  0  0  0  0  0
   12.3690   13.5040   -1.0300 O   0  0  0  0  0  0  0  0  0  0  0  0
   10.3210   11.9720    0.6760 C   0  0  0  0  0  0  0  0  0  0  0  0
    9.0830   11.4840    0.9690 C   0  0  0  0  0  0  0  0  0  0  0  0
    8.3980   10.5440    1.9410 C   0  0  2  0  0  0  0  0  0  0  0  0
    7.0310   10.2490    1.2850 C   0  0  2  0  0  0  0  0  0  0  0  0
    6.8180   11.5120    0.4210 C   0  0  0  0  0  0  0  0  0  0  0  0
    8.1700   12.0140    0.1140 N   0  0  0  0  0  0  0  0  0  0  0  0
    7.1180   13.8930   -1.9680 O   0  0  0  0  0  0  0  0  0  0  0  0
   10.5590   14.6060   -2.1370 C   0  0  0  0  0  0  0  0  0  0  0  0
   11.0720   15.7630   -2.3280 N   0  0  0  0  0  0  0  0  0  0  0  0
   10.6550   16.3870   -2.9650 H   0  0  0  0  0  0  0  0  0  0  0  0
    5.9770   10.1530    2.3110 N   0  0  0  0  0  0  0  0  0  0  0  0
    5.4590   11.0320    2.3500 H   0  0  0  0  0  0  0  0  0  0  0  0
    5.3400    9.3930    2.0750 H   0  0  0  0  0  0  0  0  0  0  0  0
    6.4030    9.9690    3.2200 H   0  0  0  0  0  0  0  0  0  0  0  0
    8.2200   11.1790    3.2090 O   0  0  0  0  0  0  0  0  0  0  0  0
    8.7810   10.7440    3.8700 H   0  0  0  0  0  0  0  0  0  0  0  0
   11.6040   11.6400    1.3930 C   0  0  0  0  0  0  0  0  0  0  0  0
   11.3810   11.6770    2.8270 O   0  0  0  0  0  0  0  0  0  0  0  0
   11.4040   12.8860    3.4180 C   0  0  0  0  0  0  0  0  0  0  0  0
   10.2520   13.4650    3.8140 N   0  0  0  0  0  0  0  0  0  0  0  0
   10.2690   14.3470    4.2500 H   0  0  0  0  0  0  0  0  0  0  0  0
    9.3950   13.0050    3.6660 H   0  0  0  0  0  0  0  0  0  0  0  0
   12.4620   13.4540    3.6010 O   0  0  0  0  0  0  0  0  0  0  0  0
  2  1  1  6  0  0  0
  2 15  1  0  0  0  0
  2  3  1  0  0  0  0
  3  4  1  0  0  0  0
  4  5  2  0  0  0  0
  4 13  1  0  0  0  0
  5  8  1  0  0  0  0
  6  7  2  0  0  0  0
  6  5  1  0  0  0  0
  8  9  2  0  0  0  0
  8 24  1  0  0  0  0
  9 10  1  0  0  0  0
 10 22  1  1  0  0  0
 11 10  1  0  0  0  0
 11 18  1  1  0  0  0
 12 11  1  0  0  0  0
 13 12  1  0  0  0  0
 13  9  1  0  0  0  0
 14  3  2  0  0  0  0
 15  6  1  0  0  0  0
 16 15  2  0  0  0  0
 17 16  1  0  0  0  0
 18 19  1  0  0  0  0
 18 21  1  0  0  0  0
 20 18  1  0  0  0  0
 22 23  1  0  0  0  0
 24 25  1  0  0  0  0
 25 26  1  0  0  0  0
 26 30  2  0  0  0  0
 26 27  1  0  0  0  0
 27 28  1  0  0  0  0
 29 27  1  0  0  0  0
M  END
>  <MODEL>
1

>  <REMARK>
 VINA RESULT:      -7.2      0.000      0.000
  Name = ZINC05114539
                            x       y       z     vdW  Elec       q    Type
                         _______ _______ _______ _____ _____    ______ ____

>  <TORSDO>
F 5

>  <vina_score>
-7.2

$$$$
ZINC05192440
 OpenBabel01081722403D

 28 29  0  0  1  0  0  0  0  0999 V2000
   10.2810   14.6560   -1.9180 C   0  0  0  0  0  0  0  0  0  0  0  0
   11.3540   13.5850   -1.7170 C   0  0  0  0  0  0  0  0  0  0  0  0
   10.9670   12.6900   -0.5370 C   0  0  0  0  0  0  0  0  0  0  0  0
   11.6980   12.8950    3.4950 C   0  0  0  0  0  0  0  0  0  0  0  0
   10.6460   13.9290    3.0390 C   0  0  1  0  0  0  0  0  0  0  0  0
   10.5870   14.1190    1.5210 C   0  0  2  0  0  0  0  0  0  0  0  0
    9.2190   13.7150    1.1620 N   0  0  0  0  0  0  0  0  0  0  0  0
    8.8430   13.7150    0.2520 H   0  0  0  0  0  0  0  0  0  0  0  0
    8.5680   13.3450    2.2730 C   0  0  0  0  0  0  0  0  0  0  0  0
    7.4130   12.9640    2.2690 O   0  0  0  0  0  0  0  0  0  0  0  0
   11.5930   13.2400    0.7460 C   0  0  1  0  0  0  0  0  0  0  0  0
    9.3040   13.4350    3.3890 N   0  0  0  0  0  0  0  0  0  0  0  0
    8.9980   13.2080    4.2970 H   0  0  0  0  0  0  0  0  0  0  0  0
   11.9070   11.8870    1.9630 S   0  0  0  0  0  0  0  0  0  0  0  0
    9.3190   14.2120   -3.0230 C   0  0  0  0  0  0  0  0  0  0  0  0
    8.0670   13.6460   -2.4030 C   0  0  0  0  0  0  0  0  0  0  0  0
    7.9170   12.3120   -2.2840 N   0  0  0  0  0  0  0  0  0  0  0  0
    8.6250   11.7070   -2.6030 H   0  0  0  0  0  0  0  0  0  0  0  0
    7.1950   14.3920   -2.0110 O   0  0  0  0  0  0  0  0  0  0  0  0
    6.7540   11.7870   -1.7090 N   0  0  0  0  0  0  0  0  0  0  0  0
    5.8790   11.9480   -2.1310 H   0  0  0  0  0  0  0  0  0  0  0  0
    6.8310   11.0600   -0.5760 C   0  0  0  0  0  0  0  0  0  0  0  0
    7.9080   10.8620   -0.0560 O   0  0  0  0  0  0  0  0  0  0  0  0
    5.5790   10.4940    0.0430 C   0  0  0  0  0  0  0  0  0  0  0  0
    5.5200   10.8660    1.4220 O   0  0  0  0  0  0  0  0  0  0  0  0
    6.4870   10.1680    2.2680 N   0  0  0  0  0  0  0  0  0  0  0  0
    7.2480    9.8090    1.6900 H   0  0  0  0  0  0  0  0  0  0  0  0
    6.8630   10.8160    2.9590 H   0  0  0  0  0  0  0  0  0  0  0  0
  1  2  1  0  0  0  0
  2  3  1  0  0  0  0
  5 12  1  6  0  0  0
  5  4  1  0  0  0  0
  6  7  1  6  0  0  0
  6  5  1  0  0  0  0
  7  9  1  0  0  0  0
  8  7  1  0  0  0  0
  9 12  1  0  0  0  0
 10  9  2  0  0  0  0
 11  3  1  6  0  0  0
 11  6  1  0  0  0  0
 11 14  1  0  0  0  0
 12 13  1  0  0  0  0
 14  4  1  0  0  0  0
 15 16  1  0  0  0  0
 15  1  1  0  0  0  0
 16 17  1  0  0  0  0
 16 19  2  0  0  0  0
 17 20  1  0  0  0  0
 18 17  1  0  0  0  0
 20 22  1  0  0  0  0
 21 20  1  0  0  0  0
 22 23  2  0  0  0  0
 22 24  1  0  0  0  0
 24 25  1  0  0  0  0
 25 26  1  0  0  0  0
 26 28  1  0  0  0  0
 27 26  1  0  0  0  0
M  END
>  <MODEL>
1

>  <REMARK>
 VINA RESULT:      -7.2      0.000      0.000
  Name = ZINC05192440
                            x       y       z     vdW  Elec       q    Type
                         _______ _______ _______ _____ _____    ______ ____

>  <TORSDO>
F 9

>  <vina_score>
-7.2

$$$$
ZINC01646936
 OpenBabel01081722533D

 26 27  0  0  1  0  0  0  0  0999 V2000
    7.6580   12.0150   -0.5710 C   0  0  0  0  0  0  0  0  0  0  0  0
    7.3780   12.7080   -1.6430 N   0  0  0  0  0  0  0  0  0  0  0  0
    8.2550   13.7100   -1.7770 C   0  0  0  0  0  0  0  0  0  0  0  0
    9.1340   13.6380   -0.7070 C   0  0  0  0  0  0  0  0  0  0  0  0
    8.7280   12.5460    0.0460 N   0  0  0  0  0  0  0  0  0  0  0  0
    9.3500   12.0620    1.2810 C   0  0  2  0  0  0  0  0  0  0  0  0
    8.5400   12.5490    2.4860 C   0  0  1  0  0  0  0  0  0  0  0  0
    9.2300   12.0890    3.7740 C   0  0  1  0  0  0  0  0  0  0  0  0
   10.6670   12.6210    3.7870 C   0  0  1  0  0  0  0  0  0  0  0  0
   11.3950   12.1330    2.5310 C   0  0  0  0  0  0  0  0  0  0  0  0
   10.6840   12.5670    1.3700 O   0  0  0  0  0  0  0  0  0  0  0  0
    8.4640   13.9750    2.4660 O   0  0  0  0  0  0  0  0  0  0  0  0
    7.5630   14.2530    2.6940 H   0  0  0  0  0  0  0  0  0  0  0  0
    8.5210   12.6010    4.9040 O   0  0  0  0  0  0  0  0  0  0  0  0
    8.2220   13.5040    4.7160 H   0  0  0  0  0  0  0  0  0  0  0  0
   10.6470   14.0500    3.8020 O   0  0  0  0  0  0  0  0  0  0  0  0
   10.9550   14.3690    4.6640 H   0  0  0  0  0  0  0  0  0  0  0  0
   10.2570   14.5300   -0.4300 C   0  0  0  0  0  0  0  0  0  0  0  0
   10.2580   15.2850    0.6860 N   0  0  0  0  0  0  0  0  0  0  0  0
   11.0150   15.8870    0.8730 H   0  0  0  0  0  0  0  0  0  0  0  0
    9.5020   15.2360    1.3150 H   0  0  0  0  0  0  0  0  0  0  0  0
   11.1920   14.5910   -1.2080 O   0  0  0  0  0  0  0  0  0  0  0  0
    8.2760   14.6560   -2.7990 N   0  0  0  0  0  0  0  0  0  0  0  0
    7.8410   15.5300   -2.6700 H   0  0  0  0  0  0  0  0  0  0  0  0
    8.8910   14.3740   -3.9650 C   0  0  0  0  0  0  0  0  0  0  0  0
    9.4220   13.2960   -4.1250 O   0  0  0  0  0  0  0  0  0  0  0  0
  1  5  1  0  0  0  0
  2  1  2  0  0  0  0
  3  2  1  0  0  0  0
  3  4  2  0  0  0  0
  4 18  1  0  0  0  0
  4  5  1  0  0  0  0
  6  5  1  6  0  0  0
  6 11  1  0  0  0  0
  6  7  1  0  0  0  0
  7 12  1  1  0  0  0
  7  8  1  0  0  0  0
  8  9  1  0  0  0  0
  8 14  1  1  0  0  0
  9 16  1  6  0  0  0
 10  9  1  0  0  0  0
 11 10  1  0  0  0  0
 12 13  1  0  0  0  0
 15 14  1  0  0  0  0
 16 17  1  0  0  0  0
 18 19  1  0  0  0  0
 19 20  1  0  0  0  0
 19 21  1  0  0  0  0
 22 18  2  0  0  0  0
 23 24  1  0  0  0  0
 23  3  1  0  0  0  0
 25 23  1  0  0  0  0
 26 25  2  0  0  0  0
M  END
>  <MODEL>
1

>  <REMARK>
 VINA RESULT:      -7.1      0.000      0.000
  Name = ZINC01646936
                            x       y       z     vdW  Elec       q    Type
                         _______ _______ _______ _____ _____    ______ ____

>  <TORSDO>
F 6

>  <vina_score>
-7.1

$$$$
ZINC29823259
 OpenBabel01081722563D

 27 28  0  0  0  0  0  0  0  0999 V2000
   11.0200   12.0390    1.8840 N   0  0  0  0  0  0  0  0  0  0  0  0
   10.3820   11.4820    0.6830 C   0  0  0  0  0  0  0  0  0  0  0  0
   11.1780   11.9030   -0.5550 C   0  0  0  0  0  0  0  0  0  0  0  0
   11.2330   13.3690   -0.6240 N   0  0  0  0  0  0  0  0  0  0  0  0
   10.2760   13.7200   -0.6620 H   0  0  0  0  0  0  0  0  0  0  0  0
   11.8710   13.9260    0.5780 C   0  0  0  0  0  0  0  0  0  0  0  0
   11.0750   13.5050    1.8160 C   0  0  0  0  0  0  0  0  0  0  0  0
   12.1830   10.1540    4.0160 C   0  0  0  0  0  0  0  0  0  0  0  0
   10.8570   10.7770    4.0030 N   0  0  0  0  0  0  0  0  0  0  0  0
    9.8860   10.6340    4.9470 C   0  0  0  0  0  0  0  0  0  0  0  0
    8.8470   11.3350    4.5880 N   0  0  0  0  0  0  0  0  0  0  0  0
    9.1050   11.9490    3.4220 C   0  0  0  0  0  0  0  0  0  0  0  0
   10.3610   11.6160    3.0400 C   0  0  0  0  0  0  0  0  0  0  0  0
    8.1790   12.8380    2.6830 N   0  0  0  0  0  0  0  0  0  0  0  0
    7.4480   12.3770    1.8250 O   0  0  0  0  0  0  0  0  0  0  0  0
    8.1480   14.0290    2.9340 O   0  0  0  0  0  0  0  0  0  0  0  0
   11.9250   13.8140   -1.8410 C   0  0  0  0  0  0  0  0  0  0  0  0
   11.0200   13.5860   -3.0540 C   0  0  0  0  0  0  0  0  0  0  0  0
    9.5810   13.7730   -2.6490 C   0  0  0  0  0  0  0  0  0  0  0  0
    8.7990   12.6980   -2.4270 N   0  0  0  0  0  0  0  0  0  0  0  0
    9.1680   11.7910   -2.5280 H   0  0  0  0  0  0  0  0  0  0  0  0
    7.5120   12.8640   -2.0640 C   0  0  0  0  0  0  0  0  0  0  0  0
    6.7300   11.7890   -1.8420 N   0  0  0  0  0  0  0  0  0  0  0  0
    5.7890   11.9110   -1.5780 H   0  0  0  0  0  0  0  0  0  0  0  0
    7.0980   10.8820   -1.9430 H   0  0  0  0  0  0  0  0  0  0  0  0
    7.0550   13.9840   -1.9390 O   0  0  0  0  0  0  0  0  0  0  0  0
    9.1260   14.8890   -2.5240 O   0  0  0  0  0  0  0  0  0  0  0  0
  1 13  1  0  0  0  0
  2  1  1  0  0  0  0
  3  2  1  0  0  0  0
  4  3  1  0  0  0  0
  4  6  1  0  0  0  0
  5  4  1  0  0  0  0
  6  7  1  0  0  0  0
  7  1  1  0  0  0  0
  9  8  1  0  0  0  0
  9 10  1  0  0  0  0
 11 10  2  0  0  0  0
 12 11  1  0  0  0  0
 13 12  2  0  0  0  0
 13  9  1  0  0  0  0
 14 16  2  0  0  0  0
 14 12  1  0  0  0  0
 15 14  2  0  0  0  0
 17  4  1  0  0  0  0
 18 19  1  0  0  0  0
 18 17  1  0  0  0  0
 19 27  2  0  0  0  0
 19 20  1  0  0  0  0
 20 22  1  0  0  0  0
 21 20  1  0  0  0  0
 22 26  2  0  0  0  0
 22 23  1  0  0  0  0
 23 24  1  0  0  0  0
 25 23  1  0  0  0  0
M  END
>  <MODEL>
1

>  <REMARK>
 VINA RESULT:      -7.1      0.000      0.000
  Name = ZINC29823259
                            x       y       z     vdW  Elec       q    Type
                         _______ _______ _______ _____ _____    ______ ____

>  <TORSDO>
F 5

>  <vina_score>
-7.1

$$$$
ZINC31259784
 OpenBabel01081722503D

 26 28  0  0  1  0  0  0  0  0999 V2000
    8.2890   12.5990    1.1200 C   0  0  0  0  0  0  0  0  0  0  0  0
    9.5300   11.8550    1.5400 C   0  0  0  0  0  0  0  0  0  0  0  0
   10.5560   12.3420    2.2820 C   0  0  0  0  0  0  0  0  0  0  0  0
   11.5300   11.2330    2.4250 C   0  0  0  0  0  0  0  0  0  0  0  0
   11.0220   10.1540    1.7480 N   0  0  0  0  0  0  0  0  0  0  0  0
   12.6200   11.4590    3.1120 N   0  0  0  0  0  0  0  0  0  0  0  0
   12.8600   12.6630    3.6840 C   0  0  0  0  0  0  0  0  0  0  0  0
   12.0520   13.6940    3.6110 N   0  0  0  0  0  0  0  0  0  0  0  0
   10.8810   13.6240    2.9340 C   0  0  0  0  0  0  0  0  0  0  0  0
   10.1300   14.5790    2.8660 O   0  0  0  0  0  0  0  0  0  0  0  0
    9.8730   10.4520    1.2180 C   0  0  0  0  0  0  0  0  0  0  0  0
   14.0260   12.8150    4.3870 N   0  0  0  0  0  0  0  0  0  0  0  0
   14.0060   12.8660    5.3690 H   0  0  0  0  0  0  0  0  0  0  0  0
   14.8840   12.8740    3.9090 H   0  0  0  0  0  0  0  0  0  0  0  0
    8.6340   13.5820    0.0850 N   0  0  0  0  0  0  0  0  0  0  0  0
    9.4490   14.1100    0.3950 H   0  0  0  0  0  0  0  0  0  0  0  0
    7.8400   14.2050   -0.0620 H   0  0  0  0  0  0  0  0  0  0  0  0
   10.4210   13.1230   -1.5230 C   0  0  0  0  0  0  0  0  0  0  0  0
   10.5710   13.4420   -2.7800 C   0  0  0  0  0  0  0  0  0  0  0  0
    9.2380   13.5020   -3.4880 C   0  0  2  0  0  0  0  0  0  0  0  0
    8.1920   13.5740   -2.3520 C   0  0  1  0  0  0  0  0  0  0  0  0
    8.9630   12.9170   -1.1840 C   0  0  2  0  0  0  0  0  0  0  0  0
    9.0380   12.3260   -4.2750 O   0  0  0  0  0  0  0  0  0  0  0  0
    8.6250   12.5680   -5.1190 H   0  0  0  0  0  0  0  0  0  0  0  0
    7.8570   14.9300   -2.0480 O   0  0  0  0  0  0  0  0  0  0  0  0
    8.6500   15.4840   -2.1260 H   0  0  0  0  0  0  0  0  0  0  0  0
  1  2  1  0  0  0  0
  2  3  1  0  0  0  0
  3  4  2  0  0  0  0
  3  9  1  0  0  0  0
  4  6  1  0  0  0  0
  5  4  1  0  0  0  0
  6  7  1  0  0  0  0
  7 12  1  0  0  0  0
  8  7  2  0  0  0  0
  9  8  1  0  0  0  0
 10  9  2  0  0  0  0
 11  2  2  0  0  0  0
 11  5  1  0  0  0  0
 12 13  1  0  0  0  0
 14 12  1  0  0  0  0
 15 16  1  0  0  0  0
 15  1  1  0  0  0  0
 17 15  1  0  0  0  0
 18 22  1  0  0  0  0
 19 18  1  0  0  0  0
 20 23  1  1  0  0  0
 20 19  1  0  0  0  0
 20 21  1  0  0  0  0
 21 25  1  1  0  0  0
 21 22  1  0  0  0  0
 22 15  1  1  0  0  0
 24 23  1  0  0  0  0
 26 25  1  0  0  0  0
M  END
>  <MODEL>
1

>  <REMARK>
 VINA RESULT:      -7.0      0.000      0.000
  Name = ZINC31259784
                            x       y       z     vdW  Elec       q    Type
                         _______ _______ _______ _____ _____    ______ ____

>  <TORSDO>
F 6

>  <vina_score>
-7.0

$$$$
ZINC06315906
 OpenBabel01081722513D

 28 30  0  0  0  0  0  0  0  0999 V2000
   11.2780   13.3710    1.8360 C   0  0  0  0  0  0  0  0  0  0  0  0
   11.3810   13.5110    0.4540 C   0  0  0  0  0  0  0  0  0  0  0  0
   10.2650   14.0780   -0.0750 N   0  0  0  0  0  0  0  0  0  0  0  0
    9.3290   14.3530    1.0240 C   0  0  0  0  0  0  0  0  0  0  0  0
   10.0350   13.8650    2.2710 C   0  0  0  0  0  0  0  0  0  0  0  0
    9.6160   13.8970    3.4120 O   0  0  0  0  0  0  0  0  0  0  0  0
   15.2930   10.4590    5.2170 C   0  0  0  0  0  0  0  0  0  0  0  0
   15.6780   11.7480    5.5540 C   0  0  0  0  0  0  0  0  0  0  0  0
   15.0300   12.8350    5.0120 C   0  0  0  0  0  0  0  0  0  0  0  0
   13.9750   12.6380    4.1160 C   0  0  0  0  0  0  0  0  0  0  0  0
   13.5890   11.3290    3.7790 C   0  0  0  0  0  0  0  0  0  0  0  0
   12.5330   11.4530    2.8920 N   0  0  0  0  0  0  0  0  0  0  0  0
   12.0340   10.7160    2.4720 H   0  0  0  0  0  0  0  0  0  0  0  0
   12.3130   12.7930    2.7090 C   0  0  0  0  0  0  0  0  0  0  0  0
   13.1620   13.4850    3.4340 N   0  0  0  0  0  0  0  0  0  0  0  0
   14.2540   10.2470    4.3350 C   0  0  0  0  0  0  0  0  0  0  0  0
   10.0480   14.3580   -1.4310 N   0  0  0  0  0  0  0  0  0  0  0  0
   10.3790   15.2000   -1.8180 H   0  0  0  0  0  0  0  0  0  0  0  0
    9.3860   13.4740   -2.2040 C   0  0  0  0  0  0  0  0  0  0  0  0
    8.9780   12.4360   -1.7250 O   0  0  0  0  0  0  0  0  0  0  0  0
    9.1550   13.7720   -3.6500 C   0  0  0  0  0  0  0  0  0  0  0  0
    8.8950   15.0340   -4.0450 N   0  0  0  0  0  0  0  0  0  0  0  0
    8.7430   15.2300   -4.9970 H   0  0  0  0  0  0  0  0  0  0  0  0
    8.8570   15.7600   -3.3800 H   0  0  0  0  0  0  0  0  0  0  0  0
    9.2030   12.8780   -4.4680 O   0  0  0  0  0  0  0  0  0  0  0  0
   12.4650   13.1260   -0.2760 N   0  0  0  0  0  0  0  0  0  0  0  0
   12.9390   12.2930   -0.0530 H   0  0  0  0  0  0  0  0  0  0  0  0
   12.7750   13.6830   -1.0270 H   0  0  0  0  0  0  0  0  0  0  0  0
  1  5  1  0  0  0  0
  1 14  1  0  0  0  0
  2  1  2  0  0  0  0
  3  2  1  0  0  0  0
  3  4  1  0  0  0  0
  4  5  1  0  0  0  0
  5  6  2  0  0  0  0
  7  8  1  0  0  0  0
  9  8  2  0  0  0  0
 10  9  1  0  0  0  0
 11 10  2  0  0  0  0
 11 16  1  0  0  0  0
 12 11  1  0  0  0  0
 13 12  1  0  0  0  0
 14 12  1  0  0  0  0
 14 15  2  0  0  0  0
 15 10  1  0  0  0  0
 16  7  2  0  0  0  0
 17  3  1  0  0  0  0
 18 17  1  0  0  0  0
 19 20  2  0  0  0  0
 19 17  1  0  0  0  0
 21 19  1  0  0  0  0
 22 21  1  0  0  0  0
 22 24  1  0  0  0  0
 23 22  1  0  0  0  0
 25 21  2  0  0  0  0
 26 27  1  0  0  0  0
 26  2  1  0  0  0  0
 28 26  1  0  0  0  0
M  END
>  <MODEL>
1

>  <REMARK>
 VINA RESULT:      -7.0      0.000      0.000
  Name = ZINC06315906
                            x       y       z     vdW  Elec       q    Type
                         _______ _______ _______ _____ _____    ______ ____

>  <TORSDO>
F 4

>  <vina_score>
-7.0

$$$$
ZINC22047827
 OpenBabel01081722313D

 29 30  0  0  1  0  0  0  0  0999 V2000
    9.8820   11.4180    1.4180 N   0  0  0  0  0  0  0  0  0  0  0  0
    9.1010   11.1410    2.3930 C   0  0  0  0  0  0  0  0  0  0  0  0
    9.4610   11.2040    0.0990 N   0  0  0  0  0  0  0  0  0  0  0  0
    9.4370   10.2910   -0.2680 H   0  0  0  0  0  0  0  0  0  0  0  0
   11.7950   15.1510   -2.0470 C   0  0  0  0  0  0  0  0  0  0  0  0
   12.2480   14.0950   -1.2590 C   0  0  0  0  0  0  0  0  0  0  0  0
   11.3870   13.1440   -0.7950 C   0  0  0  0  0  0  0  0  0  0  0  0
   10.0300   13.2260   -1.1260 C   0  0  0  0  0  0  0  0  0  0  0  0
    9.5680   14.3010   -1.9280 C   0  0  0  0  0  0  0  0  0  0  0  0
    8.1960   14.3490   -2.2330 C   0  0  0  0  0  0  0  0  0  0  0  0
    7.4050   13.4090   -1.7680 N   0  0  0  0  0  0  0  0  0  0  0  0
    7.8140   12.4350   -1.0440 N   0  0  0  0  0  0  0  0  0  0  0  0
    9.0770   12.2770   -0.6880 C   0  0  0  0  0  0  0  0  0  0  0  0
   10.4790   15.2640   -2.3830 C   0  0  0  0  0  0  0  0  0  0  0  0
    9.5050   11.4820    3.8040 C   0  0  2  0  0  0  0  0  0  0  0  0
    8.4120   11.2250    4.6880 O   0  0  0  0  0  0  0  0  0  0  0  0
    7.9330   10.4360    4.3890 H   0  0  0  0  0  0  0  0  0  0  0  0
    9.8860   12.9620    3.8820 C   0  0  1  0  0  0  0  0  0  0  0  0
   11.2560   13.1210    3.5050 O   0  0  0  0  0  0  0  0  0  0  0  0
   11.5190   12.3890    2.9250 H   0  0  0  0  0  0  0  0  0  0  0  0
    8.9990   13.7690    2.9330 C   0  0  1  0  0  0  0  0  0  0  0  0
    7.7370   14.0140    3.5550 O   0  0  0  0  0  0  0  0  0  0  0  0
    7.6730   14.9500    3.8000 H   0  0  0  0  0  0  0  0  0  0  0  0
    9.6770   15.1030    2.6120 C   0  0  0  0  0  0  0  0  0  0  0  0
    9.3540   15.4910    1.2750 O   0  0  0  0  0  0  0  0  0  0  0  0
    8.7480   16.2480    1.2960 H   0  0  0  0  0  0  0  0  0  0  0  0
    7.7750   10.4730    2.1300 C   0  0  0  0  0  0  0  0  0  0  0  0
    6.7980   11.4650    1.8060 O   0  0  0  0  0  0  0  0  0  0  0  0
    6.7620   11.5820    0.8440 H   0  0  0  0  0  0  0  0  0  0  0  0
  1  2  2  0  0  0  0
  3  1  1  0  0  0  0
  4  3  1  0  0  0  0
  5  6  1  0  0  0  0
  6  7  2  0  0  0  0
  8  7  1  0  0  0  0
  8 13  2  0  0  0  0
  9  8  1  0  0  0  0
 10  9  2  0  0  0  0
 10 11  1  0  0  0  0
 11 12  2  0  0  0  0
 12 13  1  0  0  0  0
 13  3  1  0  0  0  0
 14  5  2  0  0  0  0
 14  9  1  0  0  0  0
 15  2  1  6  0  0  0
 15 18  1  0  0  0  0
 15 16  1  0  0  0  0
 17 16  1  0  0  0  0
 18 19  1  6  0  0  0
 20 19  1  0  0  0  0
 21 24  1  1  0  0  0
 21 22  1  0  0  0  0
 21 18  1  0  0  0  0
 22 23  1  0  0  0  0
 25 26  1  0  0  0  0
 25 24  1  0  0  0  0
 27  2  1  0  0  0  0
 28 27  1  0  0  0  0
 29 28  1  0  0  0  0
M  END
>  <MODEL>
1

>  <REMARK>
 VINA RESULT:      -7.0      0.000      0.000
  Name = ZINC22047827
                            x       y       z     vdW  Elec       q    Type
                         _______ _______ _______ _____ _____    ______ ____

>  <TORSDO>
F 12

>  <vina_score>
-7.0

$$$$
ZINC29829551
 OpenBabel01081722423D

 26 28  0  0  0  0  0  0  0  0999 V2000
    8.6160   12.6590    1.2770 C   0  0  0  0  0  0  0  0  0  0  0  0
    8.8040   12.1740    0.0330 N   0  0  0  0  0  0  0  0  0  0  0  0
    9.7170   12.0800   -0.3250 H   0  0  0  0  0  0  0  0  0  0  0  0
    7.4880   12.7760    1.7190 O   0  0  0  0  0  0  0  0  0  0  0  0
    9.0740   15.4440    2.6100 C   0  0  0  0  0  0  0  0  0  0  0  0
    9.9950   14.2540    2.6900 C   0  0  0  0  0  0  0  0  0  0  0  0
    9.7730   13.0480    2.1000 C   0  0  0  0  0  0  0  0  0  0  0  0
   10.9330   12.2140    2.4560 C   0  0  0  0  0  0  0  0  0  0  0  0
   11.3310   10.8880    2.1810 C   0  0  0  0  0  0  0  0  0  0  0  0
   12.5040   10.4560    2.6980 N   0  0  0  0  0  0  0  0  0  0  0  0
   12.8090    9.5370    2.5250 H   0  0  0  0  0  0  0  0  0  0  0  0
   13.2590   11.2890    3.4570 C   0  0  0  0  0  0  0  0  0  0  0  0
   12.9010   12.5150    3.7160 N   0  0  0  0  0  0  0  0  0  0  0  0
   10.6380   10.1540    1.4960 O   0  0  0  0  0  0  0  0  0  0  0  0
   11.7530   13.0220    3.2420 C   0  0  0  0  0  0  0  0  0  0  0  0
   11.1580   14.2210    3.3540 O   0  0  0  0  0  0  0  0  0  0  0  0
    7.6530   11.7880   -0.7850 C   0  0  0  0  0  0  0  0  0  0  0  0
    7.4220   12.8420   -1.8700 C   0  0  0  0  0  0  0  0  0  0  0  0
    8.6180   12.9480   -2.7100 N   0  0  0  0  0  0  0  0  0  0  0  0
    8.6510   12.4880   -3.5800 H   0  0  0  0  0  0  0  0  0  0  0  0
    9.7050   13.6990   -2.2800 C   0  0  0  0  0  0  0  0  0  0  0  0
   10.9940   13.3580   -2.6860 C   0  0  0  0  0  0  0  0  0  0  0  0
   12.0240   14.0740   -2.2750 N   0  0  0  0  0  0  0  0  0  0  0  0
   11.8330   15.1130   -1.4790 C   0  0  0  0  0  0  0  0  0  0  0  0
   10.5570   15.4540   -1.0750 C   0  0  0  0  0  0  0  0  0  0  0  0
    9.5190   14.7450   -1.4860 N   0  0  0  0  0  0  0  0  0  0  0  0
  1  4  2  0  0  0  0
  1  7  1  0  0  0  0
  2  1  1  0  0  0  0
  3  2  1  0  0  0  0
  5  6  1  0  0  0  0
  6 16  1  0  0  0  0
  7  8  1  0  0  0  0
  7  6  2  0  0  0  0
  8 15  2  0  0  0  0
  9  8  1  0  0  0  0
  9 10  1  0  0  0  0
 10 12  1  0  0  0  0
 11 10  1  0  0  0  0
 12 13  2  0  0  0  0
 14  9  2  0  0  0  0
 15 16  1  0  0  0  0
 15 13  1  0  0  0  0
 17  2  1  0  0  0  0
 18 17  1  0  0  0  0
 19 21  1  0  0  0  0
 19 18  1  0  0  0  0
 20 19  1  0  0  0  0
 21 26  1  0  0  0  0
 22 21  2  0  0  0  0
 22 23  1  0  0  0  0
 23 24  2  0  0  0  0
 24 25  1  0  0  0  0
 26 25  2  0  0  0  0
M  END
>  <MODEL>
1

>  <REMARK>
 VINA RESULT:      -6.9      0.000      0.000
  Name = ZINC29829551
                            x       y       z     vdW  Elec       q    Type
                         _______ _______ _______ _____ _____    ______ ____

>  <TORSDO>
F 5

>  <vina_score>
-6.9

$$$$
ZINC20188385
 OpenBabel01081722443D

 26 27  0  0  0  0  0  0  0  0999 V2000
    9.3430   14.7870    2.3570 S   0  0  0  0  0  0  0  0  0  0  0  0
    8.1470   14.0670    2.6240 O   0  0  0  0  0  0  0  0  0  0  0  0
    9.4110   16.2050    2.4290 O   0  0  0  0  0  0  0  0  0  0  0  0
   10.6360   13.6400   -1.8270 C   0  0  0  0  0  0  0  0  0  0  0  0
   11.0080   14.8620   -1.2980 C   0  0  0  0  0  0  0  0  0  0  0  0
   10.6090   15.2150   -0.0230 C   0  0  0  0  0  0  0  0  0  0  0  0
    9.8470   14.3410    0.7290 C   0  0  0  0  0  0  0  0  0  0  0  0
    9.4790   13.1160    0.2030 C   0  0  0  0  0  0  0  0  0  0  0  0
    9.8740   12.7650   -1.0740 C   0  0  0  0  0  0  0  0  0  0  0  0
   11.0660   13.2580   -3.2190 C   0  0  0  0  0  0  0  0  0  0  0  0
    8.9820   14.1980   -4.0170 C   0  0  0  0  0  0  0  0  0  0  0  0
    9.8780   13.0350   -4.0540 N   0  0  0  0  0  0  0  0  0  0  0  0
    9.3740   12.2240   -3.6930 H   0  0  0  0  0  0  0  0  0  0  0  0
   10.1730   12.8720   -5.0170 H   0  0  0  0  0  0  0  0  0  0  0  0
   10.4890   14.2050    3.4020 N   0  0  0  0  0  0  0  0  0  0  0  0
   10.5090   12.8550    3.7270 C   0  0  0  0  0  0  0  0  0  0  0  0
    9.4660   12.2960    4.4560 C   0  0  0  0  0  0  0  0  0  0  0  0
    9.4860   10.9540    4.7720 C   0  0  0  0  0  0  0  0  0  0  0  0
   10.5480   10.1540    4.3760 C   0  0  0  0  0  0  0  0  0  0  0  0
   11.5930   10.6920    3.6580 C   0  0  0  0  0  0  0  0  0  0  0  0
   11.5850   12.0490    3.3250 C   0  0  0  0  0  0  0  0  0  0  0  0
   12.7010   12.6300    2.5560 C   0  0  0  0  0  0  0  0  0  0  0  0
   13.6730   13.3140    3.1900 N   0  0  0  0  0  0  0  0  0  0  0  0
   14.4180   13.7030    2.6770 H   0  0  0  0  0  0  0  0  0  0  0  0
   13.6380   13.4260    4.1680 H   0  0  0  0  0  0  0  0  0  0  0  0
   12.7440   12.4920    1.3480 O   0  0  0  0  0  0  0  0  0  0  0  0
  1  3  2  0  0  0  0
  1  2  2  0  0  0  0
  1 15  1  0  0  0  0
  4  5  2  0  0  0  0
  4  9  1  0  0  0  0
  5  6  1  0  0  0  0
  6  7  2  0  0  0  0
  7  1  1  0  0  0  0
  8  7  1  0  0  0  0
  9  8  2  0  0  0  0
 10  4  1  0  0  0  0
 12 11  1  0  0  0  0
 12 13  1  0  0  0  0
 12 10  1  0  0  0  0
 14 12  1  0  0  0  0
 15 16  1  0  0  0  0
 16 17  2  0  0  0  0
 17 18  1  0  0  0  0
 19 18  2  0  0  0  0
 20 19  1  0  0  0  0
 21 20  2  0  0  0  0
 21 16  1  0  0  0  0
 22 23  1  0  0  0  0
 22 21  1  0  0  0  0
 23 25  1  0  0  0  0
 24 23  1  0  0  0  0
 26 22  2  0  0  0  0
M  END
>  <MODEL>
1

>  <REMARK>
 VINA RESULT:      -6.9      0.000      0.000
  Name = ZINC20188385
                            x       y       z     vdW  Elec       q    Type
                         _______ _______ _______ _____ _____    ______ ____

>  <TORSDO>
F 6

>  <vina_score>
-6.9

$$$$
ZINC17107909
 OpenBabel01081722473D

 23 25  0  0  1  0  0  0  0  0999 V2000
   11.2400   11.9420    2.2460 C   0  0  1  0  0  0  0  0  0  0  0  0
    9.8370   11.5210    2.7880 C   0  0  2  0  0  0  0  0  0  0  0  0
    8.8830   11.8080    1.7210 O   0  0  0  0  0  0  0  0  0  0  0  0
    9.6520   11.6140    0.5240 C   0  0  1  0  0  0  0  0  0  0  0  0
    9.3270   12.3530   -0.6820 N   0  0  1  0  0  0  0  0  0  0  0  0
    8.0660   12.7250   -1.3080 C   0  0  0  0  0  0  0  0  0  0  0  0
    8.3130   12.8750   -2.7500 N   0  0  0  0  0  0  0  0  0  0  0  0
    7.5490   12.8320   -3.3710 H   0  0  0  0  0  0  0  0  0  0  0  0
    9.5050   13.0620   -3.2360 C   0  0  0  0  0  0  0  0  0  0  0  0
   10.6340   13.0660   -2.4950 N   0  0  0  0  0  0  0  0  0  0  0  0
   10.5570   12.7110   -1.2300 C   0  0  2  0  0  0  0  0  0  0  0  0
   11.5520   12.6270   -0.3050 O   0  0  0  0  0  0  0  0  0  0  0  0
   10.8830   12.5370    0.9270 C   0  0  2  0  0  0  0  0  0  0  0  0
    9.6250   13.2680   -4.5940 N   0  0  0  0  0  0  0  0  0  0  0  0
   10.5080   13.4520   -4.9890 H   0  0  0  0  0  0  0  0  0  0  0  0
    8.8270   13.2310   -5.1710 H   0  0  0  0  0  0  0  0  0  0  0  0
   11.8570   12.9300    3.1130 O   0  0  0  0  0  0  0  0  0  0  0  0
   13.5020   11.2220    3.8040 C   0  0  0  0  0  0  0  0  0  0  0  0
   13.0890   12.6530    3.5700 C   0  0  0  0  0  0  0  0  0  0  0  0
   13.8660   13.5510    3.7940 O   0  0  0  0  0  0  0  0  0  0  0  0
    9.4890   12.3350    4.0360 C   0  0  0  0  0  0  0  0  0  0  0  0
    8.8140   13.5340    3.6510 O   0  0  0  0  0  0  0  0  0  0  0  0
    8.7380   13.5660    2.6840 H   0  0  0  0  0  0  0  0  0  0  0  0
  1  2  1  0  0  0  0
  1 17  1  1  0  0  0
  2 21  1  1  0  0  0
  3  2  1  0  0  0  0
  4 13  1  0  0  0  0
  4  3  1  1  0  0  0
  5  6  1  1  0  0  0
  5  4  1  0  0  0  0
  7  6  1  0  0  0  0
  8  7  1  0  0  0  0
  9  7  1  0  0  0  0
  9 10  2  0  0  0  0
 11 10  1  6  0  0  0
 11  5  1  0  0  0  0
 11 12  1  0  0  0  0
 13 12  1  6  0  0  0
 13  1  1  0  0  0  0
 14  9  1  0  0  0  0
 15 14  1  0  0  0  0
 16 14  1  0  0  0  0
 17 19  1  0  0  0  0
 19 20  2  0  0  0  0
 19 18  1  0  0  0  0
 22 21  1  0  0  0  0
 23 22  1  0  0  0  0
M  END
>  <MODEL>
1

>  <REMARK>
 VINA RESULT:      -6.9      0.000      0.000
  Name = ZINC17107909
                            x       y       z     vdW  Elec       q    Type
                         _______ _______ _______ _____ _____    ______ ____

>  <TORSDO>
F 5

>  <vina_score>
-6.9

$$$$
ZINC17376865
 OpenBabel01081722483D

 28 30  0  0  1  0  0  0  0  0999 V2000
   12.3030   11.2430    3.1880 C   0  0  0  0  0  0  0  0  0  0  0  0
   11.9770   11.8850    1.9960 C   0  0  0  0  0  0  0  0  0  0  0  0
   10.7440   11.6050    1.4010 C   0  0  0  0  0  0  0  0  0  0  0  0
   10.6750   12.3640    0.2470 N   0  0  0  0  0  0  0  0  0  0  0  0
   11.8100   13.0780    0.1340 C   0  0  0  0  0  0  0  0  0  0  0  0
   12.0680   13.8480   -0.7730 O   0  0  0  0  0  0  0  0  0  0  0  0
    9.9270   10.7400    1.9910 N   0  0  0  0  0  0  0  0  0  0  0  0
   10.2720   10.1530    3.1200 C   0  0  0  0  0  0  0  0  0  0  0  0
   12.6220   12.8060    1.1750 N   0  0  0  0  0  0  0  0  0  0  0  0
   13.5140   13.1910    1.3290 H   0  0  0  0  0  0  0  0  0  0  0  0
   11.4250   10.3900    3.7120 N   0  0  0  0  0  0  0  0  0  0  0  0
   15.0900   12.9690    5.0250 C   0  0  0  0  0  0  0  0  0  0  0  0
   13.7740   12.7040    4.3410 C   0  0  0  0  0  0  0  0  0  0  0  0
   13.5190   11.4880    3.8180 N   0  0  0  0  0  0  0  0  0  0  0  0
   14.1940   10.7740    3.8820 H   0  0  0  0  0  0  0  0  0  0  0  0
   12.9430   13.5830    4.2630 O   0  0  0  0  0  0  0  0  0  0  0  0
    9.5530   12.3860   -0.6950 C   0  0  1  0  0  0  0  0  0  0  0  0
    8.6550   13.6160   -0.4340 C   0  0  2  0  0  0  0  0  0  0  0  0
    8.2190   14.0690   -1.8470 C   0  0  1  0  0  0  0  0  0  0  0  0
    8.9030   13.0560   -2.7930 C   0  0  2  0  0  0  0  0  0  0  0  0
   10.0350   12.5600   -2.0460 O   0  0  0  0  0  0  0  0  0  0  0  0
    9.3990   14.6500    0.2150 O   0  0  0  0  0  0  0  0  0  0  0  0
    9.5650   15.3710   -0.4120 H   0  0  0  0  0  0  0  0  0  0  0  0
    6.7980   13.9970   -1.9800 O   0  0  0  0  0  0  0  0  0  0  0  0
    6.5700   13.7240   -2.8820 H   0  0  0  0  0  0  0  0  0  0  0  0
    9.3730   13.7520   -4.0730 C   0  0  0  0  0  0  0  0  0  0  0  0
    8.9120   15.1040   -4.0750 O   0  0  0  0  0  0  0  0  0  0  0  0
    8.0180   15.1410   -4.4500 H   0  0  0  0  0  0  0  0  0  0  0  0
  1 11  1  0  0  0  0
  1 14  1  0  0  0  0
  2  1  2  0  0  0  0
  3  7  2  0  0  0  0
  3  2  1  0  0  0  0
  4  3  1  0  0  0  0
  5  4  1  0  0  0  0
  5  9  1  0  0  0  0
  6  5  2  0  0  0  0
  7  8  1  0  0  0  0
  8 11  2  0  0  0  0
  9 10  1  0  0  0  0
  9  2  1  0  0  0  0
 13 12  1  0  0  0  0
 14 15  1  0  0  0  0
 14 13  1  0  0  0  0
 16 13  2  0  0  0  0
 17 18  1  0  0  0  0
 17  4  1  1  0  0  0
 18 22  1  6  0  0  0
 19 24  1  1  0  0  0
 19 18  1  0  0  0  0
 20 26  1  6  0  0  0
 20 21  1  0  0  0  0
 20 19  1  0  0  0  0
 21 17  1  0  0  0  0
 23 22  1  0  0  0  0
 25 24  1  0  0  0  0
 27 26  1  0  0  0  0
 28 27  1  0  0  0  0
M  END
>  <MODEL>
1

>  <REMARK>
 VINA RESULT:      -6.9      0.000      0.000
  Name = ZINC17376865
                            x       y       z     vdW  Elec       q    Type
                         _______ _______ _______ _____ _____    ______ ____

>  <TORSDO>
F 6

>  <vina_score>
-6.9

$$$$
ZINC16321740
 OpenBabel01081722313D

 24 25  0  0  1  0  0  0  0  0999 V2000
    9.9080   10.8850    3.0340 C   0  0  1  0  0  0  0  0  0  0  0  0
    8.9780   12.0710    3.3550 C   0  0  2  0  0  0  0  0  0  0  0  0
    8.8220   12.8080    2.0020 C   0  0  1  0  0  0  0  0  0  0  0  0
    9.2050   11.7040    0.9840 C   0  0  2  0  0  0  0  0  0  0  0  0
   10.2720   10.9910    1.6470 O   0  0  0  0  0  0  0  0  0  0  0  0
    9.6800   12.2940   -0.2690 N   0  0  0  0  0  0  0  0  0  0  0  0
   10.9440   12.6730   -0.5300 C   0  0  0  0  0  0  0  0  0  0  0  0
   10.9720   13.1520   -1.7480 N   0  0  0  0  0  0  0  0  0  0  0  0
    9.7210   13.0670   -2.2380 C   0  0  0  0  0  0  0  0  0  0  0  0
    8.9590   12.5350   -1.3090 N   0  0  0  0  0  0  0  0  0  0  0  0
    9.2850   13.4940   -3.5840 C   0  0  0  0  0  0  0  0  0  0  0  0
    8.9680   14.7840   -3.8130 N   0  0  0  0  0  0  0  0  0  0  0  0
    8.6770   15.0690   -4.7090 H   0  0  0  0  0  0  0  0  0  0  0  0
    9.0270   15.4420   -3.0830 H   0  0  0  0  0  0  0  0  0  0  0  0
    9.2110   12.6820   -4.4860 O   0  0  0  0  0  0  0  0  0  0  0  0
    9.5780   12.9280    4.3280 O   0  0  0  0  0  0  0  0  0  0  0  0
    9.0990   13.7710    4.3560 H   0  0  0  0  0  0  0  0  0  0  0  0
    7.4720   13.2360    1.8060 O   0  0  0  0  0  0  0  0  0  0  0  0
    7.4630   14.0370    1.2610 H   0  0  0  0  0  0  0  0  0  0  0  0
   11.1620   10.9540    3.9070 C   0  0  0  0  0  0  0  0  0  0  0  0
   12.2730   11.4590    3.1200 O   0  0  0  0  0  0  0  0  0  0  0  0
   13.9930   12.8500    4.2170 C   0  0  0  0  0  0  0  0  0  0  0  0
   12.7230   12.6870    3.4200 C   0  0  0  0  0  0  0  0  0  0  0  0
   12.1130   13.6620    3.0500 O   0  0  0  0  0  0  0  0  0  0  0  0
  1  2  1  0  0  0  0
  1 20  1  1  0  0  0
  2 16  1  1  0  0  0
  3 18  1  6  0  0  0
  3  2  1  0  0  0  0
  4  6  1  6  0  0  0
  4  5  1  0  0  0  0
  4  3  1  0  0  0  0
  5  1  1  0  0  0  0
  7  6  1  0  0  0  0
  8  7  2  0  0  0  0
  9  8  1  0  0  0  0
  9 10  2  0  0  0  0
 10  6  1  0  0  0  0
 11  9  1  0  0  0  0
 12 11  1  0  0  0  0
 12 14  1  0  0  0  0
 13 12  1  0  0  0  0
 15 11  2  0  0  0  0
 16 17  1  0  0  0  0
 19 18  1  0  0  0  0
 21 23  1  0  0  0  0
 21 20  1  0  0  0  0
 23 22  1  0  0  0  0
 24 23  2  0  0  0  0
M  END
>  <MODEL>
1

>  <REMARK>
 VINA RESULT:      -6.9      0.000      0.000
  Name = ZINC16321740
                            x       y       z     vdW  Elec       q    Type
                         _______ _______ _______ _____ _____    ______ ____

>  <TORSDO>
F 7

>  <vina_score>
-6.9

$$$$
ZINC04998060
 OpenBabel01081722533D

 28 29  0  0  0  0  0  0  0  0999 V2000
   11.2370   14.4790   -2.3930 N   0  0  0  0  0  0  0  0  0  0  0  0
   10.3760   14.6160   -1.8630 H   0  0  0  0  0  0  0  0  0  0  0  0
   11.4290   15.3000   -2.9660 H   0  0  0  0  0  0  0  0  0  0  0  0
   12.3530   14.2730   -1.4490 C   0  0  0  0  0  0  0  0  0  0  0  0
   10.7690   13.4990    2.4470 C   0  0  0  0  0  0  0  0  0  0  0  0
   11.7640   12.6850    1.9250 C   0  0  0  0  0  0  0  0  0  0  0  0
   12.2740   12.9380    0.6660 C   0  0  0  0  0  0  0  0  0  0  0  0
   11.7950   14.0010   -0.0760 C   0  0  0  0  0  0  0  0  0  0  0  0
   10.8030   14.8200    0.4450 C   0  0  0  0  0  0  0  0  0  0  0  0
   10.2860   14.5650    1.7060 C   0  0  0  0  0  0  0  0  0  0  0  0
    8.9790   12.6380    3.7540 C   0  0  0  0  0  0  0  0  0  0  0  0
   10.2680   13.2500    3.6860 O   0  0  0  0  0  0  0  0  0  0  0  0
   10.3360   15.8690   -0.2830 O   0  0  0  0  0  0  0  0  0  0  0  0
    9.6480   16.8980    0.4300 C   0  0  0  0  0  0  0  0  0  0  0  0
   11.0810   13.3000   -3.2650 C   0  0  0  0  0  0  0  0  0  0  0  0
    9.6820   13.3170   -3.8850 C   0  0  0  0  0  0  0  0  0  0  0  0
    8.8040   12.4160   -3.1330 N   0  0  0  0  0  0  0  0  0  0  0  0
    8.7520   11.4630   -3.3760 H   0  0  0  0  0  0  0  0  0  0  0  0
    8.0680   12.8910   -2.1090 C   0  0  0  0  0  0  0  0  0  0  0  0
    8.1330   14.0670   -1.8090 O   0  0  0  0  0  0  0  0  0  0  0  0
    7.1810   11.9800   -1.3490 C   0  0  0  0  0  0  0  0  0  0  0  0
    7.4870   11.1870   -0.1370 C   0  0  0  0  0  0  0  0  0  0  0  0
    6.3490   10.5740    0.0980 N   0  0  0  0  0  0  0  0  0  0  0  0
    5.5400   10.8940   -0.7410 O   0  0  0  0  0  0  0  0  0  0  0  0
    5.9220   11.6770   -1.5780 N   0  0  0  0  0  0  0  0  0  0  0  0
    8.6770   11.1100    0.5730 N   0  0  0  0  0  0  0  0  0  0  0  0
    8.8180   11.6800    1.3630 H   0  0  0  0  0  0  0  0  0  0  0  0
    9.3820   10.4840    0.2870 H   0  0  0  0  0  0  0  0  0  0  0  0
  1  2  1  0  0  0  0
  1  4  1  0  0  0  0
  3  1  1  0  0  0  0
  4  8  1  0  0  0  0
  5 12  1  0  0  0  0
  6  5  1  0  0  0  0
  7  6  2  0  0  0  0
  8  9  2  0  0  0  0
  8  7  1  0  0  0  0
  9 10  1  0  0  0  0
 10  5  2  0  0  0  0
 12 11  1  0  0  0  0
 13 14  1  0  0  0  0
 13  9  1  0  0  0  0
 15  1  1  0  0  0  0
 16 15  1  0  0  0  0
 16 17  1  0  0  0  0
 17 19  1  0  0  0  0
 18 17  1  0  0  0  0
 19 20  2  0  0  0  0
 19 21  1  0  0  0  0
 21 22  1  0  0  0  0
 22 23  2  0  0  0  0
 22 26  1  0  0  0  0
 24 23  1  0  0  0  0
 25 21  2  0  0  0  0
 25 24  1  0  0  0  0
 26 27  1  0  0  0  0
 28 26  1  0  0  0  0
M  END
>  <MODEL>
1

>  <REMARK>
 VINA RESULT:      -6.9      0.000      0.000
  Name = ZINC04998060
                            x       y       z     vdW  Elec       q    Type
                         _______ _______ _______ _____ _____    ______ ____

>  <TORSDO>
F 9

>  <vina_score>
-6.9

$$$$
ZINC28996368
 OpenBabel01081722553D

 26 27  0  0  0  0  0  0  0  0999 V2000
    7.1670   10.8470    0.4800 N   0  0  0  0  0  0  0  0  0  0  0  0
    8.0680   11.2430    0.4500 H   0  0  0  0  0  0  0  0  0  0  0  0
    6.3530   10.9440   -0.5890 C   0  0  0  0  0  0  0  0  0  0  0  0
    6.7720   11.5820   -1.7010 N   0  0  0  0  0  0  0  0  0  0  0  0
    6.1770   11.6530   -2.4810 H   0  0  0  0  0  0  0  0  0  0  0  0
    5.2410   10.4550   -0.5530 O   0  0  0  0  0  0  0  0  0  0  0  0
    8.0540   12.1460   -1.7430 N   0  0  0  0  0  0  0  0  0  0  0  0
    8.8480   11.5620   -1.7550 H   0  0  0  0  0  0  0  0  0  0  0  0
    8.2010   13.4850   -1.7690 C   0  0  0  0  0  0  0  0  0  0  0  0
    7.2220   14.2030   -1.7540 O   0  0  0  0  0  0  0  0  0  0  0  0
    9.5570   14.0800   -1.8140 C   0  0  0  0  0  0  0  0  0  0  0  0
    9.8590   15.1920   -1.0280 C   0  0  0  0  0  0  0  0  0  0  0  0
   11.0690   15.7200   -1.0710 N   0  0  0  0  0  0  0  0  0  0  0  0
   11.9920   15.1940   -1.8580 C   0  0  0  0  0  0  0  0  0  0  0  0
   11.6950   14.0890   -2.6410 C   0  0  0  0  0  0  0  0  0  0  0  0
   10.4910   13.5530   -2.6000 N   0  0  0  0  0  0  0  0  0  0  0  0
    6.7110   10.1530    1.6870 C   0  0  0  0  0  0  0  0  0  0  0  0
    7.7990   10.2300    2.7600 C   0  0  0  0  0  0  0  0  0  0  0  0
    8.1220   11.5990    3.0150 O   0  0  0  0  0  0  0  0  0  0  0  0
    9.7920   13.0070    2.0730 C   0  0  0  0  0  0  0  0  0  0  0  0
   11.1200   13.3700    1.9610 C   0  0  0  0  0  0  0  0  0  0  0  0
   12.0890   12.6850    2.6750 C   0  0  0  0  0  0  0  0  0  0  0  0
   13.3870   13.0400    2.5640 F   0  0  0  0  0  0  0  0  0  0  0  0
   11.7270   11.6350    3.5040 C   0  0  0  0  0  0  0  0  0  0  0  0
   10.4000   11.2710    3.6180 C   0  0  0  0  0  0  0  0  0  0  0  0
    9.4280   11.9560    2.9030 C   0  0  0  0  0  0  0  0  0  0  0  0
  1 17  1  0  0  0  0
  2  1  1  0  0  0  0
  3  6  2  0  0  0  0
  3  1  1  0  0  0  0
  4  3  1  0  0  0  0
  5  4  1  0  0  0  0
  7  4  1  0  0  0  0
  8  7  1  0  0  0  0
  9 10  2  0  0  0  0
  9  7  1  0  0  0  0
 11  9  1  0  0  0  0
 11 12  2  0  0  0  0
 13 12  1  0  0  0  0
 14 13  2  0  0  0  0
 15 16  2  0  0  0  0
 15 14  1  0  0  0  0
 16 11  1  0  0  0  0
 17 18  1  0  0  0  0
 18 19  1  0  0  0  0
 20 26  1  0  0  0  0
 21 20  2  0  0  0  0
 21 22  1  0  0  0  0
 22 24  2  0  0  0  0
 23 22  1  0  0  0  0
 24 25  1  0  0  0  0
 26 19  1  0  0  0  0
 26 25  2  0  0  0  0
M  END
>  <MODEL>
1

>  <REMARK>
 VINA RESULT:      -6.9      0.000      0.000
  Name = ZINC28996368
                            x       y       z     vdW  Elec       q    Type
                         _______ _______ _______ _____ _____    ______ ____

>  <TORSDO>
F 6

>  <vina_score>
-6.9

$$$$
ZINC05637890
 OpenBabel01081722343D

 26 27  0  0  0  0  0  0  0  0999 V2000
   10.1160   11.7050    1.8220 C   0  0  0  0  0  0  0  0  0  0  0  0
    9.7250   11.8530    0.5050 C   0  0  0  0  0  0  0  0  0  0  0  0
    8.4330   11.5180    0.1240 C   0  0  0  0  0  0  0  0  0  0  0  0
    7.5380   11.0300    1.0680 C   0  0  0  0  0  0  0  0  0  0  0  0
    7.9360   10.8790    2.3820 C   0  0  0  0  0  0  0  0  0  0  0  0
    9.2250   11.2120    2.7580 C   0  0  0  0  0  0  0  0  0  0  0  0
    6.1590   10.6710    0.6680 N   0  0  0  0  0  0  0  0  0  0  0  0
    5.9510   10.1920   -0.4330 O   0  0  0  0  0  0  0  0  0  0  0  0
    5.2330   10.8550    1.4370 O   0  0  0  0  0  0  0  0  0  0  0  0
    9.7300   11.0180    4.4350 S   0  0  0  0  0  0  0  0  0  0  0  0
    8.7000   10.2900    5.0890 O   0  0  0  0  0  0  0  0  0  0  0  0
   11.0780   10.5690    4.4030 O   0  0  0  0  0  0  0  0  0  0  0  0
    9.7510   12.5270    5.1170 N   0  0  0  0  0  0  0  0  0  0  0  0
   10.6480   12.6790    5.5780 H   0  0  0  0  0  0  0  0  0  0  0  0
    9.6190   13.2310    4.3910 H   0  0  0  0  0  0  0  0  0  0  0  0
    8.0330   11.6720   -1.2050 N   0  0  0  0  0  0  0  0  0  0  0  0
    7.9630   10.8850   -1.7930 H   0  0  0  0  0  0  0  0  0  0  0  0
    7.7170   13.0050   -1.7240 C   0  0  0  0  0  0  0  0  0  0  0  0
    8.5440   13.2720   -2.9830 C   0  0  0  0  0  0  0  0  0  0  0  0
    9.2350   14.6310   -2.8610 C   0  0  0  0  0  0  0  0  0  0  0  0
   10.3910   14.5130   -1.9680 N   0  0  0  0  0  0  0  0  0  0  0  0
   11.5680   13.6800   -2.2430 C   0  0  0  0  0  0  0  0  0  0  0  0
   12.6700   14.1990   -1.2900 C   0  0  0  0  0  0  0  0  0  0  0  0
   11.8300   14.8060   -0.1420 C   0  0  0  0  0  0  0  0  0  0  0  0
   10.5080   15.1500   -0.7900 C   0  0  0  0  0  0  0  0  0  0  0  0
    9.6740   15.8930   -0.3160 O   0  0  0  0  0  0  0  0  0  0  0  0
  1  6  2  0  0  0  0
  2  1  1  0  0  0  0
  3  2  2  0  0  0  0
  3  4  1  0  0  0  0
  4  5  2  0  0  0  0
  5  6  1  0  0  0  0
  6 10  1  0  0  0  0
  7  4  1  0  0  0  0
  7  9  2  0  0  0  0
  8  7  2  0  0  0  0
 10 11  2  0  0  0  0
 10 13  1  0  0  0  0
 12 10  2  0  0  0  0
 13 14  1  0  0  0  0
 15 13  1  0  0  0  0
 16  3  1  0  0  0  0
 17 16  1  0  0  0  0
 18 16  1  0  0  0  0
 19 20  1  0  0  0  0
 19 18  1  0  0  0  0
 20 21  1  0  0  0  0
 21 25  1  0  0  0  0
 22 21  1  0  0  0  0
 22 23  1  0  0  0  0
 23 24  1  0  0  0  0
 25 26  2  0  0  0  0
 25 24  1  0  0  0  0
M  END
>  <MODEL>
1

>  <REMARK>
 VINA RESULT:      -6.9      0.000      0.000
  Name = ZINC05637890
                            x       y       z     vdW  Elec       q    Type
                         _______ _______ _______ _____ _____    ______ ____

>  <TORSDO>
F 8

>  <vina_score>
-6.9

$$$$
ZINC06380326
 OpenBabel01081722413D

 28 29  0  0  1  0  0  0  0  0999 V2000
   11.2510   15.3660   -1.5400 C   0  0  2  0  0  0  0  0  0  0  0  0
   10.3600   15.2320   -0.3030 C   0  0  2  0  0  0  0  0  0  0  0  0
    9.6960   13.8510   -0.3080 C   0  0  2  0  0  0  0  0  0  0  0  0
    8.9110   13.6790   -1.6120 C   0  0  1  0  0  0  0  0  0  0  0  0
    9.8600   13.8720   -2.7980 C   0  0  2  0  0  0  0  0  0  0  0  0
   10.4660   15.1640   -2.7170 O   0  0  0  0  0  0  0  0  0  0  0  0
   12.6540   13.9970   -0.1600 C   0  0  0  0  0  0  0  0  0  0  0  0
   12.2900   14.3850   -1.4860 O   0  0  0  0  0  0  0  0  0  0  0  0
    9.3530   16.2460   -0.3300 O   0  0  0  0  0  0  0  0  0  0  0  0
    9.7540   17.1050   -0.1270 H   0  0  0  0  0  0  0  0  0  0  0  0
    8.3470   12.3660   -1.6600 O   0  0  0  0  0  0  0  0  0  0  0  0
    8.4490   12.0020   -2.5530 H   0  0  0  0  0  0  0  0  0  0  0  0
    8.8050   13.7460    0.8040 O   0  0  0  0  0  0  0  0  0  0  0  0
    9.1630   12.7290    1.7410 C   0  0  1  0  0  0  0  0  0  0  0  0
    9.3740   13.3580    3.1210 C   0  0  1  0  0  0  0  0  0  0  0  0
    9.6980   12.2540    4.1330 C   0  0  2  0  0  0  0  0  0  0  0  0
    8.5650   11.2240    4.1300 C   0  0  1  0  0  0  0  0  0  0  0  0
    8.3840   10.6780    2.7120 C   0  0  0  0  0  0  0  0  0  0  0  0
    8.1160   11.7590    1.8170 O   0  0  0  0  0  0  0  0  0  0  0  0
   10.4590   14.2860    3.0620 O   0  0  0  0  0  0  0  0  0  0  0  0
   10.7980   14.3290    2.1550 H   0  0  0  0  0  0  0  0  0  0  0  0
    9.8240   12.8240    5.4380 O   0  0  0  0  0  0  0  0  0  0  0  0
    9.1580   13.5190    5.5520 H   0  0  0  0  0  0  0  0  0  0  0  0
    8.8900   10.1530    5.0180 O   0  0  0  0  0  0  0  0  0  0  0  0
    8.3450    9.3810    4.8060 H   0  0  0  0  0  0  0  0  0  0  0  0
    9.0710   13.7600   -4.1050 C   0  0  0  0  0  0  0  0  0  0  0  0
    9.0030   12.3890   -4.5030 O   0  0  0  0  0  0  0  0  0  0  0  0
    8.3520   12.2920   -5.2160 H   0  0  0  0  0  0  0  0  0  0  0  0
  1  8  1  1  0  0  0
  1  2  1  0  0  0  0
  2  9  1  6  0  0  0
  3  2  1  0  0  0  0
  3 13  1  1  0  0  0
  4 11  1  1  0  0  0
  4  3  1  0  0  0  0
  5 26  1  6  0  0  0
  5  6  1  0  0  0  0
  5  4  1  0  0  0  0
  6  1  1  0  0  0  0
  8  7  1  0  0  0  0
  9 10  1  0  0  0  0
 12 11  1  0  0  0  0
 14 13  1  6  0  0  0
 14 19  1  0  0  0  0
 14 15  1  0  0  0  0
 15 20  1  6  0  0  0
 15 16  1  0  0  0  0
 16 22  1  1  0  0  0
 17 16  1  0  0  0  0
 17 24  1  1  0  0  0
 18 17  1  0  0  0  0
 19 18  1  0  0  0  0
 21 20  1  0  0  0  0
 22 23  1  0  0  0  0
 25 24  1  0  0  0  0
 27 26  1  0  0  0  0
 28 27  1  0  0  0  0
M  END
>  <MODEL>
1

>  <REMARK>
 VINA RESULT:      -6.9      0.000      0.000
  Name = ZINC06380326
                            x       y       z     vdW  Elec       q    Type
                         _______ _______ _______ _____ _____    ______ ____

>  <TORSDO>
F 10

>  <vina_score>
-6.9

$$$$
ZINC19328598
 OpenBabel01081722433D

 27 27  0  0  1  0  0  0  0  0999 V2000
    9.2680   13.8360   -3.0570 C   0  0  1  0  0  0  0  0  0  0  0  0
    9.0560   13.2430   -4.3840 N   0  0  0  0  0  0  0  0  0  0  0  0
    8.8300   12.2530   -4.2830 H   0  0  0  0  0  0  0  0  0  0  0  0
    8.2870   13.7210   -4.8520 H   0  0  0  0  0  0  0  0  0  0  0  0
    9.9060   13.3420   -4.9400 H   0  0  0  0  0  0  0  0  0  0  0  0
    8.2260   13.3130   -2.1010 C   0  0  0  0  0  0  0  0  0  0  0  0
    8.4770   12.2110   -1.3680 N   0  0  0  0  0  0  0  0  0  0  0  0
    9.3410   11.7470   -1.4560 H   0  0  0  0  0  0  0  0  0  0  0  0
    7.1630   13.8860   -1.9910 O   0  0  0  0  0  0  0  0  0  0  0  0
    7.5100   11.7260   -0.4800 C   0  0  0  0  0  0  0  0  0  0  0  0
    7.4750   11.9340    0.8370 N   0  0  0  0  0  0  0  0  0  0  0  0
    6.4510   11.3450    1.3450 N   0  0  0  0  0  0  0  0  0  0  0  0
    5.7960   10.7360    0.4160 N   0  0  0  0  0  0  0  0  0  0  0  0
    6.4710   10.9810   -0.7920 N   0  0  0  0  0  0  0  0  0  0  0  0
   10.6610   13.4610   -2.5470 C   0  0  0  0  0  0  0  0  0  0  0  0
   11.3790   14.7190   -2.0540 C   0  0  0  0  0  0  0  0  0  0  0  0
   11.4470   14.7010   -0.5260 C   0  0  0  0  0  0  0  0  0  0  0  0
   10.2830   15.5130    0.0470 C   0  0  0  0  0  0  0  0  0  0  0  0
    9.3980   14.6280    0.8140 N   0  0  0  0  0  0  0  0  0  0  0  0
    9.6990   13.6630    0.6700 H   0  0  0  0  0  0  0  0  0  0  0  0
    8.4390   14.7540    0.4910 H   0  0  0  0  0  0  0  0  0  0  0  0
    9.4530   16.4460    2.4530 C   0  0  0  0  0  0  0  0  0  0  0  0
    9.4660   14.9290    2.2500 C   0  0  1  0  0  0  0  0  0  0  0  0
    8.3090   14.3340    2.9310 N   0  0  0  0  0  0  0  0  0  0  0  0
    7.9830   14.9650    3.6620 H   0  0  0  0  0  0  0  0  0  0  0  0
    7.5600   14.1790    2.2570 H   0  0  0  0  0  0  0  0  0  0  0  0
    8.5810   13.4430    3.3470 H   0  0  0  0  0  0  0  0  0  0  0  0
  1  2  1  6  0  0  0
  1 15  1  0  0  0  0
  1  6  1  0  0  0  0
  2  3  1  0  0  0  0
  4  2  1  0  0  0  0
  5  2  1  0  0  0  0
  6  9  2  0  0  0  0
  6  7  1  0  0  0  0
  7 10  1  0  0  0  0
  8  7  1  0  0  0  0
 10 11  1  0  0  0  0
 11 12  1  0  0  0  0
 13 12  2  0  0  0  0
 14 10  2  0  0  0  0
 14 13  1  0  0  0  0
 15 16  1  0  0  0  0
 16 17  1  0  0  0  0
 17 18  1  0  0  0  0
 18 19  1  0  0  0  0
 20 19  1  0  0  0  0
 21 19  1  0  0  0  0
 23 19  1  6  0  0  0
 23 22  1  0  0  0  0
 23 24  1  0  0  0  0
 24 27  1  0  0  0  0
 24 25  1  0  0  0  0
 26 24  1  0  0  0  0
M  END
>  <MODEL>
1

>  <REMARK>
 VINA RESULT:      -6.8      0.000      0.000
  Name = ZINC19328598
                            x       y       z     vdW  Elec       q    Type
                         _______ _______ _______ _____ _____    ______ ____

>  <TORSDO>
F 10

>  <vina_score>
-6.8

$$$$
ZINC19752740
 OpenBabel01081722473D

 26 28  0  0  1  0  0  0  0  0999 V2000
   10.3210   13.4040    0.4390 N   0  0  0  0  0  0  0  0  0  0  0  0
   11.2160   12.9410    1.3850 C   0  0  0  0  0  0  0  0  0  0  0  0
   12.2770   13.5150    2.0710 C   0  0  0  0  0  0  0  0  0  0  0  0
   12.9940   12.7680    2.9880 C   0  0  0  0  0  0  0  0  0  0  0  0
   12.6490   11.4370    3.2320 C   0  0  0  0  0  0  0  0  0  0  0  0
   13.3450   10.6950    4.1380 O   0  0  0  0  0  0  0  0  0  0  0  0
   14.6310   11.1910    4.5270 C   0  0  0  0  0  0  0  0  0  0  0  0
   14.4970   12.6890    4.8300 C   0  0  0  0  0  0  0  0  0  0  0  0
   11.5940   10.8560    2.5580 C   0  0  0  0  0  0  0  0  0  0  0  0
   14.0360   13.3470    3.6450 O   0  0  0  0  0  0  0  0  0  0  0  0
   10.8630   11.6030    1.6290 C   0  0  0  0  0  0  0  0  0  0  0  0
    9.8010   11.3220    0.8310 N   0  0  0  0  0  0  0  0  0  0  0  0
    9.4840   12.3750    0.1350 C   0  0  0  0  0  0  0  0  0  0  0  0
   10.2840   14.7510   -0.1350 C   0  0  1  0  0  0  0  0  0  0  0  0
    9.7570   15.7200    0.8910 C   0  0  0  0  0  0  0  0  0  0  0  0
    9.3140   15.2680    2.0750 O   0  0  0  0  0  0  0  0  0  0  0  0
    9.7300   16.9030    0.6480 O   0  0  0  0  0  0  0  0  0  0  0  0
   12.0180   14.5780   -1.9270 C   0  0  0  0  0  0  0  0  0  0  0  0
   11.6970   15.1670   -0.5520 C   0  0  0  0  0  0  0  0  0  0  0  0
    8.3560   12.4440   -0.8610 C   0  0  0  0  0  0  0  0  0  0  0  0
    8.9090   12.8500   -2.2290 C   0  0  0  0  0  0  0  0  0  0  0  0
    8.2820   14.1790   -2.6580 C   0  0  0  0  0  0  0  0  0  0  0  0
    9.0070   14.7100   -3.8200 N   0  0  0  0  0  0  0  0  0  0  0  0
    9.9000   15.0960   -3.5150 H   0  0  0  0  0  0  0  0  0  0  0  0
    9.1710   13.9590   -4.4900 H   0  0  0  0  0  0  0  0  0  0  0  0
    8.4520   15.4440   -4.2600 H   0  0  0  0  0  0  0  0  0  0  0  0
  1  2  1  0  0  0  0
  2 11  2  0  0  0  0
  2  3  1  0  0  0  0
  3  4  2  0  0  0  0
  4  5  1  0  0  0  0
  4 10  1  0  0  0  0
  5  6  1  0  0  0  0
  6  7  1  0  0  0  0
  7  8  1  0  0  0  0
  9  5  2  0  0  0  0
 10  8  1  0  0  0  0
 11  9  1  0  0  0  0
 12 11  1  0  0  0  0
 13  1  1  0  0  0  0
 13 12  2  0  0  0  0
 14 19  1  1  0  0  0
 14  1  1  0  0  0  0
 14 15  1  0  0  0  0
 15 16  1  0  0  0  0
 17 15  2  0  0  0  0
 18 19  1  0  0  0  0
 20 13  1  0  0  0  0
 21 20  1  0  0  0  0
 22 21  1  0  0  0  0
 23 24  1  0  0  0  0
 23 22  1  0  0  0  0
 25 23  1  0  0  0  0
 26 23  1  0  0  0  0
M  END
>  <MODEL>
1

>  <REMARK>
 VINA RESULT:      -6.8      0.000      0.000
  Name = ZINC19752740
                            x       y       z     vdW  Elec       q    Type
                         _______ _______ _______ _____ _____    ______ ____

>  <TORSDO>
F 7

>  <vina_score>
-6.8

$$$$
ZINC26764321
 OpenBabel01081722313D

 26 26  0  0  0  0  0  0  0  0999 V2000
   11.3170   14.7520   -2.2030 S   0  0  0  0  0  0  0  0  0  0  0  0
   11.9470   16.0240   -2.2650 O   0  0  0  0  0  0  0  0  0  0  0  0
   11.8130   13.6220   -2.9070 O   0  0  0  0  0  0  0  0  0  0  0  0
   11.1480   13.1870    3.6320 C   0  0  0  0  0  0  0  0  0  0  0  0
   11.1870   13.5800    2.1770 C   0  0  0  0  0  0  0  0  0  0  0  0
   12.1270   13.0210    1.3350 C   0  0  0  0  0  0  0  0  0  0  0  0
   12.1600   13.3750   -0.0010 C   0  0  0  0  0  0  0  0  0  0  0  0
   11.2610   14.3010   -0.5010 C   0  0  0  0  0  0  0  0  0  0  0  0
   10.3170   14.8680    0.3310 C   0  0  0  0  0  0  0  0  0  0  0  0
   10.2740   14.5100    1.6790 C   0  0  0  0  0  0  0  0  0  0  0  0
    9.2660   15.1150    2.5760 C   0  0  0  0  0  0  0  0  0  0  0  0
    8.2190   14.3820    3.0030 N   0  0  0  0  0  0  0  0  0  0  0  0
    7.5470   14.7840    3.6010 H   0  0  0  0  0  0  0  0  0  0  0  0
    8.1240   13.4440    2.7160 H   0  0  0  0  0  0  0  0  0  0  0  0
    9.3820   16.2720    2.9290 O   0  0  0  0  0  0  0  0  0  0  0  0
    9.7540   14.9730   -2.7020 N   0  0  0  0  0  0  0  0  0  0  0  0
    9.7780   15.6710   -3.4460 H   0  0  0  0  0  0  0  0  0  0  0  0
    8.9810   13.8380   -3.2130 C   0  0  0  0  0  0  0  0  0  0  0  0
    8.1550   13.2500   -2.0980 C   0  0  0  0  0  0  0  0  0  0  0  0
    8.6330   12.2160   -1.3780 N   0  0  0  0  0  0  0  0  0  0  0  0
    9.5220   11.8450   -1.5800 H   0  0  0  0  0  0  0  0  0  0  0  0
    7.0600   13.7070   -1.8490 O   0  0  0  0  0  0  0  0  0  0  0  0
    7.8300   11.6440   -0.2950 C   0  0  0  0  0  0  0  0  0  0  0  0
    8.7500   11.2110    0.8480 C   0  0  0  0  0  0  0  0  0  0  0  0
    8.0790   11.3940    2.0960 O   0  0  0  0  0  0  0  0  0  0  0  0
    8.6040   10.6020    3.1620 C   0  0  0  0  0  0  0  0  0  0  0  0
  1  8  1  0  0  0  0
  2  1  2  0  0  0  0
  3  1  2  0  0  0  0
  5  4  1  0  0  0  0
  6  5  2  0  0  0  0
  7  6  1  0  0  0  0
  8  7  2  0  0  0  0
  8  9  1  0  0  0  0
  9 10  2  0  0  0  0
 10  5  1  0  0  0  0
 10 11  1  0  0  0  0
 11 15  2  0  0  0  0
 11 12  1  0  0  0  0
 12 13  1  0  0  0  0
 14 12  1  0  0  0  0
 16  1  1  0  0  0  0
 17 16  1  0  0  0  0
 18 16  1  0  0  0  0
 18 19  1  0  0  0  0
 19 22  2  0  0  0  0
 19 20  1  0  0  0  0
 20 23  1  0  0  0  0
 21 20  1  0  0  0  0
 23 24  1  0  0  0  0
 24 25  1  0  0  0  0
 25 26  1  0  0  0  0
M  END
>  <MODEL>
1

>  <REMARK>
 VINA RESULT:      -6.8      0.000      0.000
  Name = ZINC26764321
                            x       y       z     vdW  Elec       q    Type
                         _______ _______ _______ _____ _____    ______ ____

>  <TORSDO>
F 8

>  <vina_score>
-6.8

$$$$
ZINC04650528
 OpenBabel01081722523D

 27 27  0  0  1  0  0  0  0  0999 V2000
    7.4650   11.8230    1.6470 C   0  0  0  0  0  0  0  0  0  0  0  0
    8.7770   11.8550    0.9050 C   0  0  0  0  0  0  0  0  0  0  0  0
    8.9390   11.1570   -0.0670 O   0  0  0  0  0  0  0  0  0  0  0  0
    9.8860   12.7610    1.3750 C   0  0  1  0  0  0  0  0  0  0  0  0
    9.3280   13.8820    2.2280 C   0  0  0  0  0  0  0  0  0  0  0  0
    8.7310   13.7690    3.2710 O   0  0  0  0  0  0  0  0  0  0  0  0
    9.6630   15.1520    1.5250 C   0  0  0  0  0  0  0  0  0  0  0  0
    9.3670   16.2590    1.9270 O   0  0  0  0  0  0  0  0  0  0  0  0
   10.3290   14.9130    0.3870 N   0  0  0  0  0  0  0  0  0  0  0  0
   11.2420   12.2690    0.8450 C   0  0  0  0  0  0  0  0  0  0  0  0
   12.1770   11.9970    1.9960 C   0  0  0  0  0  0  0  0  0  0  0  0
   12.7910   13.0480    2.6500 C   0  0  0  0  0  0  0  0  0  0  0  0
   13.6430   12.8020    3.7080 C   0  0  0  0  0  0  0  0  0  0  0  0
   13.8930   11.4960    4.1070 C   0  0  0  0  0  0  0  0  0  0  0  0
   13.2800   10.4430    3.4460 C   0  0  0  0  0  0  0  0  0  0  0  0
   12.4230   10.6950    2.3910 C   0  0  0  0  0  0  0  0  0  0  0  0
   14.7350   11.2510    5.1450 O   0  0  0  0  0  0  0  0  0  0  0  0
   15.5590   11.6910    5.1940 H   0  0  0  0  0  0  0  0  0  0  0  0
   10.7920   15.9550   -0.5320 C   0  0  0  0  0  0  0  0  0  0  0  0
   11.6010   15.3130   -1.6630 C   0  0  0  0  0  0  0  0  0  0  0  0
   10.6870   14.9410   -2.7590 N   0  0  0  0  0  0  0  0  0  0  0  0
    9.7680   15.3450   -2.5770 H   0  0  0  0  0  0  0  0  0  0  0  0
   11.0570   15.2970   -3.6400 H   0  0  0  0  0  0  0  0  0  0  0  0
   10.5580   13.4740   -2.8430 C   0  0  0  0  0  0  0  0  0  0  0  0
    9.1200   13.1180   -3.2230 C   0  0  0  0  0  0  0  0  0  0  0  0
    9.1200   12.3670   -4.4400 O   0  0  0  0  0  0  0  0  0  0  0  0
    9.9600   12.5080   -4.9050 H   0  0  0  0  0  0  0  0  0  0  0  0
  2  4  1  0  0  0  0
  2  1  1  0  0  0  0
  3  2  2  0  0  0  0
  4 10  1  1  0  0  0
  4  5  1  0  0  0  0
  5  6  2  0  0  0  0
  7  8  2  0  0  0  0
  7  5  1  0  0  0  0
  9  7  1  0  0  0  0
 10 11  1  0  0  0  0
 11 16  2  0  0  0  0
 11 12  1  0  0  0  0
 12 13  2  0  0  0  0
 13 14  1  0  0  0  0
 14 17  1  0  0  0  0
 15 14  2  0  0  0  0
 16 15  1  0  0  0  0
 17 18  1  0  0  0  0
 19  9  1  0  0  0  0
 20 19  1  0  0  0  0
 21 22  1  0  0  0  0
 21 20  1  0  0  0  0
 23 21  1  0  0  0  0
 24 21  1  0  0  0  0
 25 24  1  0  0  0  0
 26 25  1  0  0  0  0
 27 26  1  0  0  0  0
M  END
>  <MODEL>
1

>  <REMARK>
 VINA RESULT:      -6.8      0.000      0.000
  Name = ZINC04650528
                            x       y       z     vdW  Elec       q    Type
                         _______ _______ _______ _____ _____    ______ ____

>  <TORSDO>
F 8

>  <vina_score>
-6.8

$$$$
ZINC31219731
 OpenBabel01081722563D

 30 31  0  0  1  0  0  0  0  0999 V2000
    9.1460   11.7190    0.7540 C   0  0  0  0  0  0  0  0  0  0  0  0
   10.3500   11.9490    1.1700 N   0  0  0  0  0  0  0  0  0  0  0  0
   10.6480   11.3600    2.3960 N   0  0  0  0  0  0  0  0  0  0  0  0
    9.4690   10.6180    2.8690 C   0  0  2  0  0  0  0  0  0  0  0  0
    8.4240   10.8500    1.7590 C   0  0  0  0  0  0  0  0  0  0  0  0
   11.8710   11.4520    3.0660 C   0  0  0  0  0  0  0  0  0  0  0  0
   12.5480   10.2980    3.4420 C   0  0  0  0  0  0  0  0  0  0  0  0
   13.7580   10.3930    4.1000 C   0  0  0  0  0  0  0  0  0  0  0  0
   14.2920   11.6360    4.3940 C   0  0  0  0  0  0  0  0  0  0  0  0
   15.4740   11.7250    5.0420 F   0  0  0  0  0  0  0  0  0  0  0  0
   13.6170   12.7880    4.0250 C   0  0  0  0  0  0  0  0  0  0  0  0
   12.4090   12.6980    3.3630 C   0  0  0  0  0  0  0  0  0  0  0  0
    8.9800   11.1740    4.1810 C   0  0  0  0  0  0  0  0  0  0  0  0
    8.9420   12.5080    4.3750 N   0  0  0  0  0  0  0  0  0  0  0  0
    8.6220   12.8710    5.2320 H   0  0  0  0  0  0  0  0  0  0  0  0
    9.2330   13.1170    3.6590 H   0  0  0  0  0  0  0  0  0  0  0  0
    8.6210   10.4230    5.0630 O   0  0  0  0  0  0  0  0  0  0  0  0
    9.3710   12.4610   -1.5540 N   0  0  0  0  0  0  0  0  0  0  0  0
   10.3410   12.3010   -1.4850 H   0  0  0  0  0  0  0  0  0  0  0  0
    8.5720   12.2190   -0.4950 C   0  0  0  0  0  0  0  0  0  0  0  0
    7.3740   12.4160   -0.5800 O   0  0  0  0  0  0  0  0  0  0  0  0
    8.7980   12.9610   -2.8060 C   0  0  0  0  0  0  0  0  0  0  0  0
    9.0460   14.4660   -2.9150 C   0  0  0  0  0  0  0  0  0  0  0  0
   10.4850   14.7310   -2.8390 N   0  0  0  0  0  0  0  0  0  0  0  0
   10.9580   13.8650   -3.0940 H   0  0  0  0  0  0  0  0  0  0  0  0
   11.1590   15.2450   -1.4170 S   0  0  0  0  0  0  0  0  0  0  0  0
   11.7340   14.0780   -0.8460 O   0  0  0  0  0  0  0  0  0  0  0  0
   11.9740   16.3510   -1.7800 O   0  0  0  0  0  0  0  0  0  0  0  0
    9.9740   15.3920    1.0450 C   0  0  0  0  0  0  0  0  0  0  0  0
    9.7560   15.8060   -0.4130 C   0  0  0  0  0  0  0  0  0  0  0  0
  1  2  2  0  0  0  0
  1  5  1  0  0  0  0
  2  3  1  0  0  0  0
  3  4  1  0  0  0  0
  3  6  1  0  0  0  0
  4 13  1  1  0  0  0
  5  4  1  0  0  0  0
  6 12  2  0  0  0  0
  6  7  1  0  0  0  0
  7  8  2  0  0  0  0
  8  9  1  0  0  0  0
  9 10  1  0  0  0  0
 11  9  2  0  0  0  0
 12 11  1  0  0  0  0
 13 14  1  0  0  0  0
 13 17  2  0  0  0  0
 14 15  1  0  0  0  0
 16 14  1  0  0  0  0
 18 19  1  0  0  0  0
 18 20  1  0  0  0  0
 20  1  1  0  0  0  0
 21 20  2  0  0  0  0
 22 18  1  0  0  0  0
 23 24  1  0  0  0  0
 23 22  1  0  0  0  0
 24 26  1  0  0  0  0
 25 24  1  0  0  0  0
 26 27  2  0  0  0  0
 26 30  1  0  0  0  0
 28 26  2  0  0  0  0
 30 29  1  0  0  0  0
M  END
>  <MODEL>
1

>  <REMARK>
 VINA RESULT:      -6.8      0.000      0.000
  Name = ZINC31219731
                            x       y       z     vdW  Elec       q    Type
                         _______ _______ _______ _____ _____    ______ ____

>  <TORSDO>
F 8

>  <vina_score>
-6.8

$$$$
ZINC05974537
 OpenBabel01081722323D

 24 25  0  0  1  0  0  0  0  0999 V2000
    9.1890   12.1450    0.9340 C   0  0  1  0  0  0  0  0  0  0  0  0
    8.7450   11.6500   -0.3820 N   0  0  0  0  0  0  0  0  0  0  0  0
    7.8740   11.1320   -0.2650 H   0  0  0  0  0  0  0  0  0  0  0  0
    9.4640   11.0410   -0.7730 H   0  0  0  0  0  0  0  0  0  0  0  0
    8.5120   12.7790   -1.3020 C   0  0  0  0  0  0  0  0  0  0  0  0
   12.0190   15.2130   -1.4570 C   0  0  0  0  0  0  0  0  0  0  0  0
   10.8670   15.6970   -0.8680 C   0  0  0  0  0  0  0  0  0  0  0  0
    9.7320   14.9100   -0.8170 C   0  0  0  0  0  0  0  0  0  0  0  0
    9.7490   13.6370   -1.3560 C   0  0  0  0  0  0  0  0  0  0  0  0
   10.9030   13.1500   -1.9420 C   0  0  0  0  0  0  0  0  0  0  0  0
   12.0370   13.9400   -1.9970 C   0  0  0  0  0  0  0  0  0  0  0  0
    7.9960   12.3050    1.8410 C   0  0  0  0  0  0  0  0  0  0  0  0
    8.0310   13.1970    2.8440 O   0  0  0  0  0  0  0  0  0  0  0  0
    7.0090   11.6310    1.6650 O   0  0  0  0  0  0  0  0  0  0  0  0
   10.1640   11.1370    1.5470 C   0  0  0  0  0  0  0  0  0  0  0  0
   11.3230   11.8730    2.1680 C   0  0  0  0  0  0  0  0  0  0  0  0
   11.7680   13.1100    1.8280 C   0  0  0  0  0  0  0  0  0  0  0  0
   12.8060   13.4090    2.6030 N   0  0  0  0  0  0  0  0  0  0  0  0
   13.0350   12.4060    3.4240 C   0  0  0  0  0  0  0  0  0  0  0  0
   12.1120   11.4290    3.1740 N   0  0  0  0  0  0  0  0  0  0  0  0
   12.0350   10.5640    3.6390 H   0  0  0  0  0  0  0  0  0  0  0  0
   14.0990   12.3480    4.4400 C   0  0  0  0  0  0  0  0  0  0  0  0
   14.5410   11.1540    4.8850 O   0  0  0  0  0  0  0  0  0  0  0  0
   14.5800   13.3750    4.8770 O   0  0  0  0  0  0  0  0  0  0  0  0
  1  2  1  6  0  0  0
  1 15  1  0  0  0  0
  1 12  1  0  0  0  0
  2  3  1  0  0  0  0
  4  2  1  0  0  0  0
  5  2  1  0  0  0  0
  6  7  2  0  0  0  0
  7  8  1  0  0  0  0
  9  5  1  0  0  0  0
  9  8  2  0  0  0  0
 10  9  1  0  0  0  0
 11 10  2  0  0  0  0
 11  6  1  0  0  0  0
 12 13  1  0  0  0  0
 14 12  2  0  0  0  0
 15 16  1  0  0  0  0
 16 20  1  0  0  0  0
 17 16  2  0  0  0  0
 17 18  1  0  0  0  0
 18 19  2  0  0  0  0
 19 22  1  0  0  0  0
 20 19  1  0  0  0  0
 20 21  1  0  0  0  0
 22 24  2  0  0  0  0
 22 23  1  0  0  0  0
M  END
>  <MODEL>
1

>  <REMARK>
 VINA RESULT:      -6.8      0.000      0.000
  Name = ZINC05974537
                            x       y       z     vdW  Elec       q    Type
                         _______ _______ _______ _____ _____    ______ ____

>  <TORSDO>
F 7

>  <vina_score>
-6.8

$$$$
ZINC20636295
 OpenBabel01081722363D

 27 28  0  0  1  0  0  0  0  0999 V2000
    8.3200   11.2480    2.7860 C   0  0  1  0  0  0  0  0  0  0  0  0
    8.1860   12.6690    2.2520 C   0  0  0  0  0  0  0  0  0  0  0  0
    7.9950   12.7370    0.9600 N   0  0  0  0  0  0  0  0  0  0  0  0
    7.9210   11.6850    0.1620 C   0  0  0  0  0  0  0  0  0  0  0  0
    8.2500   13.6520    2.9640 O   0  0  0  0  0  0  0  0  0  0  0  0
    8.1290   10.3190    1.2120 S   0  0  0  0  0  0  0  0  0  0  0  0
    7.7230   11.6760   -1.1930 N   0  0  0  0  0  0  0  0  0  0  0  0
    7.3690   10.8700   -1.6330 H   0  0  0  0  0  0  0  0  0  0  0  0
    8.0230   12.7960   -1.9410 C   0  0  0  0  0  0  0  0  0  0  0  0
    9.0690   12.8020   -2.7160 N   0  0  0  0  0  0  0  0  0  0  0  0
    9.2830   13.6020   -3.2500 H   0  0  0  0  0  0  0  0  0  0  0  0
    9.6460   12.0070   -2.7690 H   0  0  0  0  0  0  0  0  0  0  0  0
    7.2160   13.9070   -1.8690 N   0  0  0  0  0  0  0  0  0  0  0  0
    7.5350   14.7190   -1.4120 H   0  0  0  0  0  0  0  0  0  0  0  0
    6.3180   13.8910   -2.2740 H   0  0  0  0  0  0  0  0  0  0  0  0
    9.6980   11.0130    3.4090 C   0  0  0  0  0  0  0  0  0  0  0  0
   11.2190   12.5520    2.2110 N   0  0  0  0  0  0  0  0  0  0  0  0
   10.8510   13.2870    2.7520 H   0  0  0  0  0  0  0  0  0  0  0  0
   10.7670   11.2940    2.3850 C   0  0  0  0  0  0  0  0  0  0  0  0
   11.2200   10.3880    1.7180 O   0  0  0  0  0  0  0  0  0  0  0  0
   12.2590   12.8240    1.2150 C   0  0  0  0  0  0  0  0  0  0  0  0
   10.8360   15.7370   -1.5680 C   0  0  0  0  0  0  0  0  0  0  0  0
   11.8820   14.9030   -1.9150 C   0  0  0  0  0  0  0  0  0  0  0  0
   12.3420   13.9600   -1.0140 C   0  0  0  0  0  0  0  0  0  0  0  0
   11.7570   13.8520    0.2330 C   0  0  0  0  0  0  0  0  0  0  0  0
   10.7080   14.6830    0.5780 C   0  0  0  0  0  0  0  0  0  0  0  0
   10.2510   15.6300   -0.3190 C   0  0  0  0  0  0  0  0  0  0  0  0
  1 16  1  6  0  0  0
  2  1  1  0  0  0  0
  2  5  2  0  0  0  0
  3  2  1  0  0  0  0
  4  3  2  0  0  0  0
  4  6  1  0  0  0  0
  6  1  1  0  0  0  0
  7  4  1  0  0  0  0
  8  7  1  0  0  0  0
  9 13  1  0  0  0  0
  9  7  1  0  0  0  0
 10  9  2  0  0  0  0
 11 10  1  0  0  0  0
 12 10  1  0  0  0  0
 13 14  1  0  0  0  0
 15 13  1  0  0  0  0
 17 19  1  0  0  0  0
 17 18  1  0  0  0  0
 19 16  1  0  0  0  0
 20 19  2  0  0  0  0
 21 17  1  0  0  0  0
 22 27  1  0  0  0  0
 23 22  2  0  0  0  0
 23 24  1  0  0  0  0
 24 25  2  0  0  0  0
 25 26  1  0  0  0  0
 25 21  1  0  0  0  0
 27 26  2  0  0  0  0
M  END
>  <MODEL>
1

>  <REMARK>
 VINA RESULT:      -6.8      0.000      0.000
  Name = ZINC20636295
                            x       y       z     vdW  Elec       q    Type
                         _______ _______ _______ _____ _____    ______ ____

>  <TORSDO>
F 7

>  <vina_score>
-6.8

$$$$
ZINC05089417
 OpenBabel01081722403D

 28 30  0  0  0  0  0  0  0  0999 V2000
    7.1650   11.1900    0.0760 C   0  0  0  0  0  0  0  0  0  0  0  0
    6.1960   11.0450    0.9330 N   0  0  0  0  0  0  0  0  0  0  0  0
    6.6730   10.7940    2.1010 N   0  0  0  0  0  0  0  0  0  0  0  0
    7.9850   10.7680    2.0490 C   0  0  0  0  0  0  0  0  0  0  0  0
    8.3400   11.0150    0.7540 N   0  0  0  0  0  0  0  0  0  0  0  0
    9.6050   11.0760    0.2430 N   0  0  0  0  0  0  0  0  0  0  0  0
    9.7950   10.7030   -0.6470 H   0  0  0  0  0  0  0  0  0  0  0  0
   10.3280   11.4920    0.7660 H   0  0  0  0  0  0  0  0  0  0  0  0
    7.0200   11.4910   -1.3940 C   0  0  0  0  0  0  0  0  0  0  0  0
    7.1330   12.9000   -1.6060 O   0  0  0  0  0  0  0  0  0  0  0  0
   10.1790   14.8510   -1.1860 C   0  0  0  0  0  0  0  0  0  0  0  0
   10.9230   14.4000   -2.2670 C   0  0  0  0  0  0  0  0  0  0  0  0
   10.3970   13.4470   -3.1180 C   0  0  0  0  0  0  0  0  0  0  0  0
    9.1310   12.9410   -2.8950 C   0  0  0  0  0  0  0  0  0  0  0  0
    8.3810   13.3940   -1.8200 C   0  0  0  0  0  0  0  0  0  0  0  0
    8.9070   14.3460   -0.9610 C   0  0  0  0  0  0  0  0  0  0  0  0
    9.7650   16.5570    0.4190 C   0  0  0  0  0  0  0  0  0  0  0  0
   10.6950   15.7890   -0.3490 O   0  0  0  0  0  0  0  0  0  0  0  0
    9.0800   10.4640    3.3960 S   0  0  0  0  0  0  0  0  0  0  0  0
    8.9990   12.0670    4.2340 C   0  0  0  0  0  0  0  0  0  0  0  0
    9.6030   13.1270    3.3490 C   0  0  0  0  0  0  0  0  0  0  0  0
    8.8990   13.9990    2.8790 O   0  0  0  0  0  0  0  0  0  0  0  0
   10.9870   13.1080    3.0660 C   0  0  0  0  0  0  0  0  0  0  0  0
   11.5680   13.1820    1.8110 C   0  0  0  0  0  0  0  0  0  0  0  0
   12.9500   13.1310    1.9990 C   0  0  0  0  0  0  0  0  0  0  0  0
   13.1860   13.0200    3.3300 C   0  0  0  0  0  0  0  0  0  0  0  0
   12.0080   13.0050    3.9870 N   0  0  0  0  0  0  0  0  0  0  0  0
   11.8950   12.9330    4.9620 H   0  0  0  0  0  0  0  0  0  0  0  0
  1  5  1  0  0  0  0
  1  2  2  0  0  0  0
  2  3  1  0  0  0  0
  4  3  2  0  0  0  0
  4 19  1  0  0  0  0
  5  4  1  0  0  0  0
  6  5  1  0  0  0  0
  6  8  1  0  0  0  0
  7  6  1  0  0  0  0
  9  1  1  0  0  0  0
 10  9  1  0  0  0  0
 11 16  1  0  0  0  0
 11 18  1  0  0  0  0
 12 11  2  0  0  0  0
 13 14  2  0  0  0  0
 13 12  1  0  0  0  0
 14 15  1  0  0  0  0
 15 10  1  0  0  0  0
 15 16  2  0  0  0  0
 18 17  1  0  0  0  0
 19 20  1  0  0  0  0
 21 20  1  0  0  0  0
 22 21  2  0  0  0  0
 23 21  1  0  0  0  0
 23 27  1  0  0  0  0
 24 25  1  0  0  0  0
 24 23  2  0  0  0  0
 25 26  2  0  0  0  0
 26 27  1  0  0  0  0
 27 28  1  0  0  0  0
M  END
>  <MODEL>
1

>  <REMARK>
 VINA RESULT:      -6.8      0.000      0.000
  Name = ZINC05089417
                            x       y       z     vdW  Elec       q    Type
                         _______ _______ _______ _____ _____    ______ ____

>  <TORSDO>
F 9

>  <vina_score>
-6.8

$$$$
ZINC01731417
 OpenBabel01081722383D

 22 22  0  0  0  0  0  0  0  0999 V2000
   10.8860   13.4020    0.0190 C   0  0  0  0  0  0  0  0  0  0  0  0
    9.5310   13.0930    0.1570 C   0  0  0  0  0  0  0  0  0  0  0  0
    8.9820   12.9380    1.4160 C   0  0  0  0  0  0  0  0  0  0  0  0
    9.7780   13.1020    2.5480 C   0  0  0  0  0  0  0  0  0  0  0  0
   11.1280   13.4150    2.4130 C   0  0  0  0  0  0  0  0  0  0  0  0
   11.6820   13.5650    1.1550 C   0  0  0  0  0  0  0  0  0  0  0  0
   11.4750   13.5620   -1.3250 C   0  0  0  0  0  0  0  0  0  0  0  0
   12.2620   14.4630   -1.5390 O   0  0  0  0  0  0  0  0  0  0  0  0
   11.1400   12.7120   -2.3110 O   0  0  0  0  0  0  0  0  0  0  0  0
   10.8480   13.2020   -3.3860 N   0  0  0  0  0  0  0  0  0  0  0  0
   11.5560   13.5140   -3.9950 H   0  0  0  0  0  0  0  0  0  0  0  0
    9.5370   13.3180   -3.7480 C   0  0  0  0  0  0  0  0  0  0  0  0
    9.0390   12.3680   -4.5110 N   0  0  0  0  0  0  0  0  0  0  0  0
    8.0990   12.4090   -4.7980 H   0  0  0  0  0  0  0  0  0  0  0  0
    8.7280   14.4980   -3.2730 C   0  0  0  0  0  0  0  0  0  0  0  0
    7.4520   13.9310   -2.1320 Cl  0  0  0  0  0  0  0  0  0  0  0  0
    7.6650   12.6330    1.5510 O   0  0  0  0  0  0  0  0  0  0  0  0
    7.2860   11.2750    1.3150 C   0  0  0  0  0  0  0  0  0  0  0  0
    9.2360   12.9550    3.7850 O   0  0  0  0  0  0  0  0  0  0  0  0
    9.3380   11.6640    4.3880 C   0  0  0  0  0  0  0  0  0  0  0  0
   11.9020   13.5730    3.5200 O   0  0  0  0  0  0  0  0  0  0  0  0
   13.1320   12.8480    3.5600 C   0  0  0  0  0  0  0  0  0  0  0  0
  1  2  2  0  0  0  0
  1  6  1  0  0  0  0
  2  3  1  0  0  0  0
  3 17  1  0  0  0  0
  3  4  2  0  0  0  0
  4 19  1  0  0  0  0
  5  4  1  0  0  0  0
  5 21  1  0  0  0  0
  6  5  2  0  0  0  0
  7  1  1  0  0  0  0
  8  7  2  0  0  0  0
  9  7  1  0  0  0  0
 10  9  1  0  0  0  0
 11 10  1  0  0  0  0
 12 10  1  0  0  0  0
 12 15  1  0  0  0  0
 13 12  2  0  0  0  0
 14 13  1  0  0  0  0
 15 16  1  0  0  0  0
 18 17  1  0  0  0  0
 19 20  1  0  0  0  0
 21 22  1  0  0  0  0
M  END
>  <MODEL>
1

>  <REMARK>
 VINA RESULT:      -6.8      0.000      0.000
  Name = ZINC01731417
                            x       y       z     vdW  Elec       q    Type
                         _______ _______ _______ _____ _____    ______ ____

>  <TORSDO>
F 8

>  <vina_score>
-6.8

$$$$
ZINC31448830
 OpenBabel01081722423D

 25 26  0  0  1  0  0  0  0  0999 V2000
    9.4380   14.7630   -1.0010 C   0  0  0  0  0  0  0  0  0  0  0  0
    8.2690   14.1370   -0.9750 N   0  0  0  0  0  0  0  0  0  0  0  0
    7.6120   14.3640   -0.2780 H   0  0  0  0  0  0  0  0  0  0  0  0
    7.9740   13.2060   -1.8790 C   0  0  1  0  0  0  0  0  0  0  0  0
    8.9150   12.8850   -2.8530 C   0  0  0  0  0  0  0  0  0  0  0  0
   10.1330   13.5590   -2.8450 C   0  0  0  0  0  0  0  0  0  0  0  0
   10.3570   14.4820   -1.9140 N   0  0  0  0  0  0  0  0  0  0  0  0
    6.7480   12.5600   -1.8470 N   0  0  0  0  0  0  0  0  0  0  0  0
    6.3120   12.3730   -0.9840 H   0  0  0  0  0  0  0  0  0  0  0  0
    6.3130   12.2880   -2.6880 H   0  0  0  0  0  0  0  0  0  0  0  0
   11.0990   13.2720   -3.7970 N   0  0  0  0  0  0  0  0  0  0  0  0
   11.7140   13.9780   -4.1030 H   0  0  0  0  0  0  0  0  0  0  0  0
   11.1710   12.3620   -4.1670 H   0  0  0  0  0  0  0  0  0  0  0  0
    9.7800   15.9930    0.2120 S   0  0  0  0  0  0  0  0  0  0  0  0
   10.3560   14.9430    1.5700 C   0  0  0  0  0  0  0  0  0  0  0  0
    9.1790   14.6030    2.4860 C   0  0  0  0  0  0  0  0  0  0  0  0
    9.1920   10.5050    4.7840 C   0  0  0  0  0  0  0  0  0  0  0  0
    9.5720   11.0230    3.3940 C   0  0  0  0  0  0  0  0  0  0  0  0
   10.6770   10.1600    2.7810 C   0  0  0  0  0  0  0  0  0  0  0  0
   10.0090   12.4730    3.4630 C   0  0  0  0  0  0  0  0  0  0  0  0
    9.1310   13.1550    2.7020 N   0  0  0  0  0  0  0  0  0  0  0  0
    8.2130   12.3450    2.1610 C   0  0  0  0  0  0  0  0  0  0  0  0
    7.3190   12.7270    1.4330 O   0  0  0  0  0  0  0  0  0  0  0  0
   10.9520   12.9250    4.0770 O   0  0  0  0  0  0  0  0  0  0  0  0
    8.3910   11.0590    2.5140 N   0  0  0  0  0  0  0  0  0  0  0  0
  1  2  1  0  0  0  0
  1 14  1  0  0  0  0
  2  3  1  0  0  0  0
  4  8  1  1  0  0  0
  4  2  1  0  0  0  0
  5  6  2  0  0  0  0
  5  4  1  0  0  0  0
  6  7  1  0  0  0  0
  7  1  2  0  0  0  0
  8  9  1  0  0  0  0
 10  8  1  0  0  0  0
 11  6  1  0  0  0  0
 12 11  1  0  0  0  0
 13 11  1  0  0  0  0
 14 15  1  0  0  0  0
 15 16  1  0  0  0  0
 16 21  1  0  0  0  0
 18 20  1  0  0  0  0
 18 17  1  0  0  0  0
 19 18  1  0  0  0  0
 20 24  2  0  0  0  0
 21 20  1  0  0  0  0
 22 25  1  0  0  0  0
 22 21  1  0  0  0  0
 23 22  2  0  0  0  0
 25 18  1  0  0  0  0
M  END
>  <MODEL>
1

>  <REMARK>
 VINA RESULT:      -6.7      0.000      0.000
  Name = ZINC31448830
                            x       y       z     vdW  Elec       q    Type
                         _______ _______ _______ _____ _____    ______ ____

>  <TORSDO>
F 6

>  <vina_score>
-6.7

$$$$
ZINC05835556
 OpenBabel01081722443D

 23 24  0  0  1  0  0  0  0  0999 V2000
    9.7440   13.2110   -2.2520 C   0  0  2  0  0  0  0  0  0  0  0  0
    9.3350   13.0030   -3.7100 C   0  0  0  0  0  0  0  0  0  0  0  0
    8.9200   12.6100   -1.1890 N   0  0  0  0  0  0  0  0  0  0  0  0
    9.3600   12.0030   -0.0690 C   0  0  0  0  0  0  0  0  0  0  0  0
   10.5480   11.8250    0.0990 O   0  0  0  0  0  0  0  0  0  0  0  0
    7.5120   12.8010   -1.6040 C   0  0  0  0  0  0  0  0  0  0  0  0
    7.5210   14.2380   -2.2080 C   0  0  0  0  0  0  0  0  0  0  0  0
    8.8790   14.2780   -2.9480 C   0  0  1  0  0  0  0  0  0  0  0  0
   11.1930   13.4810   -1.9320 C   0  0  0  0  0  0  0  0  0  0  0  0
   12.0080   12.5940   -2.0270 O   0  0  0  0  0  0  0  0  0  0  0  0
   11.5760   14.7050   -1.5400 O   0  0  0  0  0  0  0  0  0  0  0  0
   11.4680   15.0090   -0.1240 C   0  0  0  0  0  0  0  0  0  0  0  0
    9.6680   15.4650    1.5480 C   0  0  0  0  0  0  0  0  0  0  0  0
   10.1680   15.7740    0.1360 C   0  0  0  0  0  0  0  0  0  0  0  0
    8.3750   11.5470    0.9770 C   0  0  1  0  0  0  0  0  0  0  0  0
    7.4450   12.6510    1.2710 N   0  0  0  0  0  0  0  0  0  0  0  0
    6.9920   12.4840    2.1710 H   0  0  0  0  0  0  0  0  0  0  0  0
    7.9610   13.5300    1.3080 H   0  0  0  0  0  0  0  0  0  0  0  0
    6.7360   12.7030    0.5390 H   0  0  0  0  0  0  0  0  0  0  0  0
    7.6100   10.3270    0.4590 C   0  0  0  0  0  0  0  0  0  0  0  0
    6.1510   10.4610    0.8150 C   0  0  0  0  0  0  0  0  0  0  0  0
    5.2340   10.6010   -0.1550 O   0  0  0  0  0  0  0  0  0  0  0  0
    5.8080   10.4420    1.9730 O   0  0  0  0  0  0  0  0  0  0  0  0
  1  9  1  1  0  0  0
  1  3  1  0  0  0  0
  2  1  1  0  0  0  0
  3  4  1  0  0  0  0
  4  5  2  0  0  0  0
  6  3  1  0  0  0  0
  7  6  1  0  0  0  0
  8  2  1  6  0  0  0
  8  1  1  0  0  0  0
  8  7  1  0  0  0  0
  9 11  1  0  0  0  0
 10  9  2  0  0  0  0
 11 12  1  0  0  0  0
 12 14  1  0  0  0  0
 14 13  1  0  0  0  0
 15  4  1  6  0  0  0
 15 16  1  0  0  0  0
 16 18  1  0  0  0  0
 16 17  1  0  0  0  0
 19 16  1  0  0  0  0
 20 21  1  0  0  0  0
 20 15  1  0  0  0  0
 21 23  1  0  0  0  0
 22 21  2  0  0  0  0
M  END
>  <MODEL>
1

>  <REMARK>
 VINA RESULT:      -6.7      0.000      0.000
  Name = ZINC05835556
                            x       y       z     vdW  Elec       q    Type
                         _______ _______ _______ _____ _____    ______ ____

>  <TORSDO>
F 8

>  <vina_score>
-6.7

$$$$
ZINC06996143
 OpenBabel01081722453D

 21 22  0  0  1  0  0  0  0  0999 V2000
    9.9140   13.8300    0.5410 C   0  0  0  0  0  0  0  0  0  0  0  0
    8.9250   13.0080    0.3590 N   0  0  0  0  0  0  0  0  0  0  0  0
   13.8820   12.7100    4.4730 C   0  0  0  0  0  0  0  0  0  0  0  0
   12.8320   13.0050    3.4330 C   0  0  0  0  0  0  0  0  0  0  0  0
   11.6180   13.4290    3.8330 N   0  0  0  0  0  0  0  0  0  0  0  0
   10.6450   13.7130    2.9200 C   0  0  0  0  0  0  0  0  0  0  0  0
   10.9280   13.5440    1.5680 C   0  0  2  0  0  0  0  0  0  0  0  0
   12.2290   13.0940    1.2070 C   0  0  0  0  0  0  0  0  0  0  0  0
   12.5230   12.9370    0.0320 O   0  0  0  0  0  0  0  0  0  0  0  0
   13.1300   12.8440    2.1730 N   0  0  0  0  0  0  0  0  0  0  0  0
    9.4300   14.1430    3.3210 O   0  0  0  0  0  0  0  0  0  0  0  0
    9.2920   14.3940    4.2120 H   0  0  0  0  0  0  0  0  0  0  0  0
    7.9590   13.2810   -0.6190 N   0  0  0  0  0  0  0  0  0  0  0  0
    7.0060   13.3030   -0.3770 H   0  0  0  0  0  0  0  0  0  0  0  0
    8.3450   13.5180   -1.9180 C   0  0  2  0  0  0  0  0  0  0  0  0
    8.7450   12.5760   -2.7130 N   0  0  0  0  0  0  0  0  0  0  0  0
    8.8090   11.6220   -2.4750 H   0  0  0  0  0  0  0  0  0  0  0  0
    9.0900   13.1460   -4.0300 C   0  0  0  0  0  0  0  0  0  0  0  0
    8.8100   14.6530   -3.8690 C   0  0  0  0  0  0  0  0  0  0  0  0
    8.3400   14.7670   -2.4780 N   0  0  0  0  0  0  0  0  0  0  0  0
    8.0700   15.6000   -2.0270 H   0  0  0  0  0  0  0  0  0  0  0  0
  2  1  2  0  0  0  0
  4  5  1  0  0  0  0
  4  3  1  0  0  0  0
  6 11  1  0  0  0  0
  6  5  2  0  0  0  0
  7  1  1  6  0  0  0
  7  6  1  0  0  0  0
  8  7  1  0  0  0  0
  8 10  1  0  0  0  0
  9  8  2  0  0  0  0
 10  4  2  0  0  0  0
 11 12  1  0  0  0  0
 13 14  1  0  0  0  0
 13  2  1  0  0  0  0
 15 13  1  1  0  0  0
 16 17  1  0  0  0  0
 16 15  1  0  0  0  0
 18 19  2  0  0  0  0
 18 16  1  0  0  0  0
 19 20  1  0  0  0  0
 20 21  1  0  0  0  0
 20 15  1  0  0  0  0
M  END
>  <MODEL>
1

>  <REMARK>
 VINA RESULT:      -6.7      0.000      0.000
  Name = ZINC06996143
                            x       y       z     vdW  Elec       q    Type
                         _______ _______ _______ _____ _____    ______ ____

>  <TORSDO>
F 4

>  <vina_score>
-6.7

$$$$
ZINC27969144
 OpenBabel01081722473D

 27 28  0  0  0  0  0  0  0  0999 V2000
   11.2590   14.8660   -1.1930 S   0  0  0  0  0  0  0  0  0  0  0  0
   11.0980   14.3210   -2.4950 O   0  0  0  0  0  0  0  0  0  0  0  0
   12.3230   15.7480   -0.8620 O   0  0  0  0  0  0  0  0  0  0  0  0
   11.3740   13.5000   -0.0860 C   0  0  0  0  0  0  0  0  0  0  0  0
   12.3150   13.5070    0.9290 C   0  0  0  0  0  0  0  0  0  0  0  0
   12.4020   12.4370    1.7910 C   0  0  0  0  0  0  0  0  0  0  0  0
   11.5560   11.3430    1.6580 C   0  0  0  0  0  0  0  0  0  0  0  0
   11.8350   10.3940    2.6420 N   0  0  0  0  0  0  0  0  0  0  0  0
   11.3530    9.5400    2.7330 H   0  0  0  0  0  0  0  0  0  0  0  0
   12.8360   10.7800    3.4510 C   0  0  0  0  0  0  0  0  0  0  0  0
   13.2860   10.1540    4.3890 O   0  0  0  0  0  0  0  0  0  0  0  0
   10.6110   11.3430    0.6340 C   0  0  0  0  0  0  0  0  0  0  0  0
   13.2960   12.1410    2.9740 C   0  0  0  0  0  0  0  0  0  0  0  0
   10.5250   12.4170   -0.2300 C   0  0  0  0  0  0  0  0  0  0  0  0
    9.3460   12.4080   -1.5040 Cl  0  0  0  0  0  0  0  0  0  0  0  0
    9.8530   15.6670   -0.8370 N   0  0  0  0  0  0  0  0  0  0  0  0
    9.5450   16.1180   -1.6990 H   0  0  0  0  0  0  0  0  0  0  0  0
    9.8400   16.6950    0.2060 C   0  0  0  0  0  0  0  0  0  0  0  0
    8.9980   14.8110    1.5690 N   0  0  0  0  0  0  0  0  0  0  0  0
    8.8520   14.3120    0.7330 H   0  0  0  0  0  0  0  0  0  0  0  0
    9.5010   16.0610    1.5310 C   0  0  0  0  0  0  0  0  0  0  0  0
    9.6810   16.6740    2.5610 O   0  0  0  0  0  0  0  0  0  0  0  0
    8.6680   14.1940    2.8560 C   0  0  0  0  0  0  0  0  0  0  0  0
    8.1800   12.7860    2.6280 C   0  0  0  0  0  0  0  0  0  0  0  0
    7.4880   12.5340    1.6700 O   0  0  0  0  0  0  0  0  0  0  0  0
    9.4370   12.1610    4.5540 C   0  0  0  0  0  0  0  0  0  0  0  0
    8.5150   11.8120    3.4890 O   0  0  0  0  0  0  0  0  0  0  0  0
  1  3  2  0  0  0  0
  1 16  1  0  0  0  0
  1  4  1  0  0  0  0
  2  1  2  0  0  0  0
  4  5  1  0  0  0  0
  5  6  2  0  0  0  0
  6 13  1  0  0  0  0
  7  6  1  0  0  0  0
  7  8  1  0  0  0  0
  8  9  1  0  0  0  0
  8 10  1  0  0  0  0
 10 11  2  0  0  0  0
 12  7  2  0  0  0  0
 13 10  1  0  0  0  0
 14  4  2  0  0  0  0
 14 12  1  0  0  0  0
 15 14  1  0  0  0  0
 16 18  1  0  0  0  0
 17 16  1  0  0  0  0
 18 21  1  0  0  0  0
 19 23  1  0  0  0  0
 20 19  1  0  0  0  0
 21 19  1  0  0  0  0
 21 22  2  0  0  0  0
 24 23  1  0  0  0  0
 24 27  1  0  0  0  0
 25 24  2  0  0  0  0
 27 26  1  0  0  0  0
M  END
>  <MODEL>
1

>  <REMARK>
 VINA RESULT:      -6.7      0.000      0.000
  Name = ZINC27969144
                            x       y       z     vdW  Elec       q    Type
                         _______ _______ _______ _____ _____    ______ ____

>  <TORSDO>
F 7

>  <vina_score>
-6.7

$$$$
ZINC20190413
 OpenBabel01081722543D

 23 24  0  0  0  0  0  0  0  0999 V2000
    9.5470   13.5990    0.7530 C   0  0  0  0  0  0  0  0  0  0  0  0
    9.9850   13.1180   -0.4660 C   0  0  0  0  0  0  0  0  0  0  0  0
   10.5720   13.9760   -1.3760 C   0  0  0  0  0  0  0  0  0  0  0  0
   10.7220   15.3160   -1.0670 C   0  0  0  0  0  0  0  0  0  0  0  0
   10.2850   15.7980    0.1510 C   0  0  0  0  0  0  0  0  0  0  0  0
    9.6960   14.9390    1.0640 C   0  0  0  0  0  0  0  0  0  0  0  0
    9.2670   15.4100    2.2560 F   0  0  0  0  0  0  0  0  0  0  0  0
    8.7910   12.5060    1.9100 S   0  0  0  0  0  0  0  0  0  0  0  0
    9.0710   11.1850    1.4660 O   0  0  0  0  0  0  0  0  0  0  0  0
    7.4650   12.9770    2.1090 O   0  0  0  0  0  0  0  0  0  0  0  0
    9.5820   12.6970    3.3540 N   0  0  0  0  0  0  0  0  0  0  0  0
   13.4860   11.6300    3.6840 C   0  0  0  0  0  0  0  0  0  0  0  0
   13.1230   12.9620    3.5680 C   0  0  0  0  0  0  0  0  0  0  0  0
   11.8430   13.2760    3.4630 N   0  0  0  0  0  0  0  0  0  0  0  0
   10.9120   12.3330    3.4660 C   0  0  0  0  0  0  0  0  0  0  0  0
   11.2240   11.0510    3.5810 N   0  0  0  0  0  0  0  0  0  0  0  0
   12.4870   10.6690    3.6850 C   0  0  0  0  0  0  0  0  0  0  0  0
   11.0490   13.4520   -2.7060 C   0  0  0  0  0  0  0  0  0  0  0  0
    9.8430   13.0630   -3.5640 C   0  0  0  0  0  0  0  0  0  0  0  0
    9.1340   14.2760   -3.9900 N   0  0  0  0  0  0  0  0  0  0  0  0
    9.8110   14.9980   -4.2350 H   0  0  0  0  0  0  0  0  0  0  0  0
    8.5550   14.0640   -4.8030 H   0  0  0  0  0  0  0  0  0  0  0  0
    8.5420   14.6100   -3.2280 H   0  0  0  0  0  0  0  0  0  0  0  0
  1  6  1  0  0  0  0
  1  8  1  0  0  0  0
  2  1  2  0  0  0  0
  3  4  2  0  0  0  0
  3  2  1  0  0  0  0
  4  5  1  0  0  0  0
  5  6  2  0  0  0  0
  6  7  1  0  0  0  0
  8 10  2  0  0  0  0
  8 11  1  0  0  0  0
  9  8  2  0  0  0  0
 11 15  1  0  0  0  0
 12 17  1  0  0  0  0
 13 12  2  0  0  0  0
 14 15  2  0  0  0  0
 14 13  1  0  0  0  0
 15 16  1  0  0  0  0
 16 17  2  0  0  0  0
 18  3  1  0  0  0  0
 19 18  1  0  0  0  0
 20 19  1  0  0  0  0
 20 23  1  0  0  0  0
 21 20  1  0  0  0  0
 22 20  1  0  0  0  0
M  END
>  <MODEL>
1

>  <REMARK>
 VINA RESULT:      -6.7      0.000      0.000
  Name = ZINC20190413
                            x       y       z     vdW  Elec       q    Type
                         _______ _______ _______ _____ _____    ______ ____

>  <TORSDO>
F 6

>  <vina_score>
-6.7

$$$$
ZINC31345689
 OpenBabel01081722553D

 26 26  0  0  0  0  0  0  0  0999 V2000
    9.4250   13.8670   -1.2700 C   0  0  0  0  0  0  0  0  0  0  0  0
    9.3850   12.6040   -0.7940 C   0  0  0  0  0  0  0  0  0  0  0  0
    8.2520   11.8490   -0.8960 N   0  0  0  0  0  0  0  0  0  0  0  0
    8.2690   10.9330   -0.5330 H   0  0  0  0  0  0  0  0  0  0  0  0
    7.1180   12.2830   -1.4620 C   0  0  0  0  0  0  0  0  0  0  0  0
    7.0060   13.5200   -1.9840 N   0  0  0  0  0  0  0  0  0  0  0  0
    6.1630   13.8170   -2.3990 H   0  0  0  0  0  0  0  0  0  0  0  0
    6.1600   11.5350   -1.5070 O   0  0  0  0  0  0  0  0  0  0  0  0
    8.1700   14.4180   -1.9160 C   0  0  0  0  0  0  0  0  0  0  0  0
   10.5970   14.6520   -1.1640 C   0  0  0  0  0  0  0  0  0  0  0  0
   11.3600   14.7380   -2.1090 O   0  0  0  0  0  0  0  0  0  0  0  0
   10.8740   15.2990   -0.0130 O   0  0  0  0  0  0  0  0  0  0  0  0
    9.5920   15.8610    1.9570 C   0  0  0  0  0  0  0  0  0  0  0  0
    9.8720   16.1880    0.4890 C   0  0  0  0  0  0  0  0  0  0  0  0
   10.6090   12.0190   -0.1380 C   0  0  0  0  0  0  0  0  0  0  0  0
   10.6190   12.3770    1.2870 N   0  0  0  0  0  0  0  0  0  0  0  0
   10.3050   13.3440    1.3690 H   0  0  0  0  0  0  0  0  0  0  0  0
   11.9780   12.2960    1.8390 C   0  0  0  0  0  0  0  0  0  0  0  0
   12.2630   10.8600    2.2850 C   0  0  0  0  0  0  0  0  0  0  0  0
   12.0980   13.2360    3.0410 C   0  0  0  0  0  0  0  0  0  0  0  0
    9.6910   11.5330    2.0490 C   0  0  0  0  0  0  0  0  0  0  0  0
    8.6200   12.3940    2.6680 C   0  0  0  0  0  0  0  0  0  0  0  0
    8.7970   12.9100    3.8990 N   0  0  0  0  0  0  0  0  0  0  0  0
    8.0980   13.4730    4.3040 H   0  0  0  0  0  0  0  0  0  0  0  0
    9.6280   12.7250    4.3960 H   0  0  0  0  0  0  0  0  0  0  0  0
    7.5980   12.6220    2.0560 O   0  0  0  0  0  0  0  0  0  0  0  0
  1 10  1  0  0  0  0
  1  2  2  0  0  0  0
  2 15  1  0  0  0  0
  3  2  1  0  0  0  0
  3  4  1  0  0  0  0
  5  3  1  0  0  0  0
  6  9  1  0  0  0  0
  6  5  1  0  0  0  0
  7  6  1  0  0  0  0
  8  5  2  0  0  0  0
  9  1  1  0  0  0  0
 10 12  1  0  0  0  0
 11 10  2  0  0  0  0
 12 14  1  0  0  0  0
 14 13  1  0  0  0  0
 15 16  1  0  0  0  0
 16 17  1  0  0  0  0
 16 18  1  0  0  0  0
 16 21  1  0  0  0  0
 18 19  1  0  0  0  0
 18 20  1  0  0  0  0
 21 22  1  0  0  0  0
 22 23  1  0  0  0  0
 23 24  1  0  0  0  0
 23 25  1  0  0  0  0
 26 22  2  0  0  0  0
M  END
>  <MODEL>
1

>  <REMARK>
 VINA RESULT:      -6.7      0.000      0.000
  Name = ZINC31345689
                            x       y       z     vdW  Elec       q    Type
                         _______ _______ _______ _____ _____    ______ ____

>  <TORSDO>
F 8

>  <vina_score>
-6.7

$$$$
ZINC07699012
 OpenBabel01081722563D

 24 25  0  0  0  0  0  0  0  0999 V2000
    7.5400   11.0130   -0.8510 N   0  0  0  0  0  0  0  0  0  0  0  0
    8.3050   10.4160   -0.6850 H   0  0  0  0  0  0  0  0  0  0  0  0
    7.7360   12.2180   -1.4220 C   0  0  0  0  0  0  0  0  0  0  0  0
    8.9810   12.6060   -1.7650 N   0  0  0  0  0  0  0  0  0  0  0  0
    9.7460   12.0100   -1.5990 H   0  0  0  0  0  0  0  0  0  0  0  0
    9.1780   13.8110   -2.3360 C   0  0  0  0  0  0  0  0  0  0  0  0
    8.2350   14.5460   -2.5410 O   0  0  0  0  0  0  0  0  0  0  0  0
    6.7920   12.9550   -1.6280 O   0  0  0  0  0  0  0  0  0  0  0  0
    6.1880   10.5910   -0.4780 C   0  0  0  0  0  0  0  0  0  0  0  0
    6.1450   10.2800    1.0190 C   0  0  0  0  0  0  0  0  0  0  0  0
    7.9750   10.9740    2.4010 C   0  0  0  0  0  0  0  0  0  0  0  0
    6.7620   11.3450    1.7450 O   0  0  0  0  0  0  0  0  0  0  0  0
   10.5690   14.2450   -2.7190 C   0  0  0  0  0  0  0  0  0  0  0  0
   11.1850   15.4420   -1.5030 S   0  0  0  0  0  0  0  0  0  0  0  0
   11.1020   14.5750    0.0290 C   0  0  0  0  0  0  0  0  0  0  0  0
   10.1430   14.9220    0.9730 C   0  0  0  0  0  0  0  0  0  0  0  0
   10.0790   14.2450    2.1740 C   0  0  0  0  0  0  0  0  0  0  0  0
   10.9700   13.2160    2.4440 C   0  0  0  0  0  0  0  0  0  0  0  0
   11.9290   12.8650    1.5010 C   0  0  0  0  0  0  0  0  0  0  0  0
   12.8070   11.8540    1.7440 O   0  0  0  0  0  0  0  0  0  0  0  0
   12.9550   11.4430    3.1070 C   0  0  0  0  0  0  0  0  0  0  0  0
   11.5560   11.2970    3.7200 C   0  0  0  0  0  0  0  0  0  0  0  0
   10.8970   12.5650    3.6380 O   0  0  0  0  0  0  0  0  0  0  0  0
   11.9950   13.5460    0.2950 C   0  0  0  0  0  0  0  0  0  0  0  0
  1  2  1  0  0  0  0
  1  9  1  0  0  0  0
  3  1  1  0  0  0  0
  4  5  1  0  0  0  0
  4  3  1  0  0  0  0
  6  4  1  0  0  0  0
  7  6  2  0  0  0  0
  8  3  2  0  0  0  0
  9 10  1  0  0  0  0
 10 12  1  0  0  0  0
 12 11  1  0  0  0  0
 13  6  1  0  0  0  0
 13 14  1  0  0  0  0
 14 15  1  0  0  0  0
 15 24  2  0  0  0  0
 15 16  1  0  0  0  0
 16 17  2  0  0  0  0
 17 18  1  0  0  0  0
 18 23  1  0  0  0  0
 19 20  1  0  0  0  0
 19 18  2  0  0  0  0
 20 21  1  0  0  0  0
 21 22  1  0  0  0  0
 23 22  1  0  0  0  0
 24 19  1  0  0  0  0
M  END
>  <MODEL>
1

>  <REMARK>
 VINA RESULT:      -6.7      0.000      0.000
  Name = ZINC07699012
                            x       y       z     vdW  Elec       q    Type
                         _______ _______ _______ _____ _____    ______ ____

>  <TORSDO>
F 6

>  <vina_score>
-6.7

$$$$
ZINC05667259
 OpenBabel01081722333D

 26 27  0  0  1  0  0  0  0  0999 V2000
    9.4890   12.7630   -1.2120 C   0  0  2  0  0  0  0  0  0  0  0  0
    8.0950   12.5220   -0.6660 C   0  0  0  0  0  0  0  0  0  0  0  0
    7.9910   12.0670    0.6010 N   0  0  0  0  0  0  0  0  0  0  0  0
    7.0950   11.9030    0.9770 H   0  0  0  0  0  0  0  0  0  0  0  0
    9.0670   11.8310    1.3590 C   0  0  0  0  0  0  0  0  0  0  0  0
   10.3320   12.0190    0.9670 N   0  0  0  0  0  0  0  0  0  0  0  0
    8.8820   11.4230    2.4880 O   0  0  0  0  0  0  0  0  0  0  0  0
    7.1110   12.7310   -1.3420 O   0  0  0  0  0  0  0  0  0  0  0  0
   10.6400   12.4640   -0.2680 C   0  0  0  0  0  0  0  0  0  0  0  0
   11.7920   12.6250   -0.6110 O   0  0  0  0  0  0  0  0  0  0  0  0
   11.3720   11.7380    1.8670 C   0  0  0  0  0  0  0  0  0  0  0  0
   11.9730   12.7670    2.5780 C   0  0  0  0  0  0  0  0  0  0  0  0
   12.9930   12.4870    3.4670 C   0  0  0  0  0  0  0  0  0  0  0  0
   13.4220   11.1830    3.6410 C   0  0  0  0  0  0  0  0  0  0  0  0
   14.7080   10.8340    4.7540 Cl  0  0  0  0  0  0  0  0  0  0  0  0
   12.8260   10.1560    2.9300 C   0  0  0  0  0  0  0  0  0  0  0  0
   11.8030   10.4300    2.0440 C   0  0  0  0  0  0  0  0  0  0  0  0
   10.1110   14.5250   -2.7970 C   0  0  0  0  0  0  0  0  0  0  0  0
    9.5880   14.2090   -1.6280 C   0  0  0  0  0  0  0  0  0  0  0  0
    9.0980   15.1900   -0.7140 N   0  0  0  0  0  0  0  0  0  0  0  0
    8.1370   15.3350   -0.5590 H   0  0  0  0  0  0  0  0  0  0  0  0
   10.1600   15.9850   -0.0060 C   0  0  0  0  0  0  0  0  0  0  0  0
    9.5590   16.4550    1.3190 C   0  0  0  0  0  0  0  0  0  0  0  0
    9.6240   15.3180    2.3410 C   0  0  0  0  0  0  0  0  0  0  0  0
    8.3870   14.6030    2.3380 O   0  0  0  0  0  0  0  0  0  0  0  0
    7.8430   14.8960    3.0860 H   0  0  0  0  0  0  0  0  0  0  0  0
  1 19  1  1  0  0  0
  1  2  1  0  0  0  0
  1  9  1  0  0  0  0
  2  3  1  0  0  0  0
  3  4  1  0  0  0  0
  3  5  1  0  0  0  0
  5  7  2  0  0  0  0
  6  5  1  0  0  0  0
  6 11  1  0  0  0  0
  8  2  2  0  0  0  0
  9  6  1  0  0  0  0
 10  9  2  0  0  0  0
 11 17  2  0  0  0  0
 11 12  1  0  0  0  0
 12 13  2  0  0  0  0
 13 14  1  0  0  0  0
 14 15  1  0  0  0  0
 16 14  2  0  0  0  0
 17 16  1  0  0  0  0
 18 19  1  0  0  0  0
 19 20  2  0  0  0  0
 20 21  1  0  0  0  0
 20 22  1  0  0  0  0
 22 23  1  0  0  0  0
 23 24  1  0  0  0  0
 25 24  1  0  0  0  0
 25 26  1  0  0  0  0
M  END
>  <MODEL>
1

>  <REMARK>
 VINA RESULT:      -6.7      0.000      0.000
  Name = ZINC05667259
                            x       y       z     vdW  Elec       q    Type
                         _______ _______ _______ _____ _____    ______ ____

>  <TORSDO>
F 7

>  <vina_score>
-6.7

$$$$
ZINC13354670
 OpenBabel01081722343D

 27 28  0  0  1  0  0  0  0  0999 V2000
    7.8900   11.5510    0.6320 C   0  0  0  0  0  0  0  0  0  0  0  0
    8.9370   10.8690    1.1390 N   0  0  0  0  0  0  0  0  0  0  0  0
    9.5610   10.4050    0.5350 H   0  0  0  0  0  0  0  0  0  0  0  0
    7.1210   12.1220    1.3770 O   0  0  0  0  0  0  0  0  0  0  0  0
    7.6760   11.6040   -0.8580 C   0  0  0  0  0  0  0  0  0  0  0  0
   12.0570   13.2620   -1.0300 C   0  0  0  0  0  0  0  0  0  0  0  0
   12.1420   14.5030   -1.6450 C   0  0  0  0  0  0  0  0  0  0  0  0
   11.0130   15.1250   -2.1310 C   0  0  0  0  0  0  0  0  0  0  0  0
    9.7740   14.5050   -2.0070 C   0  0  0  0  0  0  0  0  0  0  0  0
    9.6930   13.2470   -1.3810 C   0  0  0  0  0  0  0  0  0  0  0  0
    8.2780   12.8720   -1.4080 C   0  0  0  0  0  0  0  0  0  0  0  0
    7.6190   13.8690   -2.0190 C   0  0  0  0  0  0  0  0  0  0  0  0
    8.4960   14.8560   -2.3780 N   0  0  0  0  0  0  0  0  0  0  0  0
    8.2500   15.6930   -2.8350 H   0  0  0  0  0  0  0  0  0  0  0  0
   10.8510   12.6340   -0.8950 C   0  0  0  0  0  0  0  0  0  0  0  0
    9.1440   10.8170    2.5880 C   0  0  0  0  0  0  0  0  0  0  0  0
   10.4850   11.4680    2.9350 C   0  0  0  0  0  0  0  0  0  0  0  0
   10.2390   12.8530    3.5360 C   0  0  0  0  0  0  0  0  0  0  0  0
   10.6090   13.9270    2.5110 C   0  0  0  0  0  0  0  0  0  0  0  0
    9.3360   14.6130    2.0100 C   0  0  1  0  0  0  0  0  0  0  0  0
    8.2300   14.4050    2.9630 N   0  0  0  0  0  0  0  0  0  0  0  0
    7.7840   15.3000    3.1640 H   0  0  0  0  0  0  0  0  0  0  0  0
    7.5460   13.7680    2.5560 H   0  0  0  0  0  0  0  0  0  0  0  0
    8.5960   14.0070    3.8270 H   0  0  0  0  0  0  0  0  0  0  0  0
    9.5850   16.0930    1.8650 C   0  0  0  0  0  0  0  0  0  0  0  0
    9.6770   16.6410    0.6440 O   0  0  0  0  0  0  0  0  0  0  0  0
    9.7090   16.7830    2.8490 O   0  0  0  0  0  0  0  0  0  0  0  0
  1  2  1  0  0  0  0
  1  4  2  0  0  0  0
  2 16  1  0  0  0  0
  3  2  1  0  0  0  0
  5  1  1  0  0  0  0
  6 15  1  0  0  0  0
  7  6  2  0  0  0  0
  8  9  2  0  0  0  0
  8  7  1  0  0  0  0
  9 10  1  0  0  0  0
 10 15  2  0  0  0  0
 11 10  1  0  0  0  0
 11  5  1  0  0  0  0
 12 11  2  0  0  0  0
 13 12  1  0  0  0  0
 13  9  1  0  0  0  0
 14 13  1  0  0  0  0
 16 17  1  0  0  0  0
 17 18  1  0  0  0  0
 19 18  1  0  0  0  0
 20 25  1  1  0  0  0
 20 19  1  0  0  0  0
 20 21  1  0  0  0  0
 21 22  1  0  0  0  0
 21 24  1  0  0  0  0
 23 21  1  0  0  0  0
 25 27  1  0  0  0  0
 26 25  2  0  0  0  0
M  END
>  <MODEL>
1

>  <REMARK>
 VINA RESULT:      -6.7      0.000      0.000
  Name = ZINC13354670
                            x       y       z     vdW  Elec       q    Type
                         _______ _______ _______ _____ _____    ______ ____

>  <TORSDO>
F 9

>  <vina_score>
-6.7

$$$$
ZINC01591785
 OpenBabel01081722373D

 24 24  0  0  1  0  0  0  0  0999 V2000
   10.3820   13.9160    1.3300 C   0  0  0  0  0  0  0  0  0  0  0  0
   10.1940   15.3080    0.7220 C   0  0  0  0  0  0  0  0  0  0  0  0
   10.1190   15.1930   -0.8010 C   0  0  0  0  0  0  0  0  0  0  0  0
    8.7250   15.3190   -1.2330 N   0  0  0  0  0  0  0  0  0  0  0  0
    8.1250   15.9560   -0.7800 H   0  0  0  0  0  0  0  0  0  0  0  0
    8.2530   14.5480   -2.2690 C   0  0  0  0  0  0  0  0  0  0  0  0
    7.2460   13.7290   -2.0010 N   0  0  0  0  0  0  0  0  0  0  0  0
    6.8690   13.6930   -1.0930 H   0  0  0  0  0  0  0  0  0  0  0  0
    6.8750   13.1570   -2.7110 H   0  0  0  0  0  0  0  0  0  0  0  0
    8.8250   14.6480   -3.5160 N   0  0  0  0  0  0  0  0  0  0  0  0
    9.7830   14.8590   -3.6020 H   0  0  0  0  0  0  0  0  0  0  0  0
    8.2760   14.5080   -4.3210 H   0  0  0  0  0  0  0  0  0  0  0  0
   10.0620   13.9660    2.8260 C   0  0  1  0  0  0  0  0  0  0  0  0
    8.8260   13.1490    3.1030 C   0  0  0  0  0  0  0  0  0  0  0  0
    8.7430   12.4160    4.2240 O   0  0  0  0  0  0  0  0  0  0  0  0
    7.9100   13.1550    2.3140 O   0  0  0  0  0  0  0  0  0  0  0  0
   11.1900   13.4180    3.5850 N   0  0  0  0  0  0  0  0  0  0  0  0
   12.1070   12.7380    2.9780 C   0  0  0  0  0  0  0  0  0  0  0  0
   13.2440   12.1870    3.7410 C   0  0  0  0  0  0  0  0  0  0  0  0
   13.4330   10.8050    3.8170 C   0  0  0  0  0  0  0  0  0  0  0  0
   14.5010   10.2970    4.5260 C   0  0  0  0  0  0  0  0  0  0  0  0
   15.3770   11.1510    5.1720 C   0  0  0  0  0  0  0  0  0  0  0  0
   15.1920   12.5210    5.1050 C   0  0  0  0  0  0  0  0  0  0  0  0
   14.1320   13.0430    4.3940 C   0  0  0  0  0  0  0  0  0  0  0  0
  2  1  1  0  0  0  0
  3  2  1  0  0  0  0
  4  3  1  0  0  0  0
  4  5  1  0  0  0  0
  6  7  1  0  0  0  0
  6  4  1  0  0  0  0
  7  8  1  0  0  0  0
  9  7  1  0  0  0  0
 10  6  2  0  0  0  0
 11 10  1  0  0  0  0
 12 10  1  0  0  0  0
 13  1  1  6  0  0  0
 13 14  1  0  0  0  0
 13 17  1  0  0  0  0
 14 15  1  0  0  0  0
 16 14  2  0  0  0  0
 18 17  2  0  0  0  0
 18 19  1  0  0  0  0
 19 20  2  0  0  0  0
 19 24  1  0  0  0  0
 20 21  1  0  0  0  0
 21 22  2  0  0  0  0
 23 22  1  0  0  0  0
 24 23  2  0  0  0  0
M  END
>  <MODEL>
1

>  <REMARK>
 VINA RESULT:      -6.7      0.000      0.000
  Name = ZINC01591785
                            x       y       z     vdW  Elec       q    Type
                         _______ _______ _______ _____ _____    ______ ____

>  <TORSDO>
F 9

>  <vina_score>
-6.7

$$$$
ZINC26540596
 OpenBabel01081722413D

 26 27  0  0  0  0  0  0  0  0999 V2000
    9.2220   12.8290    1.4790 C   0  0  0  0  0  0  0  0  0  0  0  0
    7.8910   12.5070    1.2600 C   0  0  0  0  0  0  0  0  0  0  0  0
    7.5290   11.1960    1.0130 C   0  0  0  0  0  0  0  0  0  0  0  0
    8.4890   10.2030    0.9890 C   0  0  0  0  0  0  0  0  0  0  0  0
    9.8190   10.5150    1.2000 C   0  0  0  0  0  0  0  0  0  0  0  0
   10.1920   11.8280    1.4490 C   0  0  0  0  0  0  0  0  0  0  0  0
    6.1080   10.8550    0.7800 N   0  0  0  0  0  0  0  0  0  0  0  0
    5.7050   10.6630   -0.3540 O   0  0  0  0  0  0  0  0  0  0  0  0
    5.3390   10.7710    1.7220 O   0  0  0  0  0  0  0  0  0  0  0  0
   11.5380   12.1460    1.6680 N   0  0  0  0  0  0  0  0  0  0  0  0
   12.0360   12.6650    0.9960 H   0  0  0  0  0  0  0  0  0  0  0  0
   12.2030   11.7060    2.8960 C   0  0  0  0  0  0  0  0  0  0  0  0
   12.6630   12.9290    3.6930 C   0  0  0  0  0  0  0  0  0  0  0  0
   11.5280   13.7220    4.0460 O   0  0  0  0  0  0  0  0  0  0  0  0
   11.0930   14.0390    3.2390 H   0  0  0  0  0  0  0  0  0  0  0  0
    9.5910   14.1570    1.7290 N   0  0  0  0  0  0  0  0  0  0  0  0
   10.2520   15.0740    0.5180 S   0  0  0  0  0  0  0  0  0  0  0  0
   11.6250   14.7190    0.4440 O   0  0  0  0  0  0  0  0  0  0  0  0
    9.8200   16.4090    0.7380 O   0  0  0  0  0  0  0  0  0  0  0  0
    9.3500   12.8140   -4.1510 C   0  0  0  0  0  0  0  0  0  0  0  0
    9.1720   13.6000   -2.9280 N   0  0  0  0  0  0  0  0  0  0  0  0
    8.0740   14.3100   -2.5840 C   0  0  0  0  0  0  0  0  0  0  0  0
    8.2860   14.8750   -1.4270 N   0  0  0  0  0  0  0  0  0  0  0  0
    9.5140   14.5490   -0.9940 C   0  0  0  0  0  0  0  0  0  0  0  0
   10.0860   13.7560   -1.9210 C   0  0  0  0  0  0  0  0  0  0  0  0
   11.6770   13.0620   -1.8510 Cl  0  0  0  0  0  0  0  0  0  0  0  0
  1 16  1  0  0  0  0
  2  1  2  0  0  0  0
  3  2  1  0  0  0  0
  4  3  2  0  0  0  0
  4  5  1  0  0  0  0
  5  6  2  0  0  0  0
  6  1  1  0  0  0  0
  6 10  1  0  0  0  0
  7  3  1  0  0  0  0
  7  9  2  0  0  0  0
  8  7  2  0  0  0  0
 10 12  1  0  0  0  0
 11 10  1  0  0  0  0
 12 13  1  0  0  0  0
 13 14  1  0  0  0  0
 15 14  1  0  0  0  0
 17 19  2  0  0  0  0
 17 16  1  0  0  0  0
 18 17  2  0  0  0  0
 20 21  1  0  0  0  0
 21 22  1  0  0  0  0
 21 25  1  0  0  0  0
 22 23  2  0  0  0  0
 23 24  1  0  0  0  0
 24 17  1  0  0  0  0
 25 26  1  0  0  0  0
 25 24  2  0  0  0  0
M  END
>  <MODEL>
1

>  <REMARK>
 VINA RESULT:      -6.7      0.000      0.000
  Name = ZINC26540596
                            x       y       z     vdW  Elec       q    Type
                         _______ _______ _______ _____ _____    ______ ____

>  <TORSDO>
F 8

>  <vina_score>
-6.7

$$$$
ZINC03978077
 OpenBabel01081722393D

 23 24  0  0  1  0  0  0  0  0999 V2000
    9.6500   13.0980    1.6470 C   0  0  2  0  0  0  0  0  0  0  0  0
    9.2280   13.6830    3.0190 C   0  0  2  0  0  0  0  0  0  0  0  0
    9.1240   12.4110    3.8950 C   0  0  1  0  0  0  0  0  0  0  0  0
    9.9800   11.3690    3.1500 C   0  0  2  0  0  0  0  0  0  0  0  0
   10.5460   12.0180    2.0000 O   0  0  0  0  0  0  0  0  0  0  0  0
    7.9640   14.3420    2.9240 O   0  0  0  0  0  0  0  0  0  0  0  0
    7.5440   14.1190    2.0790 H   0  0  0  0  0  0  0  0  0  0  0  0
    9.6560   12.6580    5.1980 O   0  0  0  0  0  0  0  0  0  0  0  0
    9.7370   13.6140    5.3390 H   0  0  0  0  0  0  0  0  0  0  0  0
   10.3820   14.1520    0.8130 C   0  0  0  0  0  0  0  0  0  0  0  0
    9.0030   13.9620   -1.1930 C   0  0  0  0  0  0  0  0  0  0  0  0
    8.8610   13.6970   -2.4670 N   0  0  0  0  0  0  0  0  0  0  0  0
    9.9120   13.3050   -3.2010 C   0  0  0  0  0  0  0  0  0  0  0  0
   11.1110   13.1860   -2.6460 N   0  0  0  0  0  0  0  0  0  0  0  0
   11.2760   13.4570   -1.3490 C   0  0  0  0  0  0  0  0  0  0  0  0
   12.3760   13.3480   -0.8340 O   0  0  0  0  0  0  0  0  0  0  0  0
   10.2170   13.8510   -0.6110 N   0  0  0  0  0  0  0  0  0  0  0  0
    9.7470   13.0260   -4.5340 N   0  0  0  0  0  0  0  0  0  0  0  0
    9.0820   13.5230   -5.0640 H   0  0  0  0  0  0  0  0  0  0  0  0
   10.2940   12.3280   -4.9620 H   0  0  0  0  0  0  0  0  0  0  0  0
    9.1020   10.1970    2.7050 C   0  0  0  0  0  0  0  0  0  0  0  0
    7.7790   10.3710    3.2160 O   0  0  0  0  0  0  0  0  0  0  0  0
    7.2640   10.9160    2.6000 H   0  0  0  0  0  0  0  0  0  0  0  0
  1 10  1  6  0  0  0
  1  5  1  0  0  0  0
  1  2  1  0  0  0  0
  2  6  1  6  0  0  0
  2  3  1  0  0  0  0
  3  8  1  1  0  0  0
  4 21  1  6  0  0  0
  4  3  1  0  0  0  0
  5  4  1  0  0  0  0
  7  6  1  0  0  0  0
  8  9  1  0  0  0  0
 11 17  1  0  0  0  0
 12 11  2  0  0  0  0
 13 14  2  0  0  0  0
 13 12  1  0  0  0  0
 14 15  1  0  0  0  0
 15 16  2  0  0  0  0
 15 17  1  0  0  0  0
 17 10  1  0  0  0  0
 18 13  1  0  0  0  0
 19 18  1  0  0  0  0
 20 18  1  0  0  0  0
 21 22  1  0  0  0  0
 23 22  1  0  0  0  0
M  END
>  <MODEL>
1

>  <REMARK>
 VINA RESULT:      -6.7      0.000      0.000
  Name = ZINC03978077
                            x       y       z     vdW  Elec       q    Type
                         _______ _______ _______ _____ _____    ______ ____

>  <TORSDO>
F 7

>  <vina_score>
-6.7

$$$$
ZINC20744634
 OpenBabel01081722403D

 28 30  0  0  0  0  0  0  0  0999 V2000
   13.7500   13.0720    4.0050 C   0  0  0  0  0  0  0  0  0  0  0  0
   12.5970   12.2480    3.6320 N   0  0  0  0  0  0  0  0  0  0  0  0
   11.3980   12.7110    3.1770 C   0  0  0  0  0  0  0  0  0  0  0  0
   10.5920   11.5790    2.9460 C   0  0  0  0  0  0  0  0  0  0  0  0
    9.2850   11.7760    2.4590 C   0  0  0  0  0  0  0  0  0  0  0  0
    8.8700   13.0180    2.2410 N   0  0  0  0  0  0  0  0  0  0  0  0
    9.6630   14.0570    2.4730 C   0  0  0  0  0  0  0  0  0  0  0  0
   11.3630   10.4460    3.2860 C   0  0  0  0  0  0  0  0  0  0  0  0
   10.8960   13.9200    2.9310 N   0  0  0  0  0  0  0  0  0  0  0  0
   12.5330   10.8500    3.6910 N   0  0  0  0  0  0  0  0  0  0  0  0
    8.4530   10.7010    2.2140 N   0  0  0  0  0  0  0  0  0  0  0  0
    8.7540    9.7880    2.4260 H   0  0  0  0  0  0  0  0  0  0  0  0
    7.1230   10.9190    1.6390 C   0  0  0  0  0  0  0  0  0  0  0  0
    7.1040   10.4170    0.1950 C   0  0  0  0  0  0  0  0  0  0  0  0
    7.3740   11.5840   -0.7560 C   0  0  0  0  0  0  0  0  0  0  0  0
    6.4520   11.5360   -1.8460 O   0  0  0  0  0  0  0  0  0  0  0  0
    5.5460   11.5020   -1.5010 H   0  0  0  0  0  0  0  0  0  0  0  0
    9.1810   15.3310    2.2300 N   0  0  0  0  0  0  0  0  0  0  0  0
    8.4050   15.6690    2.7330 H   0  0  0  0  0  0  0  0  0  0  0  0
    9.8260   16.1790    1.2240 C   0  0  0  0  0  0  0  0  0  0  0  0
   10.0250   15.3900   -0.0450 C   0  0  0  0  0  0  0  0  0  0  0  0
   11.2930   14.9740   -0.4050 C   0  0  0  0  0  0  0  0  0  0  0  0
   11.4770   14.2460   -1.5660 C   0  0  0  0  0  0  0  0  0  0  0  0
   10.3910   13.9430   -2.3730 C   0  0  0  0  0  0  0  0  0  0  0  0
    9.1210   14.3680   -2.0110 C   0  0  0  0  0  0  0  0  0  0  0  0
    8.9410   15.0900   -0.8480 C   0  0  0  0  0  0  0  0  0  0  0  0
   10.5710   13.2320   -3.5170 O   0  0  0  0  0  0  0  0  0  0  0  0
    9.3950   12.8050   -4.2070 C   0  0  0  0  0  0  0  0  0  0  0  0
  2 10  1  0  0  0  0
  2  1  1  0  0  0  0
  3  2  1  0  0  0  0
  4  3  2  0  0  0  0
  4  8  1  0  0  0  0
  5  4  1  0  0  0  0
  6  5  2  0  0  0  0
  6  7  1  0  0  0  0
  7  9  2  0  0  0  0
  8 10  2  0  0  0  0
  9  3  1  0  0  0  0
 11 12  1  0  0  0  0
 11  5  1  0  0  0  0
 13 11  1  0  0  0  0
 14 13  1  0  0  0  0
 15 14  1  0  0  0  0
 16 17  1  0  0  0  0
 16 15  1  0  0  0  0
 18  7  1  0  0  0  0
 18 19  1  0  0  0  0
 20 18  1  0  0  0  0
 21 20  1  0  0  0  0
 22 21  1  0  0  0  0
 23 22  2  0  0  0  0
 24 25  2  0  0  0  0
 24 23  1  0  0  0  0
 25 26  1  0  0  0  0
 26 21  2  0  0  0  0
 27 24  1  0  0  0  0
 28 27  1  0  0  0  0
M  END
>  <MODEL>
1

>  <REMARK>
 VINA RESULT:      -6.7      0.000      0.000
  Name = ZINC20744634
                            x       y       z     vdW  Elec       q    Type
                         _______ _______ _______ _____ _____    ______ ____

>  <TORSDO>
F 9

>  <vina_score>
-6.7

$$$$
ZINC05425837
 OpenBabel01081722423D

 23 24  0  0  0  0  0  0  0  0999 V2000
   10.0320   14.5110    1.8830 N   0  0  0  0  0  0  0  0  0  0  0  0
   10.4410   13.2790    2.0090 C   0  0  0  0  0  0  0  0  0  0  0  0
    9.8360   12.1440    1.2630 C   0  0  0  0  0  0  0  0  0  0  0  0
   10.5850   11.0200    1.1120 C   0  0  0  0  0  0  0  0  0  0  0  0
   11.8080   10.8860    1.6150 N   0  0  0  0  0  0  0  0  0  0  0  0
   12.3560   11.7180    2.4570 C   0  0  0  0  0  0  0  0  0  0  0  0
   11.5690   12.8810    2.9230 C   0  0  0  0  0  0  0  0  0  0  0  0
   11.8310   13.5110    4.0370 N   0  0  0  0  0  0  0  0  0  0  0  0
   11.2800   14.2800    4.3080 H   0  0  0  0  0  0  0  0  0  0  0  0
    9.3930   14.9470    0.6400 C   0  0  0  0  0  0  0  0  0  0  0  0
   10.4310   15.6220   -0.2580 C   0  0  0  0  0  0  0  0  0  0  0  0
    9.6430   13.0250   -3.5630 C   0  0  0  0  0  0  0  0  0  0  0  0
   11.0910   13.3070   -3.1550 C   0  0  0  0  0  0  0  0  0  0  0  0
   11.1200   13.8100   -1.7100 C   0  0  0  0  0  0  0  0  0  0  0  0
   10.3260   15.0540   -1.6180 N   0  0  0  0  0  0  0  0  0  0  0  0
   10.6910   15.7290   -2.2890 H   0  0  0  0  0  0  0  0  0  0  0  0
    8.9090   14.7760   -1.9400 C   0  0  0  0  0  0  0  0  0  0  0  0
    8.8140   14.3030   -3.3930 C   0  0  0  0  0  0  0  0  0  0  0  0
    8.5520   12.2300    0.7380 N   0  0  0  0  0  0  0  0  0  0  0  0
    7.5070   12.7890    1.5130 O   0  0  0  0  0  0  0  0  0  0  0  0
    6.7300   12.2090    1.4760 H   0  0  0  0  0  0  0  0  0  0  0  0
    8.2880   11.7570   -0.5690 O   0  0  0  0  0  0  0  0  0  0  0  0
    7.9330   12.4800   -1.1100 H   0  0  0  0  0  0  0  0  0  0  0  0
  1  2  1  0  0  0  0
  2  7  2  0  0  0  0
  3  2  1  0  0  0  0
  4  3  2  0  0  0  0
  4  5  1  0  0  0  0
  5  6  2  0  0  0  0
  6  7  1  0  0  0  0
  7  8  1  0  0  0  0
  8  9  1  0  0  0  0
 10  1  1  0  0  0  0
 11 10  1  0  0  0  0
 12 18  1  0  0  0  0
 12 13  1  0  0  0  0
 13 14  1  0  0  0  0
 14 15  1  0  0  0  0
 15 11  1  0  0  0  0
 16 15  1  0  0  0  0
 17 15  1  0  0  0  0
 18 17  1  0  0  0  0
 19  3  1  0  0  0  0
 19 20  1  0  0  0  0
 21 20  1  0  0  0  0
 22 19  1  0  0  0  0
 23 22  1  0  0  0  0
M  END
>  <MODEL>
1

>  <REMARK>
 VINA RESULT:      -6.6      0.000      0.000
  Name = ZINC05425837
                            x       y       z     vdW  Elec       q    Type
                         _______ _______ _______ _____ _____    ______ ____

>  <TORSDO>
F 6

>  <vina_score>
-6.6

$$$$
ZINC06368275
 OpenBabel01081722443D

 26 27  0  0  0  0  0  0  0  0999 V2000
   11.0540   13.2500    1.9790 C   0  0  0  0  0  0  0  0  0  0  0  0
   11.0400   14.1700    0.9380 C   0  0  0  0  0  0  0  0  0  0  0  0
   10.1120   15.2400    0.9610 C   0  0  0  0  0  0  0  0  0  0  0  0
   10.0890   16.2510   -0.1560 C   0  0  0  0  0  0  0  0  0  0  0  0
   10.5360   15.5790   -1.4570 C   0  0  0  0  0  0  0  0  0  0  0  0
   11.9480   15.0170   -1.2740 C   0  0  0  0  0  0  0  0  0  0  0  0
    9.3350   15.3460    1.8870 O   0  0  0  0  0  0  0  0  0  0  0  0
   11.9480   14.0250   -0.1390 C   0  0  0  0  0  0  0  0  0  0  0  0
   12.7330   13.0990   -0.1470 O   0  0  0  0  0  0  0  0  0  0  0  0
   11.8330   12.1550    1.8980 N   0  0  0  0  0  0  0  0  0  0  0  0
   11.7310   11.5340    1.1410 H   0  0  0  0  0  0  0  0  0  0  0  0
   12.7870   11.9000    2.8890 C   0  0  0  0  0  0  0  0  0  0  0  0
   13.4360   12.9560    3.5160 C   0  0  0  0  0  0  0  0  0  0  0  0
   14.3770   12.7050    4.4950 C   0  0  0  0  0  0  0  0  0  0  0  0
   14.6730   11.3960    4.8540 C   0  0  0  0  0  0  0  0  0  0  0  0
   14.0220   10.3400    4.2270 C   0  0  0  0  0  0  0  0  0  0  0  0
   13.0820   10.5910    3.2490 C   0  0  0  0  0  0  0  0  0  0  0  0
   15.6250   11.1420    5.8460 N   0  0  0  0  0  0  0  0  0  0  0  0
   16.5770   11.0600    5.6050 H   0  0  0  0  0  0  0  0  0  0  0  0
   15.3450   11.0440    6.7840 H   0  0  0  0  0  0  0  0  0  0  0  0
   10.1980   13.4770    3.1980 C   0  0  0  0  0  0  0  0  0  0  0  0
    9.2770   12.2740    3.4060 C   0  0  0  0  0  0  0  0  0  0  0  0
    8.3940   12.1020    2.1970 C   0  0  0  0  0  0  0  0  0  0  0  0
    7.3900   12.7660    2.0830 O   0  0  0  0  0  0  0  0  0  0  0  0
    8.4970   11.6050   -0.1310 C   0  0  0  0  0  0  0  0  0  0  0  0
    8.7210   11.2100    1.2490 O   0  0  0  0  0  0  0  0  0  0  0  0
  1 21  1  0  0  0  0
  2  3  1  0  0  0  0
  2  1  1  0  0  0  0
  3  7  2  0  0  0  0
  4  3  1  0  0  0  0
  5  6  1  0  0  0  0
  5  4  1  0  0  0  0
  6  8  1  0  0  0  0
  8  2  1  0  0  0  0
  9  8  2  0  0  0  0
 10  1  2  0  0  0  0
 10 12  1  0  0  0  0
 11 10  1  0  0  0  0
 12 17  2  0  0  0  0
 12 13  1  0  0  0  0
 13 14  2  0  0  0  0
 14 15  1  0  0  0  0
 15 18  1  0  0  0  0
 16 15  2  0  0  0  0
 17 16  1  0  0  0  0
 18 20  1  0  0  0  0
 19 18  1  0  0  0  0
 21 22  1  0  0  0  0
 23 22  1  0  0  0  0
 24 23  2  0  0  0  0
 25 26  1  0  0  0  0
 26 23  1  0  0  0  0
M  END
>  <MODEL>
1

>  <REMARK>
 VINA RESULT:      -6.6      0.000      0.000
  Name = ZINC06368275
                            x       y       z     vdW  Elec       q    Type
                         _______ _______ _______ _____ _____    ______ ____

>  <TORSDO>
F 7

>  <vina_score>
-6.6

$$$$
ZINC31687708
 OpenBabel01081722413D

 24 24  0  0  0  0  0  0  0  0999 V2000
    8.0890   13.6320   -0.4750 N   0  0  0  0  0  0  0  0  0  0  0  0
    7.7170   14.5400   -0.5550 H   0  0  0  0  0  0  0  0  0  0  0  0
   10.0860   15.0760    0.8450 C   0  0  0  0  0  0  0  0  0  0  0  0
    9.4970   13.8600    1.4100 N   0  0  0  0  0  0  0  0  0  0  0  0
    8.5120   13.1830    0.7160 C   0  0  0  0  0  0  0  0  0  0  0  0
    7.9660   12.0320    1.2700 C   0  0  0  0  0  0  0  0  0  0  0  0
    8.4320   11.5960    2.5130 C   0  0  0  0  0  0  0  0  0  0  0  0
    9.3940   12.2920    3.1490 N   0  0  0  0  0  0  0  0  0  0  0  0
    9.8780   11.8290    4.4530 C   0  0  0  0  0  0  0  0  0  0  0  0
    7.9690   10.5880    3.0220 O   0  0  0  0  0  0  0  0  0  0  0  0
    9.9120   13.4070    2.6080 C   0  0  0  0  0  0  0  0  0  0  0  0
   10.7770   14.0160    3.2080 O   0  0  0  0  0  0  0  0  0  0  0  0
    8.1730   12.8510   -1.5460 C   0  0  0  0  0  0  0  0  0  0  0  0
    7.0540   12.2120   -2.0190 N   0  0  0  0  0  0  0  0  0  0  0  0
    7.1160   11.6330   -2.8130 H   0  0  0  0  0  0  0  0  0  0  0  0
    6.1890   12.3330   -1.5650 H   0  0  0  0  0  0  0  0  0  0  0  0
    9.3500   12.6870   -2.1650 N   0  0  0  0  0  0  0  0  0  0  0  0
    9.7110   13.5160   -3.1320 C   0  0  0  0  0  0  0  0  0  0  0  0
   10.8560   13.2830   -3.8370 N   0  0  0  0  0  0  0  0  0  0  0  0
   11.6930   13.0770   -3.3620 H   0  0  0  0  0  0  0  0  0  0  0  0
   10.8450   13.3240   -4.8210 H   0  0  0  0  0  0  0  0  0  0  0  0
    8.9390   14.6020   -3.4240 N   0  0  0  0  0  0  0  0  0  0  0  0
    9.3270   15.5050   -3.3900 H   0  0  0  0  0  0  0  0  0  0  0  0
    7.9920   14.4820   -3.6690 H   0  0  0  0  0  0  0  0  0  0  0  0
  1  5  1  0  0  0  0
  2  1  1  0  0  0  0
  3  4  1  0  0  0  0
  4 11  1  0  0  0  0
  5  6  2  0  0  0  0
  5  4  1  0  0  0  0
  6  7  1  0  0  0  0
  7 10  2  0  0  0  0
  7  8  1  0  0  0  0
  8  9  1  0  0  0  0
 11  8  1  0  0  0  0
 11 12  2  0  0  0  0
 13  1  1  0  0  0  0
 14 16  1  0  0  0  0
 14 13  1  0  0  0  0
 15 14  1  0  0  0  0
 17 13  2  0  0  0  0
 18 17  2  0  0  0  0
 19 20  1  0  0  0  0
 19 18  1  0  0  0  0
 21 19  1  0  0  0  0
 22 23  1  0  0  0  0
 22 18  1  0  0  0  0
 24 22  1  0  0  0  0
M  END
>  <MODEL>
1

>  <REMARK>
 VINA RESULT:      -6.6      0.000      0.000
  Name = ZINC31687708
                            x       y       z     vdW  Elec       q    Type
                         _______ _______ _______ _____ _____    ______ ____

>  <TORSDO>
F 5

>  <vina_score>
-6.6

$$$$
ZINC05679876
 OpenBabel01081722463D

 28 30  0  0  0  0  0  0  0  0999 V2000
   11.0790   14.6570    0.2440 N   0  0  0  0  0  0  0  0  0  0  0  0
   11.7590   15.1180    0.8490 H   0  0  0  0  0  0  0  0  0  0  0  0
   11.5620   13.3050   -0.0950 C   0  0  0  0  0  0  0  0  0  0  0  0
   11.9470   12.6320    1.1480 N   0  0  0  0  0  0  0  0  0  0  0  0
   12.8290   12.2190    1.2940 H   0  0  0  0  0  0  0  0  0  0  0  0
   10.9490   12.6400    2.0840 C   0  0  0  0  0  0  0  0  0  0  0  0
   11.0030   11.7190    3.1100 N   0  0  0  0  0  0  0  0  0  0  0  0
   10.0560   11.6990    4.0630 C   0  0  0  0  0  0  0  0  0  0  0  0
   10.1250   10.8790    4.9580 O   0  0  0  0  0  0  0  0  0  0  0  0
    9.0330   12.5720    4.0410 N   0  0  0  0  0  0  0  0  0  0  0  0
    8.3510   12.5440    4.7500 H   0  0  0  0  0  0  0  0  0  0  0  0
    8.9370   13.4840    3.0540 C   0  0  0  0  0  0  0  0  0  0  0  0
    8.0060   14.2700    3.0360 O   0  0  0  0  0  0  0  0  0  0  0  0
    9.9160   13.5250    2.0450 C   0  0  0  0  0  0  0  0  0  0  0  0
    9.7900   14.5500    0.9480 C   0  0  0  0  0  0  0  0  0  0  0  0
   10.9210   15.4660   -0.9880 C   0  0  0  0  0  0  0  0  0  0  0  0
   10.5260   14.5450   -2.1440 C   0  0  0  0  0  0  0  0  0  0  0  0
    9.0730   14.8190   -2.5400 C   0  0  0  0  0  0  0  0  0  0  0  0
    9.3570   12.8460   -3.9140 C   0  0  0  0  0  0  0  0  0  0  0  0
    8.4530   13.5520   -2.9810 N   0  0  0  0  0  0  0  0  0  0  0  0
    7.5780   13.7600   -3.4620 H   0  0  0  0  0  0  0  0  0  0  0  0
    8.1660   12.6960   -1.8110 C   0  0  0  0  0  0  0  0  0  0  0  0
   12.1030   10.7530    3.1590 C   0  0  0  0  0  0  0  0  0  0  0  0
   13.2770   11.3640    3.8810 C   0  0  0  0  0  0  0  0  0  0  0  0
   14.2720   10.6860    4.4790 C   0  0  0  0  0  0  0  0  0  0  0  0
   15.1530   11.6480    5.0240 C   0  0  0  0  0  0  0  0  0  0  0  0
   14.6400   12.8570    4.7330 C   0  0  0  0  0  0  0  0  0  0  0  0
   13.5020   12.6790    4.0410 O   0  0  0  0  0  0  0  0  0  0  0  0
  1  2  1  0  0  0  0
  1 15  1  0  0  0  0
  3  1  1  0  0  0  0
  3  4  1  0  0  0  0
  4  5  1  0  0  0  0
  4  6  1  0  0  0  0
  6  7  1  0  0  0  0
  7 23  1  0  0  0  0
  7  8  1  0  0  0  0
  8  9  2  0  0  0  0
 10  8  1  0  0  0  0
 10 11  1  0  0  0  0
 12 10  1  0  0  0  0
 13 12  2  0  0  0  0
 14  6  2  0  0  0  0
 14 12  1  0  0  0  0
 15 14  1  0  0  0  0
 16  1  1  0  0  0  0
 17 16  1  0  0  0  0
 18 17  1  0  0  0  0
 19 20  1  0  0  0  0
 20 18  1  0  0  0  0
 20 22  1  0  0  0  0
 21 20  1  0  0  0  0
 23 24  1  0  0  0  0
 24 28  1  0  0  0  0
 24 25  2  0  0  0  0
 25 26  1  0  0  0  0
 27 26  2  0  0  0  0
 28 27  1  0  0  0  0
M  END
>  <MODEL>
1

>  <REMARK>
 VINA RESULT:      -6.6      0.000      0.000
  Name = ZINC05679876
                            x       y       z     vdW  Elec       q    Type
                         _______ _______ _______ _____ _____    ______ ____

>  <TORSDO>
F 6

>  <vina_score>
-6.6

$$$$
ZINC12483756
 OpenBabel01081722503D

 29 31  0  0  1  0  0  0  0  0999 V2000
    8.8950   11.6670    2.8610 C   0  0  2  0  0  0  0  0  0  0  0  0
    8.9680   12.9730    3.6590 C   0  0  2  0  0  0  0  0  0  0  0  0
    9.8190   13.9890    2.8910 C   0  0  1  0  0  0  0  0  0  0  0  0
   11.1600   13.3310    2.5290 C   0  0  1  0  0  0  0  0  0  0  0  0
   11.6740   12.5890    3.7850 C   0  0  0  0  0  0  0  0  0  0  0  0
   11.1270   11.2630    3.6820 O   0  0  0  0  0  0  0  0  0  0  0  0
   10.8700   12.2430    1.6170 O   0  0  0  0  0  0  0  0  0  0  0  0
   10.3210   11.2330    2.4900 C   0  0  2  0  0  0  0  0  0  0  0  0
    8.1100   11.8910    1.6330 N   0  0  0  0  0  0  0  0  0  0  0  0
    8.7010   12.3510    0.9400 H   0  0  0  0  0  0  0  0  0  0  0  0
    7.3050   12.4780    1.8500 H   0  0  0  0  0  0  0  0  0  0  0  0
    7.6390   10.6050    1.0840 C   0  0  0  0  0  0  0  0  0  0  0  0
    6.3500   10.1960    1.8000 C   0  0  0  0  0  0  0  0  0  0  0  0
    5.5370   10.2860   -0.4530 C   0  0  0  0  0  0  0  0  0  0  0  0
    5.2340   10.4240    0.9370 O   0  0  0  0  0  0  0  0  0  0  0  0
    9.1120   14.3840    1.6580 N   0  0  0  0  0  0  0  0  0  0  0  0
    9.0470   13.5750    1.0380 H   0  0  0  0  0  0  0  0  0  0  0  0
    8.1770   14.7160    1.8970 H   0  0  0  0  0  0  0  0  0  0  0  0
    9.8470   15.4600    0.9660 C   0  0  0  0  0  0  0  0  0  0  0  0
   10.2410   14.9850   -0.4080 C   0  0  0  0  0  0  0  0  0  0  0  0
   11.3900   15.2800   -1.0430 C   0  0  0  0  0  0  0  0  0  0  0  0
   11.3440   14.6270   -2.2960 C   0  0  0  0  0  0  0  0  0  0  0  0
   10.1670   13.9780   -2.3550 C   0  0  0  0  0  0  0  0  0  0  0  0
    9.5040   14.1980   -1.2090 O   0  0  0  0  0  0  0  0  0  0  0  0
    9.6770   13.1450   -3.5120 C   0  0  0  0  0  0  0  0  0  0  0  0
    8.4530   12.5020   -3.1510 O   0  0  0  0  0  0  0  0  0  0  0  0
    8.5690   11.5390   -3.1990 H   0  0  0  0  0  0  0  0  0  0  0  0
    9.5630   12.7200    4.9340 O   0  0  0  0  0  0  0  0  0  0  0  0
    8.9710   13.0330    5.6350 H   0  0  0  0  0  0  0  0  0  0  0  0
  1  9  1  6  0  0  0
  1  2  1  0  0  0  0
  2 28  1  1  0  0  0
  3 16  1  6  0  0  0
  3  2  1  0  0  0  0
  4  7  1  6  0  0  0
  4  3  1  0  0  0  0
  4  5  1  0  0  0  0
  6  5  1  0  0  0  0
  8  7  1  6  0  0  0
  8  1  1  0  0  0  0
  8  6  1  0  0  0  0
  9 11  1  0  0  0  0
 10  9  1  0  0  0  0
 12  9  1  0  0  0  0
 12 13  1  0  0  0  0
 14 15  1  0  0  0  0
 15 13  1  0  0  0  0
 16 18  1  0  0  0  0
 17 16  1  0  0  0  0
 19 16  1  0  0  0  0
 20 19  1  0  0  0  0
 21 20  2  0  0  0  0
 22 21  1  0  0  0  0
 23 22  2  0  0  0  0
 23 24  1  0  0  0  0
 24 20  1  0  0  0  0
 25 26  1  0  0  0  0
 25 23  1  0  0  0  0
 27 26  1  0  0  0  0
 28 29  1  0  0  0  0
M  END
>  <MODEL>
1

>  <REMARK>
 VINA RESULT:      -6.6      0.000      0.000
  Name = ZINC12483756
                            x       y       z     vdW  Elec       q    Type
                         _______ _______ _______ _____ _____    ______ ____

>  <TORSDO>
F 10

>  <vina_score>
-6.6

$$$$
ZINC24331310
 OpenBabel01081722323D

 25 25  0  0  0  0  0  0  0  0999 V2000
    8.1170   12.6320    2.2760 C   0  0  0  0  0  0  0  0  0  0  0  0
    8.1260   13.7920    2.6120 O   0  0  0  0  0  0  0  0  0  0  0  0
    8.8980   11.6130    3.0640 C   0  0  0  0  0  0  0  0  0  0  0  0
    9.8360   12.3300    4.0370 C   0  0  0  0  0  0  0  0  0  0  0  0
   11.2390   12.4050    3.4330 C   0  0  0  0  0  0  0  0  0  0  0  0
   11.4940   13.0740    1.1030 C   0  0  0  0  0  0  0  0  0  0  0  0
   11.2650   13.4280    2.3830 N   0  0  0  0  0  0  0  0  0  0  0  0
   11.1160   14.3730    2.6140 H   0  0  0  0  0  0  0  0  0  0  0  0
   11.6780   11.9040    0.8190 O   0  0  0  0  0  0  0  0  0  0  0  0
   12.0660   15.2940   -1.7380 C   0  0  0  0  0  0  0  0  0  0  0  0
   12.4100   14.1630   -0.9800 C   0  0  0  0  0  0  0  0  0  0  0  0
   11.5200   14.0960    0.0530 C   0  0  0  0  0  0  0  0  0  0  0  0
   10.6650   15.1330   -0.0660 O   0  0  0  0  0  0  0  0  0  0  0  0
   10.9940   15.8600   -1.1410 C   0  0  0  0  0  0  0  0  0  0  0  0
    7.4100   12.2510    1.2000 O   0  0  0  0  0  0  0  0  0  0  0  0
    8.1470   11.6410    0.1080 C   0  0  0  0  0  0  0  0  0  0  0  0
    8.2370   12.6110   -1.0410 C   0  0  0  0  0  0  0  0  0  0  0  0
    9.1640   12.4320   -2.0040 N   0  0  0  0  0  0  0  0  0  0  0  0
    9.7810   11.6660   -1.9560 H   0  0  0  0  0  0  0  0  0  0  0  0
    9.2440   13.2980   -3.0320 C   0  0  0  0  0  0  0  0  0  0  0  0
   10.1710   13.1190   -3.9940 N   0  0  0  0  0  0  0  0  0  0  0  0
   10.2290   13.7530   -4.7450 H   0  0  0  0  0  0  0  0  0  0  0  0
   10.7890   12.3550   -3.9460 H   0  0  0  0  0  0  0  0  0  0  0  0
    8.4810   14.2430   -3.0910 O   0  0  0  0  0  0  0  0  0  0  0  0
    7.4760   13.5530   -1.1010 O   0  0  0  0  0  0  0  0  0  0  0  0
  1  2  2  0  0  0  0
  1  3  1  0  0  0  0
  3  4  1  0  0  0  0
  5  4  1  0  0  0  0
  6  7  1  0  0  0  0
  7  8  1  0  0  0  0
  7  5  1  0  0  0  0
  9  6  2  0  0  0  0
 10 14  2  0  0  0  0
 10 11  1  0  0  0  0
 11 12  2  0  0  0  0
 12  6  1  0  0  0  0
 13 12  1  0  0  0  0
 14 13  1  0  0  0  0
 15  1  1  0  0  0  0
 16 15  1  0  0  0  0
 17 16  1  0  0  0  0
 18 19  1  0  0  0  0
 18 17  1  0  0  0  0
 20 18  1  0  0  0  0
 21 23  1  0  0  0  0
 21 20  1  0  0  0  0
 22 21  1  0  0  0  0
 24 20  2  0  0  0  0
 25 17  2  0  0  0  0
M  END
>  <MODEL>
1

>  <REMARK>
 VINA RESULT:      -6.6      0.000      0.000
  Name = ZINC24331310
                            x       y       z     vdW  Elec       q    Type
                         _______ _______ _______ _____ _____    ______ ____

>  <TORSDO>
F 8

>  <vina_score>
-6.6

$$$$
ZINC04642048
 OpenBabel01081722533D

 29 30  0  0  1  0  0  0  0  0999 V2000
    9.7610   12.7570    1.5020 C   0  0  2  0  0  0  0  0  0  0  0  0
    8.7890   12.5130    2.6410 C   0  0  0  0  0  0  0  0  0  0  0  0
    9.1460   11.6150    3.5840 N   0  0  0  0  0  0  0  0  0  0  0  0
    8.5330   11.4420    4.3350 H   0  0  0  0  0  0  0  0  0  0  0  0
   10.3080   10.9540    3.5290 C   0  0  0  0  0  0  0  0  0  0  0  0
   11.2290   11.1070    2.5700 N   0  0  0  0  0  0  0  0  0  0  0  0
   10.5470   10.1610    4.4170 O   0  0  0  0  0  0  0  0  0  0  0  0
    7.7300   13.1010    2.7010 O   0  0  0  0  0  0  0  0  0  0  0  0
   11.0520   11.9610    1.5400 C   0  0  0  0  0  0  0  0  0  0  0  0
   11.8930   12.0860    0.6750 O   0  0  0  0  0  0  0  0  0  0  0  0
   10.1150   14.2220    1.4950 C   0  0  0  0  0  0  0  0  0  0  0  0
    9.7300   15.0000    2.4890 C   0  0  0  0  0  0  0  0  0  0  0  0
   10.8670   14.7110    0.3850 N   0  0  0  0  0  0  0  0  0  0  0  0
   11.8240   14.5140    0.2660 H   0  0  0  0  0  0  0  0  0  0  0  0
   10.0880   15.5520   -0.5890 C   0  0  0  0  0  0  0  0  0  0  0  0
   10.6450   15.2540   -1.9830 C   0  0  0  0  0  0  0  0  0  0  0  0
    9.5790   14.6370   -2.8010 N   0  0  0  0  0  0  0  0  0  0  0  0
    9.4090   15.2220   -3.6190 H   0  0  0  0  0  0  0  0  0  0  0  0
   11.4760   13.0560   -2.9170 C   0  0  0  0  0  0  0  0  0  0  0  0
   10.0010   13.2940   -3.2510 C   0  0  0  0  0  0  0  0  0  0  0  0
    8.3320   14.5370   -2.0140 C   0  0  0  0  0  0  0  0  0  0  0  0
    7.9200   13.0660   -1.9300 C   0  0  0  0  0  0  0  0  0  0  0  0
   12.4630   10.3210    2.6370 C   0  0  0  0  0  0  0  0  0  0  0  0
   13.4410   11.0000    3.5620 C   0  0  0  0  0  0  0  0  0  0  0  0
   14.3240   10.2430    4.3090 C   0  0  0  0  0  0  0  0  0  0  0  0
   15.2220   10.8650    5.1570 C   0  0  0  0  0  0  0  0  0  0  0  0
   15.2310   12.2430    5.2620 C   0  0  0  0  0  0  0  0  0  0  0  0
   14.3500   12.9990    4.5120 C   0  0  0  0  0  0  0  0  0  0  0  0
   13.4550   12.3770    3.6630 C   0  0  0  0  0  0  0  0  0  0  0  0
  1 11  1  1  0  0  0
  1  9  1  0  0  0  0
  1  2  1  0  0  0  0
  2  8  2  0  0  0  0
  2  3  1  0  0  0  0
  3  4  1  0  0  0  0
  5  3  1  0  0  0  0
  5  7  2  0  0  0  0
  6 23  1  0  0  0  0
  6  5  1  0  0  0  0
  9  6  1  0  0  0  0
 10  9  2  0  0  0  0
 11 12  1  0  0  0  0
 13 11  2  0  0  0  0
 14 13  1  0  0  0  0
 15 13  1  0  0  0  0
 16 15  1  0  0  0  0
 17 21  1  0  0  0  0
 17 16  1  0  0  0  0
 18 17  1  0  0  0  0
 20 19  1  0  0  0  0
 20 17  1  0  0  0  0
 21 22  1  0  0  0  0
 23 24  1  0  0  0  0
 24 29  2  0  0  0  0
 24 25  1  0  0  0  0
 25 26  2  0  0  0  0
 26 27  1  0  0  0  0
 28 27  2  0  0  0  0
 29 28  1  0  0  0  0
M  END
>  <MODEL>
1

>  <REMARK>
 VINA RESULT:      -6.6      0.000      0.000
  Name = ZINC04642048
                            x       y       z     vdW  Elec       q    Type
                         _______ _______ _______ _____ _____    ______ ____

>  <TORSDO>
F 9

>  <vina_score>
-6.6

$$$$
ZINC06413685
 OpenBabel01081722523D

 23 24  0  0  0  0  0  0  0  0999 V2000
    8.4920   14.2790    2.9250 C   0  0  0  0  0  0  0  0  0  0  0  0
    9.4780   13.1970    2.8700 N   0  0  0  0  0  0  0  0  0  0  0  0
   10.4330   13.1820    1.8670 C   0  0  0  0  0  0  0  0  0  0  0  0
   11.3570   12.1420    1.8380 C   0  0  0  0  0  0  0  0  0  0  0  0
   12.1810   12.3800    0.7450 N   0  0  0  0  0  0  0  0  0  0  0  0
   11.7370   13.5280    0.1650 C   0  0  0  0  0  0  0  0  0  0  0  0
   11.2950   11.1400    2.8220 C   0  0  0  0  0  0  0  0  0  0  0  0
   10.3410   11.2070    3.7740 N   0  0  0  0  0  0  0  0  0  0  0  0
   10.2720   10.1660    4.8010 C   0  0  0  0  0  0  0  0  0  0  0  0
   12.0940   10.2190    2.8160 O   0  0  0  0  0  0  0  0  0  0  0  0
   10.7030   13.9890    0.8400 N   0  0  0  0  0  0  0  0  0  0  0  0
    9.4500   12.2140    3.7900 C   0  0  0  0  0  0  0  0  0  0  0  0
    8.6000   12.2400    4.6590 O   0  0  0  0  0  0  0  0  0  0  0  0
   12.4340   14.2800   -1.2680 S   0  0  0  0  0  0  0  0  0  0  0  0
   11.0850   15.3950   -1.7270 C   0  0  0  0  0  0  0  0  0  0  0  0
    9.8950   14.5860   -2.1780 C   0  0  0  0  0  0  0  0  0  0  0  0
    8.7240   14.6860   -1.5200 N   0  0  0  0  0  0  0  0  0  0  0  0
    8.6450   15.2870   -0.7450 H   0  0  0  0  0  0  0  0  0  0  0  0
    9.9940   13.8460   -3.1340 O   0  0  0  0  0  0  0  0  0  0  0  0
    7.5680   13.8990   -1.9600 C   0  0  0  0  0  0  0  0  0  0  0  0
    7.6330   12.5050   -1.3330 C   0  0  0  0  0  0  0  0  0  0  0  0
    6.6350   11.6700   -1.9240 O   0  0  0  0  0  0  0  0  0  0  0  0
    5.7540   11.9870   -1.6690 H   0  0  0  0  0  0  0  0  0  0  0  0
  2  1  1  0  0  0  0
  2 12  1  0  0  0  0
  3  2  1  0  0  0  0
  4  3  2  0  0  0  0
  4  7  1  0  0  0  0
  5  4  1  0  0  0  0
  6  5  1  0  0  0  0
  6 11  2  0  0  0  0
  7  8  1  0  0  0  0
  8 12  1  0  0  0  0
  8  9  1  0  0  0  0
 10  7  2  0  0  0  0
 11  3  1  0  0  0  0
 12 13  2  0  0  0  0
 14  6  1  0  0  0  0
 15 14  1  0  0  0  0
 16 15  1  0  0  0  0
 16 17  1  0  0  0  0
 17 18  1  0  0  0  0
 19 16  2  0  0  0  0
 20 17  1  0  0  0  0
 20 21  1  0  0  0  0
 22 23  1  0  0  0  0
 22 21  1  0  0  0  0
M  END
>  <MODEL>
1

>  <REMARK>
 VINA RESULT:      -6.6      0.000      0.000
  Name = ZINC06413685
                            x       y       z     vdW  Elec       q    Type
                         _______ _______ _______ _____ _____    ______ ____

>  <TORSDO>
F 6

>  <vina_score>
-6.6

$$$$
ZINC19786946
 OpenBabel01081722373D

 25 26  0  0  1  0  0  0  0  0999 V2000
    9.1590   11.9050    2.5730 C   0  0  0  0  0  0  0  0  0  0  0  0
    7.8750   12.0790    2.7010 N   0  0  0  0  0  0  0  0  0  0  0  0
    7.3510   12.2590    1.5390 N   0  0  0  0  0  0  0  0  0  0  0  0
    8.2820   12.2070    0.6320 C   0  0  0  0  0  0  0  0  0  0  0  0
    9.4470   11.9830    1.2620 O   0  0  0  0  0  0  0  0  0  0  0  0
   10.1440   11.6680    3.6890 C   0  0  2  0  0  0  0  0  0  0  0  0
   10.0210   12.7410    4.6860 N   0  0  0  0  0  0  0  0  0  0  0  0
   10.2530   12.3750    5.6090 H   0  0  0  0  0  0  0  0  0  0  0  0
   10.6600   13.5000    4.4500 H   0  0  0  0  0  0  0  0  0  0  0  0
    9.0630   13.0920    4.6910 H   0  0  0  0  0  0  0  0  0  0  0  0
   12.2870   12.9450    3.5370 C   0  0  0  0  0  0  0  0  0  0  0  0
   11.5650   11.6610    3.1220 C   0  0  0  0  0  0  0  0  0  0  0  0
   12.3250   10.4500    3.6670 C   0  0  0  0  0  0  0  0  0  0  0  0
    8.0910   12.3690   -0.8550 C   0  0  0  0  0  0  0  0  0  0  0  0
    8.3260   13.7300   -1.2200 O   0  0  0  0  0  0  0  0  0  0  0  0
    9.6240   14.1280   -1.3150 C   0  0  0  0  0  0  0  0  0  0  0  0
   10.1330   15.0630   -0.4210 C   0  0  0  0  0  0  0  0  0  0  0  0
   11.4580   15.4610   -0.5180 C   0  0  0  0  0  0  0  0  0  0  0  0
   12.2690   14.9390   -1.5100 C   0  0  0  0  0  0  0  0  0  0  0  0
   11.7640   14.0140   -2.4040 C   0  0  0  0  0  0  0  0  0  0  0  0
   10.4410   13.6050   -2.3100 C   0  0  0  0  0  0  0  0  0  0  0  0
    9.3360   15.5810    0.5500 O   0  0  0  0  0  0  0  0  0  0  0  0
    9.7460   15.3760    1.9040 C   0  0  0  0  0  0  0  0  0  0  0  0
    9.9460   12.6950   -3.1900 O   0  0  0  0  0  0  0  0  0  0  0  0
    9.3230   13.2070   -4.3700 C   0  0  0  0  0  0  0  0  0  0  0  0
  1  2  2  0  0  0  0
  3  2  1  0  0  0  0
  4  5  1  0  0  0  0
  4  3  2  0  0  0  0
  5  1  1  0  0  0  0
  6  1  1  6  0  0  0
  6  7  1  0  0  0  0
  7 10  1  0  0  0  0
  7  8  1  0  0  0  0
  9  7  1  0  0  0  0
 12 11  1  0  0  0  0
 12 13  1  0  0  0  0
 12  6  1  0  0  0  0
 14  4  1  0  0  0  0
 15 14  1  0  0  0  0
 16 15  1  0  0  0  0
 16 17  2  0  0  0  0
 17 22  1  0  0  0  0
 18 17  1  0  0  0  0
 19 18  2  0  0  0  0
 20 21  2  0  0  0  0
 20 19  1  0  0  0  0
 21 16  1  0  0  0  0
 22 23  1  0  0  0  0
 24 21  1  0  0  0  0
 25 24  1  0  0  0  0
M  END
>  <MODEL>
1

>  <REMARK>
 VINA RESULT:      -6.6      0.000      0.000
  Name = ZINC19786946
                            x       y       z     vdW  Elec       q    Type
                         _______ _______ _______ _____ _____    ______ ____

>  <TORSDO>
F 8

>  <vina_score>
-6.6

$$$$
ZINC02269343
 OpenBabel01081722383D

 27 28  0  0  1  0  0  0  0  0999 V2000
    7.8190   13.5080    1.7580 N   0  0  0  0  0  0  0  0  0  0  0  0
    6.9950   14.0000    1.9780 H   0  0  0  0  0  0  0  0  0  0  0  0
    9.5930   15.2950    1.7680 C   0  0  0  0  0  0  0  0  0  0  0  0
    9.0540   13.9650    2.2290 C   0  0  0  0  0  0  0  0  0  0  0  0
    9.7500   13.2290    3.0820 C   0  0  0  0  0  0  0  0  0  0  0  0
    9.1990   11.9400    3.6610 C   0  0  0  0  0  0  0  0  0  0  0  0
   10.1760   10.9170    3.4330 O   0  0  0  0  0  0  0  0  0  0  0  0
   11.4810   11.2480    3.6320 C   0  0  0  0  0  0  0  0  0  0  0  0
   12.4100   10.2320    3.8190 C   0  0  0  0  0  0  0  0  0  0  0  0
   13.7440   10.5370    4.0070 C   0  0  0  0  0  0  0  0  0  0  0  0
   14.1590   11.8560    4.0210 C   0  0  0  0  0  0  0  0  0  0  0  0
   13.2410   12.8720    3.8400 C   0  0  0  0  0  0  0  0  0  0  0  0
   11.9000   12.5720    3.6480 C   0  0  0  0  0  0  0  0  0  0  0  0
   11.0080   13.5900    3.4890 O   0  0  0  0  0  0  0  0  0  0  0  0
    7.7540   12.3380    0.9630 O   0  0  0  0  0  0  0  0  0  0  0  0
    8.7970   12.2360   -0.0090 C   0  0  0  0  0  0  0  0  0  0  0  0
    8.2370   12.5640   -1.3950 C   0  0  1  0  0  0  0  0  0  0  0  0
    7.1140   13.4380   -1.2600 O   0  0  0  0  0  0  0  0  0  0  0  0
    6.3520   12.9360   -0.9320 H   0  0  0  0  0  0  0  0  0  0  0  0
    9.3180   13.2480   -2.2330 C   0  0  0  0  0  0  0  0  0  0  0  0
    9.9680   14.2950   -1.4230 N   0  0  0  0  0  0  0  0  0  0  0  0
    9.6220   15.2080   -1.7210 H   0  0  0  0  0  0  0  0  0  0  0  0
    9.7490   14.1420   -0.4390 H   0  0  0  0  0  0  0  0  0  0  0  0
   11.4310   14.2520   -1.6090 C   0  0  0  0  0  0  0  0  0  0  0  0
   11.7680   13.4120   -2.8420 C   0  0  0  0  0  0  0  0  0  0  0  0
   12.0740   13.6220   -0.3710 C   0  0  0  0  0  0  0  0  0  0  0  0
   11.9680   15.6720   -1.7960 C   0  0  0  0  0  0  0  0  0  0  0  0
  1  2  1  0  0  0  0
  1  4  1  0  0  0  0
  3  4  1  0  0  0  0
  4  5  2  0  0  0  0
  5 14  1  0  0  0  0
  5  6  1  0  0  0  0
  7  8  1  0  0  0  0
  7  6  1  0  0  0  0
  8 13  2  0  0  0  0
  8  9  1  0  0  0  0
  9 10  2  0  0  0  0
 10 11  1  0  0  0  0
 12 11  2  0  0  0  0
 13 12  1  0  0  0  0
 14 13  1  0  0  0  0
 15  1  1  0  0  0  0
 16 15  1  0  0  0  0
 17 20  1  6  0  0  0
 17 18  1  0  0  0  0
 17 16  1  0  0  0  0
 18 19  1  0  0  0  0
 20 21  1  0  0  0  0
 21 23  1  0  0  0  0
 22 21  1  0  0  0  0
 24 21  1  0  0  0  0
 24 26  1  0  0  0  0
 25 24  1  0  0  0  0
 27 24  1  0  0  0  0
M  END
>  <MODEL>
1

>  <REMARK>
 VINA RESULT:      -6.6      0.000      0.000
  Name = ZINC02269343
                            x       y       z     vdW  Elec       q    Type
                         _______ _______ _______ _____ _____    ______ ____

>  <TORSDO>
F 8

>  <vina_score>
-6.6

$$$$
ZINC05665859
 OpenBabel01081722413D

 27 28  0  0  1  0  0  0  0  0999 V2000
    9.2520   12.4550   -1.4590 C   0  0  2  0  0  0  0  0  0  0  0  0
    8.0080   12.0420   -0.6930 C   0  0  0  0  0  0  0  0  0  0  0  0
    8.1750   11.5750    0.5630 N   0  0  0  0  0  0  0  0  0  0  0  0
    7.3830   11.3010    1.0790 H   0  0  0  0  0  0  0  0  0  0  0  0
    9.3850   11.4750    1.1260 C   0  0  0  0  0  0  0  0  0  0  0  0
   10.5340   11.8140    0.5310 N   0  0  0  0  0  0  0  0  0  0  0  0
    9.4430   11.0450    2.2600 O   0  0  0  0  0  0  0  0  0  0  0  0
    6.9060   12.1270   -1.1910 O   0  0  0  0  0  0  0  0  0  0  0  0
   10.5710   12.3000   -0.7270 C   0  0  0  0  0  0  0  0  0  0  0  0
   11.6210   12.5980   -1.2550 O   0  0  0  0  0  0  0  0  0  0  0  0
   11.7900   11.6500    1.2670 C   0  0  0  0  0  0  0  0  0  0  0  0
   11.7420   10.3520    2.0760 C   0  0  0  0  0  0  0  0  0  0  0  0
   13.0540   10.1820    2.8450 C   0  0  0  0  0  0  0  0  0  0  0  0
   13.2470   11.3670    3.7940 C   0  0  0  0  0  0  0  0  0  0  0  0
   13.2960   12.6650    2.9850 C   0  0  0  0  0  0  0  0  0  0  0  0
   11.9840   12.8350    2.2160 C   0  0  0  0  0  0  0  0  0  0  0  0
    9.3660   13.2060   -4.1820 C   0  0  0  0  0  0  0  0  0  0  0  0
    9.1520   14.2530   -3.1200 C   0  0  0  0  0  0  0  0  0  0  0  0
    9.0980   13.9030   -1.8480 C   0  0  0  0  0  0  0  0  0  0  0  0
    8.8970   14.8480   -0.7980 N   0  0  0  0  0  0  0  0  0  0  0  0
    8.0350   14.9510   -0.3370 H   0  0  0  0  0  0  0  0  0  0  0  0
   10.1050   15.6740   -0.4480 C   0  0  0  0  0  0  0  0  0  0  0  0
   10.4410   15.3790    1.0150 C   0  0  0  0  0  0  0  0  0  0  0  0
    9.2320   15.6010    1.8360 N   0  0  0  0  0  0  0  0  0  0  0  0
    8.4150   15.6080    1.2270 H   0  0  0  0  0  0  0  0  0  0  0  0
    9.3240   16.9030    2.5300 C   0  0  0  0  0  0  0  0  0  0  0  0
    9.0860   14.5110    2.8240 C   0  0  0  0  0  0  0  0  0  0  0  0
  1 19  1  1  0  0  0
  1  9  1  0  0  0  0
  1  2  1  0  0  0  0
  2  3  1  0  0  0  0
  3  4  1  0  0  0  0
  3  5  1  0  0  0  0
  5  7  2  0  0  0  0
  6  5  1  0  0  0  0
  6 11  1  0  0  0  0
  8  2  2  0  0  0  0
  9  6  1  0  0  0  0
 10  9  2  0  0  0  0
 11 12  1  0  0  0  0
 11 16  1  0  0  0  0
 12 13  1  0  0  0  0
 13 14  1  0  0  0  0
 15 14  1  0  0  0  0
 16 15  1  0  0  0  0
 17 18  1  0  0  0  0
 18 19  1  0  0  0  0
 19 20  2  0  0  0  0
 20 22  1  0  0  0  0
 20 21  1  0  0  0  0
 22 23  1  0  0  0  0
 23 24  1  0  0  0  0
 24 26  1  0  0  0  0
 24 27  1  0  0  0  0
 25 24  1  0  0  0  0
M  END
>  <MODEL>
1

>  <REMARK>
 VINA RESULT:      -6.6      0.000      0.000
  Name = ZINC05665859
                            x       y       z     vdW  Elec       q    Type
                         _______ _______ _______ _____ _____    ______ ____

>  <TORSDO>
F 6

>  <vina_score>
-6.6

$$$$
ZINC06535546
 OpenBabel01081722433D

 26 27  0  0  1  0  0  0  0  0999 V2000
   11.1270   10.5310    1.4410 C   0  0  0  0  0  0  0  0  0  0  0  0
   11.0040   11.5020    0.5080 C   0  0  0  0  0  0  0  0  0  0  0  0
    9.7340   11.8230   -0.0110 C   0  0  0  0  0  0  0  0  0  0  0  0
    9.6190   12.6500   -1.0850 C   0  0  0  0  0  0  0  0  0  0  0  0
    8.3380   12.9360   -1.6140 C   0  0  0  0  0  0  0  0  0  0  0  0
    7.3060   12.1990   -1.3130 N   0  0  0  0  0  0  0  0  0  0  0  0
    7.4340   11.0150   -0.4630 C   0  0  1  0  0  0  0  0  0  0  0  0
    8.4860   11.2580    0.6190 C   0  0  0  0  0  0  0  0  0  0  0  0
    8.1670   14.0960   -2.5290 C   0  0  0  0  0  0  0  0  0  0  0  0
    8.9230   14.1960   -3.6380 O   0  0  0  0  0  0  0  0  0  0  0  0
    7.3460   14.9530   -2.2750 O   0  0  0  0  0  0  0  0  0  0  0  0
    6.1070   10.7200    0.1850 C   0  0  0  0  0  0  0  0  0  0  0  0
    5.8920   11.0690    1.4640 O   0  0  0  0  0  0  0  0  0  0  0  0
    5.2340   10.1750   -0.4460 O   0  0  0  0  0  0  0  0  0  0  0  0
   12.4200   10.2550    1.9220 N   0  0  0  0  0  0  0  0  0  0  0  0
   13.1680   10.0230    1.3240 H   0  0  0  0  0  0  0  0  0  0  0  0
   12.5750   10.3390    3.4140 C   0  0  0  0  0  0  0  0  0  0  0  0
   12.6740   11.8220    3.7740 C   0  0  0  0  0  0  0  0  0  0  0  0
   11.1900   13.6510    2.9300 C   0  0  0  0  0  0  0  0  0  0  0  0
    9.9480   14.2410    2.7910 C   0  0  0  0  0  0  0  0  0  0  0  0
    8.8320   13.6490    3.3670 C   0  0  0  0  0  0  0  0  0  0  0  0
    8.9660   12.4630    4.0750 C   0  0  0  0  0  0  0  0  0  0  0  0
   10.2090   11.8740    4.2050 C   0  0  0  0  0  0  0  0  0  0  0  0
   11.3200   12.4660    3.6300 C   0  0  0  0  0  0  0  0  0  0  0  0
    7.6110   14.2300    3.2370 O   0  0  0  0  0  0  0  0  0  0  0  0
    6.9110   13.7610    2.8270 H   0  0  0  0  0  0  0  0  0  0  0  0
  1 15  1  0  0  0  0
  2  1  2  0  0  0  0
  3  2  1  0  0  0  0
  3  8  1  0  0  0  0
  4  3  2  0  0  0  0
  5  6  2  0  0  0  0
  5  4  1  0  0  0  0
  6  7  1  0  0  0  0
  7 12  1  1  0  0  0
  7  8  1  0  0  0  0
  9 11  1  0  0  0  0
  9  5  1  0  0  0  0
 10  9  2  0  0  0  0
 12 13  1  0  0  0  0
 14 12  2  0  0  0  0
 15 17  1  0  0  0  0
 16 15  1  0  0  0  0
 17 18  1  0  0  0  0
 19 24  1  0  0  0  0
 20 19  2  0  0  0  0
 20 21  1  0  0  0  0
 21 22  2  0  0  0  0
 22 23  1  0  0  0  0
 24 18  1  0  0  0  0
 24 23  2  0  0  0  0
 25 21  1  0  0  0  0
 26 25  1  0  0  0  0
M  END
>  <MODEL>
1

>  <REMARK>
 VINA RESULT:      -6.5      0.000      0.000
  Name = ZINC06535546
                            x       y       z     vdW  Elec       q    Type
                         _______ _______ _______ _____ _____    ______ ____

>  <TORSDO>
F 8

>  <vina_score>
-6.5

$$$$
ZINC11661273
 OpenBabel01081722443D

 23 24  0  0  1  0  0  0  0  0999 V2000
    9.1320   14.4810    1.1790 N   0  0  0  0  0  0  0  0  0  0  0  0
    9.7170   13.6910    0.9050 H   0  0  0  0  0  0  0  0  0  0  0  0
    8.2000   14.3820    0.7780 H   0  0  0  0  0  0  0  0  0  0  0  0
    9.0290   14.5130    2.6500 C   0  0  0  0  0  0  0  0  0  0  0  0
    8.8460   13.0860    3.1710 C   0  0  0  0  0  0  0  0  0  0  0  0
   10.1090   12.5690    3.5960 O   0  0  0  0  0  0  0  0  0  0  0  0
   13.1600   12.9390    3.6820 C   0  0  0  0  0  0  0  0  0  0  0  0
   12.3480   12.2430    2.6210 C   0  0  0  0  0  0  0  0  0  0  0  0
   10.9400   12.1010    2.6300 C   0  0  0  0  0  0  0  0  0  0  0  0
   10.5670   11.4530    1.5620 N   0  0  0  0  0  0  0  0  0  0  0  0
   11.7380   11.1470    0.8220 O   0  0  0  0  0  0  0  0  0  0  0  0
   12.8300   11.6750    1.5570 N   0  0  0  0  0  0  0  0  0  0  0  0
    9.7450   15.7260    0.6810 C   0  0  0  0  0  0  0  0  0  0  0  0
   10.5090   15.4290   -0.6110 C   0  0  1  0  0  0  0  0  0  0  0  0
   11.7730   14.6310   -0.2810 C   0  0  0  0  0  0  0  0  0  0  0  0
   12.3740   14.1100   -1.5920 C   0  0  0  0  0  0  0  0  0  0  0  0
   11.4230   13.0690   -2.1860 C   0  0  0  0  0  0  0  0  0  0  0  0
   10.0660   13.5960   -2.2500 N   0  0  0  0  0  0  0  0  0  0  0  0
    9.1170   12.9410   -3.1560 C   0  0  0  0  0  0  0  0  0  0  0  0
    9.6330   14.6370   -1.5380 C   0  0  0  0  0  0  0  0  0  0  0  0
    8.4690   14.9610   -1.6450 O   0  0  0  0  0  0  0  0  0  0  0  0
   10.8750   16.6580   -1.2390 O   0  0  0  0  0  0  0  0  0  0  0  0
   10.1370   16.9790   -1.7800 H   0  0  0  0  0  0  0  0  0  0  0  0
  1  4  1  0  0  0  0
  2  1  1  0  0  0  0
  3  1  1  0  0  0  0
  4  5  1  0  0  0  0
  5  6  1  0  0  0  0
  8  9  1  0  0  0  0
  8  7  1  0  0  0  0
  9  6  1  0  0  0  0
 10  9  2  0  0  0  0
 11 12  1  0  0  0  0
 11 10  1  0  0  0  0
 12  8  2  0  0  0  0
 13  1  1  0  0  0  0
 14 22  1  6  0  0  0
 14 15  1  0  0  0  0
 14 13  1  0  0  0  0
 16 15  1  0  0  0  0
 17 16  1  0  0  0  0
 18 17  1  0  0  0  0
 18 20  1  0  0  0  0
 19 18  1  0  0  0  0
 20 14  1  0  0  0  0
 21 20  2  0  0  0  0
 23 22  1  0  0  0  0
M  END
>  <MODEL>
1

>  <REMARK>
 VINA RESULT:      -6.5      0.000      0.000
  Name = ZINC11661273
                            x       y       z     vdW  Elec       q    Type
                         _______ _______ _______ _____ _____    ______ ____

>  <TORSDO>
F 7

>  <vina_score>
-6.5

$$$$
ZINC04535668
 OpenBabel01081722463D

 27 28  0  0  1  0  0  0  0  0999 V2000
   10.0690   13.5040    0.2140 C   0  0  1  0  0  0  0  0  0  0  0  0
   10.3300   13.4480   -1.2730 C   0  0  0  0  0  0  0  0  0  0  0  0
   11.5200   13.8330   -1.9350 C   0  0  0  0  0  0  0  0  0  0  0  0
   12.6880   14.3590   -1.1410 C   0  0  0  0  0  0  0  0  0  0  0  0
   11.6000   13.7410   -3.1430 O   0  0  0  0  0  0  0  0  0  0  0  0
    9.2050   12.9600   -1.8500 C   0  0  0  0  0  0  0  0  0  0  0  0
    9.0270   12.7580   -3.1750 O   0  0  0  0  0  0  0  0  0  0  0  0
    8.2010   12.6840   -0.7980 C   0  0  0  0  0  0  0  0  0  0  0  0
    7.0880   12.2400   -0.9960 O   0  0  0  0  0  0  0  0  0  0  0  0
    8.7050   12.9970    0.4090 N   0  0  0  0  0  0  0  0  0  0  0  0
   12.8640   11.0270    2.2870 C   0  0  0  0  0  0  0  0  0  0  0  0
   12.9820   12.4040    2.3470 C   0  0  0  0  0  0  0  0  0  0  0  0
   12.0770   13.2040    1.6760 C   0  0  0  0  0  0  0  0  0  0  0  0
   11.0550   12.6300    0.9450 C   0  0  0  0  0  0  0  0  0  0  0  0
   10.9330   11.2550    0.8900 C   0  0  0  0  0  0  0  0  0  0  0  0
   11.8410   10.4530    1.5560 C   0  0  0  0  0  0  0  0  0  0  0  0
   14.1440   10.7560    4.3940 C   0  0  0  0  0  0  0  0  0  0  0  0
   13.8500   10.1530    3.0180 C   0  0  0  0  0  0  0  0  0  0  0  0
    8.0110   12.8640    1.6930 C   0  0  0  0  0  0  0  0  0  0  0  0
    8.6980   13.7450    2.7370 C   0  0  0  0  0  0  0  0  0  0  0  0
    8.6080   13.0910    4.0560 N   0  0  0  0  0  0  0  0  0  0  0  0
    8.3930   13.7950    4.7620 H   0  0  0  0  0  0  0  0  0  0  0  0
    7.8730   12.3840    4.0310 H   0  0  0  0  0  0  0  0  0  0  0  0
    9.8910   12.4470    4.3970 C   0  0  0  0  0  0  0  0  0  0  0  0
    9.6920   10.9320    4.4570 C   0  0  0  0  0  0  0  0  0  0  0  0
    8.3450   10.6430    4.8400 O   0  0  0  0  0  0  0  0  0  0  0  0
    7.8620   11.4730    4.9740 H   0  0  0  0  0  0  0  0  0  0  0  0
  1 10  1  0  0  0  0
  1 14  1  1  0  0  0
  2  1  1  0  0  0  0
  3  2  1  0  0  0  0
  3  4  1  0  0  0  0
  5  3  2  0  0  0  0
  6  2  2  0  0  0  0
  6  8  1  0  0  0  0
  7  6  1  0  0  0  0
  8 10  1  0  0  0  0
  9  8  2  0  0  0  0
 10 19  1  0  0  0  0
 11 12  1  0  0  0  0
 11 18  1  0  0  0  0
 13 12  2  0  0  0  0
 14 13  1  0  0  0  0
 15 14  2  0  0  0  0
 15 16  1  0  0  0  0
 16 11  2  0  0  0  0
 18 17  1  0  0  0  0
 19 20  1  0  0  0  0
 20 21  1  0  0  0  0
 21 24  1  0  0  0  0
 21 22  1  0  0  0  0
 23 21  1  0  0  0  0
 24 25  1  0  0  0  0
 25 26  1  0  0  0  0
 26 27  1  0  0  0  0
M  END
>  <MODEL>
1

>  <REMARK>
 VINA RESULT:      -6.5      0.000      0.000
  Name = ZINC04535668
                            x       y       z     vdW  Elec       q    Type
                         _______ _______ _______ _____ _____    ______ ____

>  <TORSDO>
F 8

>  <vina_score>
-6.5

$$$$
ZINC21991926
 OpenBabel01081722463D

 29 29  0  0  1  0  0  0  0  0999 V2000
    8.5640   12.1270   -0.2010 N   0  0  0  0  0  0  0  0  0  0  0  0
    9.3570   12.6220   -0.5070 H   0  0  0  0  0  0  0  0  0  0  0  0
    7.5220   11.8970   -1.0680 C   0  0  0  0  0  0  0  0  0  0  0  0
    8.4840   11.5710    1.3570 S   0  0  0  0  0  0  0  0  0  0  0  0
    8.4160   10.1540    1.2790 O   0  0  0  0  0  0  0  0  0  0  0  0
    7.4900   12.3460    2.0130 O   0  0  0  0  0  0  0  0  0  0  0  0
   13.7410   12.9020    4.0020 C   0  0  0  0  0  0  0  0  0  0  0  0
   12.4280   12.5690    3.3410 C   0  0  0  0  0  0  0  0  0  0  0  0
   11.2670   13.1970    3.7540 C   0  0  0  0  0  0  0  0  0  0  0  0
   10.0630   12.8920    3.1490 C   0  0  0  0  0  0  0  0  0  0  0  0
   10.0180   11.9600    2.1290 C   0  0  0  0  0  0  0  0  0  0  0  0
   11.1790   11.3280    1.7190 C   0  0  0  0  0  0  0  0  0  0  0  0
   12.3840   11.6370    2.3220 C   0  0  0  0  0  0  0  0  0  0  0  0
    6.4710   11.2400   -0.6630 N   0  0  0  0  0  0  0  0  0  0  0  0
    6.5660   10.5210    0.0020 H   0  0  0  0  0  0  0  0  0  0  0  0
    5.5820   11.4650   -1.0230 H   0  0  0  0  0  0  0  0  0  0  0  0
    7.5890   12.3580   -2.3610 N   0  0  0  0  0  0  0  0  0  0  0  0
    7.0690   11.9140   -3.0690 H   0  0  0  0  0  0  0  0  0  0  0  0
    8.4350   13.5090   -2.6860 C   0  0  0  0  0  0  0  0  0  0  0  0
    9.5450   13.0730   -3.6440 C   0  0  0  0  0  0  0  0  0  0  0  0
   10.9070   13.3490   -3.0070 C   0  0  0  0  0  0  0  0  0  0  0  0
   10.7600   14.4310   -1.9350 C   0  0  2  0  0  0  0  0  0  0  0  0
   11.1810   15.7270   -2.4850 N   0  0  0  0  0  0  0  0  0  0  0  0
   10.8000   15.8380   -3.4250 H   0  0  0  0  0  0  0  0  0  0  0  0
   10.8370   16.4780   -1.8870 H   0  0  0  0  0  0  0  0  0  0  0  0
   12.2000   15.7630   -2.5260 H   0  0  0  0  0  0  0  0  0  0  0  0
   11.6230   14.0840   -0.7490 C   0  0  0  0  0  0  0  0  0  0  0  0
   11.4110   14.6850    0.4330 O   0  0  0  0  0  0  0  0  0  0  0  0
   12.5060   13.2680   -0.8630 O   0  0  0  0  0  0  0  0  0  0  0  0
  1  4  1  0  0  0  0
  2  1  1  0  0  0  0
  3 14  2  0  0  0  0
  3  1  1  0  0  0  0
  4  6  2  0  0  0  0
  4 11  1  0  0  0  0
  5  4  2  0  0  0  0
  8  9  1  0  0  0  0
  8  7  1  0  0  0  0
 10  9  2  0  0  0  0
 11 10  1  0  0  0  0
 12 11  2  0  0  0  0
 12 13  1  0  0  0  0
 13  8  2  0  0  0  0
 14 15  1  0  0  0  0
 16 14  1  0  0  0  0
 17  3  1  0  0  0  0
 18 17  1  0  0  0  0
 19 17  1  0  0  0  0
 20 21  1  0  0  0  0
 20 19  1  0  0  0  0
 22 21  1  6  0  0  0
 22 27  1  0  0  0  0
 23 22  1  0  0  0  0
 23 25  1  0  0  0  0
 24 23  1  0  0  0  0
 26 23  1  0  0  0  0
 27 28  1  0  0  0  0
 29 27  2  0  0  0  0
M  END
>  <MODEL>
1

>  <REMARK>
 VINA RESULT:      -6.5      0.000      0.000
  Name = ZINC21991926
                            x       y       z     vdW  Elec       q    Type
                         _______ _______ _______ _____ _____    ______ ____

>  <TORSDO>
F 10

>  <vina_score>
-6.5

$$$$
ZINC29491643
 OpenBabel01081722323D

 27 28  0  0  1  0  0  0  0  0999 V2000
    8.2310   13.5220   -2.4450 C   0  0  0  0  0  0  0  0  0  0  0  0
    7.9050   14.7890   -2.0280 N   0  0  0  0  0  0  0  0  0  0  0  0
    7.0570   14.9480   -1.5530 H   0  0  0  0  0  0  0  0  0  0  0  0
    8.5180   15.5390   -2.2020 H   0  0  0  0  0  0  0  0  0  0  0  0
    7.4130   12.5210   -2.2120 N   0  0  0  0  0  0  0  0  0  0  0  0
    6.8170   12.1960   -2.9240 H   0  0  0  0  0  0  0  0  0  0  0  0
    7.3880   11.9310   -0.9740 C   0  0  0  0  0  0  0  0  0  0  0  0
    6.4720   10.9140   -0.7010 C   0  0  0  0  0  0  0  0  0  0  0  0
    6.4520   10.3230    0.5450 C   0  0  0  0  0  0  0  0  0  0  0  0
    7.3410   10.7390    1.5260 C   0  0  0  0  0  0  0  0  0  0  0  0
    8.2490   11.7540    1.2620 C   0  0  0  0  0  0  0  0  0  0  0  0
    8.2810   12.3460    0.0160 C   0  0  0  0  0  0  0  0  0  0  0  0
    7.3170   10.1540    2.7540 O   0  0  0  0  0  0  0  0  0  0  0  0
    8.2330   10.6560    3.7290 C   0  0  0  0  0  0  0  0  0  0  0  0
    9.7480   13.2380   -3.2950 S   0  0  0  0  0  0  0  0  0  0  0  0
   10.8780   14.1880   -2.2480 C   0  0  0  0  0  0  0  0  0  0  0  0
   10.6180   15.3130    0.3410 C   0  0  0  0  0  0  0  0  0  0  0  0
   11.0920   13.9340    0.2040 N   0  0  0  0  0  0  0  0  0  0  0  0
   11.2210   13.3840   -1.0200 C   0  0  0  0  0  0  0  0  0  0  0  0
   11.6140   12.2410   -1.1330 O   0  0  0  0  0  0  0  0  0  0  0  0
   11.4250   13.1520    1.3970 C   0  0  2  0  0  0  0  0  0  0  0  0
   10.7190   13.7520    2.6240 C   0  0  0  0  0  0  0  0  0  0  0  0
   11.3080   13.1440    3.9210 C   0  0  0  0  0  0  0  0  0  0  0  0
   13.0270   12.7210    3.4240 S   0  0  0  0  0  0  0  0  0  0  0  0
   13.9300   13.5830    4.1020 O   0  0  0  0  0  0  0  0  0  0  0  0
   13.2010   11.3140    3.5150 O   0  0  0  0  0  0  0  0  0  0  0  0
   12.9600   13.2020    1.6470 C   0  0  0  0  0  0  0  0  0  0  0  0
  1  5  1  0  0  0  0
  1  2  2  0  0  0  0
  2  3  1  0  0  0  0
  4  2  1  0  0  0  0
  5  7  1  0  0  0  0
  6  5  1  0  0  0  0
  7  8  2  0  0  0  0
  7 12  1  0  0  0  0
  8  9  1  0  0  0  0
  9 10  2  0  0  0  0
 10 13  1  0  0  0  0
 11 10  1  0  0  0  0
 12 11  2  0  0  0  0
 13 14  1  0  0  0  0
 15  1  1  0  0  0  0
 15 16  1  0  0  0  0
 16 19  1  0  0  0  0
 18 17  1  0  0  0  0
 19 18  1  0  0  0  0
 20 19  2  0  0  0  0
 21 18  1  6  0  0  0
 21 27  1  0  0  0  0
 21 22  1  0  0  0  0
 22 23  1  0  0  0  0
 24 26  2  0  0  0  0
 24 23  1  0  0  0  0
 24 25  2  0  0  0  0
 27 24  1  0  0  0  0
M  END
>  <MODEL>
1

>  <REMARK>
 VINA RESULT:      -6.5      0.000      0.000
  Name = ZINC29491643
                            x       y       z     vdW  Elec       q    Type
                         _______ _______ _______ _____ _____    ______ ____

>  <TORSDO>
F 7

>  <vina_score>
-6.5

$$$$
ZINC24983764
 OpenBabel01081722493D

 29 30  0  0  0  0  0  0  0  0999 V2000
   11.1800   14.0170    1.4840 C   0  0  0  0  0  0  0  0  0  0  0  0
   11.8450   14.3850    0.3710 N   0  0  0  0  0  0  0  0  0  0  0  0
   12.6390   13.8810    0.0830 H   0  0  0  0  0  0  0  0  0  0  0  0
   10.1990   14.6410    1.8400 O   0  0  0  0  0  0  0  0  0  0  0  0
   10.8700   11.6900    2.3250 C   0  0  0  0  0  0  0  0  0  0  0  0
   11.3160   10.6040    3.0670 C   0  0  0  0  0  0  0  0  0  0  0  0
   12.5150   10.6750    3.7470 C   0  0  0  0  0  0  0  0  0  0  0  0
   13.2830   11.8300    3.6960 C   0  0  0  0  0  0  0  0  0  0  0  0
   14.4550   11.8900    4.3660 F   0  0  0  0  0  0  0  0  0  0  0  0
   12.8580   12.9170    2.9590 C   0  0  0  0  0  0  0  0  0  0  0  0
   11.6440   12.8590    2.2700 C   0  0  0  0  0  0  0  0  0  0  0  0
    9.6630   11.6180    1.6390 N   0  0  0  0  0  0  0  0  0  0  0  0
    9.6580   11.4920    0.6630 H   0  0  0  0  0  0  0  0  0  0  0  0
    7.3930   10.1610    2.1890 C   0  0  0  0  0  0  0  0  0  0  0  0
    8.2330   11.7450    2.4650 S   0  0  0  0  0  0  0  0  0  0  0  0
    7.5290   12.7930    1.8120 O   0  0  0  0  0  0  0  0  0  0  0  0
    8.6120   11.8660    3.8290 O   0  0  0  0  0  0  0  0  0  0  0  0
   11.3840   15.5370   -0.4090 C   0  0  0  0  0  0  0  0  0  0  0  0
   11.8320   15.3780   -1.8640 C   0  0  0  0  0  0  0  0  0  0  0  0
   10.6560   15.2160   -2.7220 N   0  0  0  0  0  0  0  0  0  0  0  0
   10.5810   15.7320   -3.5570 H   0  0  0  0  0  0  0  0  0  0  0  0
    9.6490   14.3370   -2.3580 C   0  0  0  0  0  0  0  0  0  0  0  0
    8.3200   14.6750   -2.6050 C   0  0  0  0  0  0  0  0  0  0  0  0
    7.3270   13.8040   -2.2430 C   0  0  0  0  0  0  0  0  0  0  0  0
    7.6890   12.5930   -1.6320 C   0  0  0  0  0  0  0  0  0  0  0  0
    9.0400   12.3230   -1.4110 C   0  0  0  0  0  0  0  0  0  0  0  0
    9.9640   13.1860   -1.7790 N   0  0  0  0  0  0  0  0  0  0  0  0
    6.6850   11.6520   -1.2360 C   0  0  0  0  0  0  0  0  0  0  0  0
    5.8880   10.9060   -0.9220 N   0  0  0  0  0  0  0  0  0  0  0  0
  1  4  2  0  0  0  0
  1 11  1  0  0  0  0
  2  1  1  0  0  0  0
  3  2  1  0  0  0  0
  5  6  1  0  0  0  0
  6  7  2  0  0  0  0
  8  7  1  0  0  0  0
  8  9  1  0  0  0  0
 10  8  2  0  0  0  0
 11  5  2  0  0  0  0
 11 10  1  0  0  0  0
 12  5  1  0  0  0  0
 12 15  1  0  0  0  0
 13 12  1  0  0  0  0
 14 15  1  0  0  0  0
 15 17  2  0  0  0  0
 16 15  2  0  0  0  0
 18  2  1  0  0  0  0
 19 18  1  0  0  0  0
 20 22  1  0  0  0  0
 20 19  1  0  0  0  0
 21 20  1  0  0  0  0
 22 27  1  0  0  0  0
 23 22  2  0  0  0  0
 23 24  1  0  0  0  0
 24 25  2  0  0  0  0
 25 26  1  0  0  0  0
 25 28  1  0  0  0  0
 27 26  2  0  0  0  0
 28 29  3  0  0  0  0
M  END
>  <MODEL>
1

>  <REMARK>
 VINA RESULT:      -6.5      0.000      0.000
  Name = ZINC24983764
                            x       y       z     vdW  Elec       q    Type
                         _______ _______ _______ _____ _____    ______ ____

>  <TORSDO>
F 8

>  <vina_score>
-6.5

$$$$
ZINC19001641
 OpenBabel01081722553D

 26 26  0  0  1  0  0  0  0  0999 V2000
    7.6300   10.2610    2.2240 C   0  0  0  0  0  0  0  0  0  0  0  0
    8.1460   13.7610   -1.0320 N   0  0  0  0  0  0  0  0  0  0  0  0
    8.7180   14.2460   -0.3950 H   0  0  0  0  0  0  0  0  0  0  0  0
    7.6170   12.5690   -0.6900 C   0  0  0  0  0  0  0  0  0  0  0  0
    7.8730   12.0420    0.5240 N   0  0  0  0  0  0  0  0  0  0  0  0
    8.4450   12.5270    1.1610 H   0  0  0  0  0  0  0  0  0  0  0  0
    7.3440   10.8500    0.8660 C   0  0  0  0  0  0  0  0  0  0  0  0
    6.6400   10.2520    0.0820 O   0  0  0  0  0  0  0  0  0  0  0  0
    6.9110   11.9680   -1.4770 O   0  0  0  0  0  0  0  0  0  0  0  0
    7.8690   14.3320   -2.3520 C   0  0  0  0  0  0  0  0  0  0  0  0
   10.3500   14.6100   -2.2540 C   0  0  0  0  0  0  0  0  0  0  0  0
    9.1570   14.3550   -3.1780 C   0  0  0  0  0  0  0  0  0  0  0  0
    9.3370   13.0090   -3.8820 C   0  0  0  0  0  0  0  0  0  0  0  0
    8.8860   10.7910    2.7260 O   0  0  0  0  0  0  0  0  0  0  0  0
    8.9520   11.0570    4.0410 C   0  0  0  0  0  0  0  0  0  0  0  0
    8.1770   10.5300    4.8030 O   0  0  0  0  0  0  0  0  0  0  0  0
    9.9930   12.0120    4.5640 C   0  0  0  0  0  0  0  0  0  0  0  0
   11.3070   11.7970    3.8110 C   0  0  0  0  0  0  0  0  0  0  0  0
   11.7310   13.1050    3.1410 C   0  0  1  0  0  0  0  0  0  0  0  0
   12.1420   12.8590    1.7030 C   0  0  0  0  0  0  0  0  0  0  0  0
   11.2870   13.5790    0.9510 N   0  0  0  0  0  0  0  0  0  0  0  0
   11.3100   13.6150   -0.0330 H   0  0  0  0  0  0  0  0  0  0  0  0
   10.4000   14.2390    1.7060 C   0  0  0  0  0  0  0  0  0  0  0  0
    9.5290   14.9550    1.2550 O   0  0  0  0  0  0  0  0  0  0  0  0
   13.0510   12.1590    1.3120 O   0  0  0  0  0  0  0  0  0  0  0  0
   10.5850   14.0230    3.0250 N   0  0  0  0  0  0  0  0  0  0  0  0
  1 14  1  0  0  0  0
  2  4  1  0  0  0  0
  2  3  1  0  0  0  0
  4  5  1  0  0  0  0
  5  7  1  0  0  0  0
  5  6  1  0  0  0  0
  7  1  1  0  0  0  0
  8  7  2  0  0  0  0
  9  4  2  0  0  0  0
 10  2  1  0  0  0  0
 12 10  1  0  0  0  0
 12 11  1  0  0  0  0
 13 12  1  0  0  0  0
 14 15  1  0  0  0  0
 15 17  1  0  0  0  0
 15 16  2  0  0  0  0
 18 17  1  0  0  0  0
 19 18  1  6  0  0  0
 20 19  1  0  0  0  0
 21 20  1  0  0  0  0
 21 23  1  0  0  0  0
 22 21  1  0  0  0  0
 23 26  1  0  0  0  0
 24 23  2  0  0  0  0
 25 20  2  0  0  0  0
 26 19  1  0  0  0  0
M  END
>  <MODEL>
1

>  <REMARK>
 VINA RESULT:      -6.5      0.000      0.000
  Name = ZINC19001641
                            x       y       z     vdW  Elec       q    Type
                         _______ _______ _______ _____ _____    ______ ____

>  <TORSDO>
F 8

>  <vina_score>
-6.5

$$$$
ZINC10315608
 OpenBabel01081723423D

 26 27  0  0  0  0  0  0  0  0999 V2000
   10.7220   15.1230   -2.2280 N   0  0  0  0  0  0  0  0  0  0  0  0
   11.3520   15.5850   -2.8830 H   0  0  0  0  0  0  0  0  0  0  0  0
    9.7560   15.3720   -2.4370 H   0  0  0  0  0  0  0  0  0  0  0  0
   10.8870   13.6630   -2.3540 C   0  0  0  0  0  0  0  0  0  0  0  0
    8.4470   13.1400   -2.1780 C   0  0  0  0  0  0  0  0  0  0  0  0
    7.3810   12.5080   -1.5720 C   0  0  0  0  0  0  0  0  0  0  0  0
    7.5950   11.7090   -0.4470 C   0  0  0  0  0  0  0  0  0  0  0  0
    8.8900   11.5520    0.0530 C   0  0  0  0  0  0  0  0  0  0  0  0
    9.9470   12.1840   -0.5680 C   0  0  0  0  0  0  0  0  0  0  0  0
    9.7270   12.9740   -1.6820 C   0  0  0  0  0  0  0  0  0  0  0  0
    6.4590   11.0350    0.2120 C   0  0  0  0  0  0  0  0  0  0  0  0
    6.3440   11.0630    1.5540 O   0  0  0  0  0  0  0  0  0  0  0  0
    5.6270   10.4540   -0.4560 O   0  0  0  0  0  0  0  0  0  0  0  0
   11.0520   15.5590   -0.8570 C   0  0  0  0  0  0  0  0  0  0  0  0
    9.7550   15.7880   -0.0790 C   0  0  0  0  0  0  0  0  0  0  0  0
   10.0430   15.7950    1.3580 N   0  0  0  0  0  0  0  0  0  0  0  0
   10.3250   16.6290    1.7990 H   0  0  0  0  0  0  0  0  0  0  0  0
    9.9190   14.6180    2.1000 C   0  0  0  0  0  0  0  0  0  0  0  0
   11.0390   13.8420    2.3660 C   0  0  0  0  0  0  0  0  0  0  0  0
   10.9140   12.6820    3.1040 C   0  0  0  0  0  0  0  0  0  0  0  0
    9.6740   12.2870    3.5700 C   0  0  0  0  0  0  0  0  0  0  0  0
    8.5550   13.0560    3.3040 C   0  0  0  0  0  0  0  0  0  0  0  0
    8.6740   14.2200    2.5700 C   0  0  0  0  0  0  0  0  0  0  0  0
    9.5430   11.0410    4.3570 N   0  0  0  0  0  0  0  0  0  0  0  0
    8.4630   10.7270    4.8250 O   0  0  0  0  0  0  0  0  0  0  0  0
   10.5140   10.3270    4.5350 O   0  0  0  0  0  0  0  0  0  0  0  0
  1 14  1  0  0  0  0
  2  1  1  0  0  0  0
  3  1  1  0  0  0  0
  4  1  1  0  0  0  0
  4 10  1  0  0  0  0
  5 10  2  0  0  0  0
  5  6  1  0  0  0  0
  6  7  2  0  0  0  0
  7  8  1  0  0  0  0
  7 11  1  0  0  0  0
  9  8  2  0  0  0  0
 10  9  1  0  0  0  0
 11 12  1  0  0  0  0
 13 11  2  0  0  0  0
 14 15  1  0  0  0  0
 15 16  1  0  0  0  0
 16 17  1  0  0  0  0
 16 18  1  0  0  0  0
 18 19  2  0  0  0  0
 18 23  1  0  0  0  0
 19 20  1  0  0  0  0
 20 21  2  0  0  0  0
 21 24  1  0  0  0  0
 22 21  1  0  0  0  0
 23 22  2  0  0  0  0
 24 26  2  0  0  0  0
 24 25  2  0  0  0  0
M  END
>  <MODEL>
1

>  <REMARK>
 VINA RESULT:      -6.5      0.000      0.000
  Name = ZINC10315608
                            x       y       z     vdW  Elec       q    Type
                         _______ _______ _______ _____ _____    ______ ____

>  <TORSDO>
F 8

>  <vina_score>
-6.5

$$$$
ZINC28069362
 OpenBabel01081722343D

 26 27  0  0  0  0  0  0  0  0999 V2000
    8.3400   10.8460    1.0590 N   0  0  0  0  0  0  0  0  0  0  0  0
    8.8290   10.3190    0.3870 H   0  0  0  0  0  0  0  0  0  0  0  0
    8.0860   12.1510    0.8360 C   0  0  0  0  0  0  0  0  0  0  0  0
    7.4800   12.8030    1.6650 O   0  0  0  0  0  0  0  0  0  0  0  0
    8.5420   12.7900   -0.4130 C   0  0  0  0  0  0  0  0  0  0  0  0
    7.7800   12.6930   -1.5860 C   0  0  0  0  0  0  0  0  0  0  0  0
    6.6120   12.0070   -1.5740 O   0  0  0  0  0  0  0  0  0  0  0  0
    8.1930   13.2670   -2.7030 N   0  0  0  0  0  0  0  0  0  0  0  0
    7.6420   13.1860   -3.5150 H   0  0  0  0  0  0  0  0  0  0  0  0
    9.3230   13.9450   -2.7590 C   0  0  0  0  0  0  0  0  0  0  0  0
   10.1300   14.0850   -1.6440 C   0  0  0  0  0  0  0  0  0  0  0  0
    9.7460   13.5050   -0.4480 C   0  0  0  0  0  0  0  0  0  0  0  0
   11.3950   14.8500   -1.7310 N   0  0  0  0  0  0  0  0  0  0  0  0
   12.4640   14.2670   -1.6810 O   0  0  0  0  0  0  0  0  0  0  0  0
   11.3670   16.0610   -1.8500 O   0  0  0  0  0  0  0  0  0  0  0  0
    7.8860   10.2130    2.2990 C   0  0  0  0  0  0  0  0  0  0  0  0
    9.0370   10.1820    3.3070 C   0  0  0  0  0  0  0  0  0  0  0  0
   10.3700   10.1530    2.5570 C   0  0  0  0  0  0  0  0  0  0  0  0
   14.7070   13.1370    4.7830 C   0  0  0  0  0  0  0  0  0  0  0  0
   13.7410   12.4720    3.8020 C   0  0  0  0  0  0  0  0  0  0  0  0
   13.7410   10.9580    4.0300 C   0  0  0  0  0  0  0  0  0  0  0  0
   12.7270   10.3040    3.0880 C   0  0  0  0  0  0  0  0  0  0  0  0
   11.3910   10.8560    3.3470 N   0  0  0  0  0  0  0  0  0  0  0  0
   11.1810   10.7100    4.3340 H   0  0  0  0  0  0  0  0  0  0  0  0
   11.3540   12.3010    3.0890 C   0  0  0  0  0  0  0  0  0  0  0  0
   12.3270   13.0140    4.0310 C   0  0  0  0  0  0  0  0  0  0  0  0
  1 16  1  0  0  0  0
  2  1  1  0  0  0  0
  3  1  1  0  0  0  0
  3  4  2  0  0  0  0
  5  3  1  0  0  0  0
  6  7  2  0  0  0  0
  6  5  1  0  0  0  0
  8  6  1  0  0  0  0
  9  8  1  0  0  0  0
 10  8  1  0  0  0  0
 10 11  2  0  0  0  0
 11 12  1  0  0  0  0
 12  5  2  0  0  0  0
 13 14  2  0  0  0  0
 13 11  1  0  0  0  0
 15 13  2  0  0  0  0
 16 17  1  0  0  0  0
 18 17  1  0  0  0  0
 18 23  1  0  0  0  0
 20 21  1  0  0  0  0
 20 26  1  0  0  0  0
 20 19  1  0  0  0  0
 22 23  1  0  0  0  0
 22 21  1  0  0  0  0
 23 24  1  0  0  0  0
 25 23  1  0  0  0  0
 25 26  1  0  0  0  0
M  END
>  <MODEL>
1

>  <REMARK>
 VINA RESULT:      -6.5      0.000      0.000
  Name = ZINC28069362
                            x       y       z     vdW  Elec       q    Type
                         _______ _______ _______ _____ _____    ______ ____

>  <TORSDO>
F 6

>  <vina_score>
-6.5

$$$$
ZINC26654237
 OpenBabel01081722343D

 25 26  0  0  1  0  0  0  0  0999 V2000
   12.0050   12.1670    1.7440 N   0  0  0  0  0  0  0  0  0  0  0  0
   11.8500   11.5890    0.9180 H   0  0  0  0  0  0  0  0  0  0  0  0
   11.0100   11.7860    2.7550 C   0  0  1  0  0  0  0  0  0  0  0  0
   10.3220   13.0510    3.2960 C   0  0  0  0  0  0  0  0  0  0  0  0
    9.0750   12.6120    4.1160 C   0  0  0  0  0  0  0  0  0  0  0  0
    8.4280   11.2600    3.0460 S   0  0  0  0  0  0  0  0  0  0  0  0
    8.0730   10.1540    3.8640 O   0  0  0  0  0  0  0  0  0  0  0  0
    7.4700   11.8000    2.1450 O   0  0  0  0  0  0  0  0  0  0  0  0
    9.9600   10.8480    2.1140 C   0  0  0  0  0  0  0  0  0  0  0  0
   13.3690   11.9100    2.2250 C   0  0  0  0  0  0  0  0  0  0  0  0
   13.8950   10.2930    4.0560 C   0  0  0  0  0  0  0  0  0  0  0  0
   13.3430   11.6840    3.7380 C   0  0  0  0  0  0  0  0  0  0  0  0
   14.2040   12.7440    4.4270 C   0  0  0  0  0  0  0  0  0  0  0  0
   11.8420   13.5720    1.3490 C   0  0  0  0  0  0  0  0  0  0  0  0
   11.1820   13.6400   -0.0040 C   0  0  0  0  0  0  0  0  0  0  0  0
    9.8060   13.7540   -0.0940 C   0  0  0  0  0  0  0  0  0  0  0  0
    9.1950   13.8220   -1.3300 C   0  0  0  0  0  0  0  0  0  0  0  0
    9.9690   13.7650   -2.4900 C   0  0  0  0  0  0  0  0  0  0  0  0
   11.3560   13.6450   -2.3920 C   0  0  0  0  0  0  0  0  0  0  0  0
   11.9540   13.5830   -1.1500 C   0  0  0  0  0  0  0  0  0  0  0  0
    9.3210   13.8320   -3.8170 C   0  0  0  0  0  0  0  0  0  0  0  0
    8.7790   14.9890   -4.2450 N   0  0  0  0  0  0  0  0  0  0  0  0
    8.3470   15.0340   -5.1280 H   0  0  0  0  0  0  0  0  0  0  0  0
    8.8130   15.7900   -3.6730 H   0  0  0  0  0  0  0  0  0  0  0  0
    9.2780   12.8440   -4.5230 O   0  0  0  0  0  0  0  0  0  0  0  0
  1 10  1  0  0  0  0
  2  1  1  0  0  0  0
  3  1  1  6  0  0  0
  3  4  1  0  0  0  0
  4  5  1  0  0  0  0
  6  7  2  0  0  0  0
  6  5  1  0  0  0  0
  8  6  2  0  0  0  0
  9  3  1  0  0  0  0
  9  6  1  0  0  0  0
 10 12  1  0  0  0  0
 12 11  1  0  0  0  0
 12 13  1  0  0  0  0
 14  1  1  0  0  0  0
 15 14  1  0  0  0  0
 16 15  1  0  0  0  0
 17 16  2  0  0  0  0
 18 19  2  0  0  0  0
 18 17  1  0  0  0  0
 19 20  1  0  0  0  0
 20 15  2  0  0  0  0
 21 18  1  0  0  0  0
 22 21  1  0  0  0  0
 22 24  1  0  0  0  0
 23 22  1  0  0  0  0
 25 21  2  0  0  0  0
M  END
>  <MODEL>
1

>  <REMARK>
 VINA RESULT:      -6.5      0.000      0.000
  Name = ZINC26654237
                            x       y       z     vdW  Elec       q    Type
                         _______ _______ _______ _____ _____    ______ ____

>  <TORSDO>
F 6

>  <vina_score>
-6.5

$$$$
ZINC19731960
 OpenBabel01081722343D

 23 24  0  0  1  0  0  0  0  0999 V2000
   11.8970   13.4340    2.5840 C   0  0  0  0  0  0  0  0  0  0  0  0
   10.9690   12.9390    3.6960 C   0  0  0  0  0  0  0  0  0  0  0  0
    9.7020   14.6730    2.5770 C   0  0  0  0  0  0  0  0  0  0  0  0
    9.6530   13.5790    3.5570 N   0  0  0  0  0  0  0  0  0  0  0  0
    9.4020   13.9790    4.4610 H   0  0  0  0  0  0  0  0  0  0  0  0
    8.6250   12.5940    3.1960 C   0  0  2  0  0  0  0  0  0  0  0  0
    9.1930   11.1730    3.3390 C   0  0  0  0  0  0  0  0  0  0  0  0
    8.2430   10.1550    2.6650 C   0  0  0  0  0  0  0  0  0  0  0  0
    7.4380   11.1600    1.3530 S   0  0  0  0  0  0  0  0  0  0  0  0
    7.8890   10.7100    0.0830 O   0  0  0  0  0  0  0  0  0  0  0  0
    6.0430   11.2310    1.6160 O   0  0  0  0  0  0  0  0  0  0  0  0
    8.1990   12.7990    1.7140 C   0  0  0  0  0  0  0  0  0  0  0  0
   12.1560   12.2980    1.5930 C   0  0  0  0  0  0  0  0  0  0  0  0
   12.7090   12.8320    0.3890 O   0  0  0  0  0  0  0  0  0  0  0  0
   11.8420   13.4040   -0.4870 C   0  0  0  0  0  0  0  0  0  0  0  0
   12.0930   14.6760   -0.9830 C   0  0  0  0  0  0  0  0  0  0  0  0
   11.2130   15.2590   -1.8750 C   0  0  0  0  0  0  0  0  0  0  0  0
   10.0790   14.5780   -2.2750 C   0  0  0  0  0  0  0  0  0  0  0  0
    9.8190   13.3080   -1.7770 C   0  0  0  0  0  0  0  0  0  0  0  0
   10.7050   12.7180   -0.8860 C   0  0  0  0  0  0  0  0  0  0  0  0
    8.6700   12.6220   -2.1770 N   0  0  0  0  0  0  0  0  0  0  0  0
    8.6210   11.6430   -2.0790 H   0  0  0  0  0  0  0  0  0  0  0  0
    7.9080   13.1170   -2.5570 H   0  0  0  0  0  0  0  0  0  0  0  0
  1  2  1  0  0  0  0
  3  4  1  0  0  0  0
  4  2  1  0  0  0  0
  4  5  1  0  0  0  0
  6  7  1  0  0  0  0
  6  4  1  6  0  0  0
  8  7  1  0  0  0  0
  9 11  2  0  0  0  0
  9 12  1  0  0  0  0
  9  8  1  0  0  0  0
 10  9  2  0  0  0  0
 12  6  1  0  0  0  0
 13  1  1  0  0  0  0
 14 13  1  0  0  0  0
 15 14  1  0  0  0  0
 16 15  2  0  0  0  0
 17 16  1  0  0  0  0
 18 17  2  0  0  0  0
 18 19  1  0  0  0  0
 19 20  2  0  0  0  0
 20 15  1  0  0  0  0
 21 22  1  0  0  0  0
 21 19  1  0  0  0  0
 23 21  1  0  0  0  0
M  END
>  <MODEL>
1

>  <REMARK>
 VINA RESULT:      -6.5      0.000      0.000
  Name = ZINC19731960
                            x       y       z     vdW  Elec       q    Type
                         _______ _______ _______ _____ _____    ______ ____

>  <TORSDO>
F 7

>  <vina_score>
-6.5

$$$$
ZINC04189752
 OpenBabel01081722313D

 27 28  0  0  1  0  0  0  0  0999 V2000
    7.5360   11.3720    1.3210 C   0  0  1  0  0  0  0  0  0  0  0  0
    7.8390   12.6600    0.6700 N   0  0  0  0  0  0  0  0  0  0  0  0
    6.9700   13.1810    0.5460 H   0  0  0  0  0  0  0  0  0  0  0  0
    8.4840   13.1900    1.2550 H   0  0  0  0  0  0  0  0  0  0  0  0
    8.4540   12.4340   -0.6520 C   0  0  0  0  0  0  0  0  0  0  0  0
    9.6600   13.3260   -0.7940 C   0  0  0  0  0  0  0  0  0  0  0  0
    9.5180   14.6940   -0.6640 C   0  0  0  0  0  0  0  0  0  0  0  0
   10.6350   15.5050   -0.7950 C   0  0  0  0  0  0  0  0  0  0  0  0
   11.8580   14.9060   -1.0530 C   0  0  0  0  0  0  0  0  0  0  0  0
   11.9230   13.5320   -1.1760 C   0  0  0  0  0  0  0  0  0  0  0  0
   10.8410   12.7900   -1.0390 N   0  0  0  0  0  0  0  0  0  0  0  0
    6.2420   10.8240    0.7740 C   0  0  0  0  0  0  0  0  0  0  0  0
    6.2110   10.2710   -0.4480 O   0  0  0  0  0  0  0  0  0  0  0  0
    5.2340   10.8850    1.4360 O   0  0  0  0  0  0  0  0  0  0  0  0
    8.6700   10.3850    1.0330 C   0  0  0  0  0  0  0  0  0  0  0  0
   11.0290   10.8990    1.5710 N   0  0  0  0  0  0  0  0  0  0  0  0
   11.2210   10.8870    0.6060 H   0  0  0  0  0  0  0  0  0  0  0  0
    9.7890   10.6070    2.0160 C   0  0  0  0  0  0  0  0  0  0  0  0
    9.5770   10.5240    3.2070 O   0  0  0  0  0  0  0  0  0  0  0  0
   12.2920   12.5500    2.8110 C   0  0  0  0  0  0  0  0  0  0  0  0
   13.2950   12.8620    3.7150 C   0  0  0  0  0  0  0  0  0  0  0  0
   14.0460   11.8540    4.2890 C   0  0  0  0  0  0  0  0  0  0  0  0
   13.7990   10.5320    3.9650 C   0  0  0  0  0  0  0  0  0  0  0  0
   12.7970   10.2130    3.0690 C   0  0  0  0  0  0  0  0  0  0  0  0
   12.0420   11.2190    2.4840 C   0  0  0  0  0  0  0  0  0  0  0  0
   10.3860   13.9660    2.9570 C   0  0  0  0  0  0  0  0  0  0  0  0
   11.5510   13.5410    2.2470 O   0  0  0  0  0  0  0  0  0  0  0  0
  1  2  1  6  0  0  0
  2  4  1  0  0  0  0
  3  2  1  0  0  0  0
  5  2  1  0  0  0  0
  6  7  1  0  0  0  0
  6  5  1  0  0  0  0
  8  7  2  0  0  0  0
  9  8  1  0  0  0  0
 10  9  2  0  0  0  0
 10 11  1  0  0  0  0
 11  6  2  0  0  0  0
 12  1  1  0  0  0  0
 12 14  1  0  0  0  0
 13 12  2  0  0  0  0
 15  1  1  0  0  0  0
 15 18  1  0  0  0  0
 16 18  1  0  0  0  0
 16 25  1  0  0  0  0
 17 16  1  0  0  0  0
 18 19  2  0  0  0  0
 20 21  1  0  0  0  0
 21 22  2  0  0  0  0
 23 22  1  0  0  0  0
 24 23  2  0  0  0  0
 25 20  2  0  0  0  0
 25 24  1  0  0  0  0
 27 20  1  0  0  0  0
 27 26  1  0  0  0  0
M  END
>  <MODEL>
1

>  <REMARK>
 VINA RESULT:      -6.5      0.000      0.000
  Name = ZINC04189752
                            x       y       z     vdW  Elec       q    Type
                         _______ _______ _______ _____ _____    ______ ____

>  <TORSDO>
F 8

>  <vina_score>
-6.5

$$$$
ZINC31220835
 OpenBabel01081722353D

 26 26  0  0  0  0  0  0  0  0999 V2000
    7.8960   12.8440   -0.3580 N   0  0  0  0  0  0  0  0  0  0  0  0
    8.1030   13.6240    0.2060 H   0  0  0  0  0  0  0  0  0  0  0  0
    7.5440   11.6750    0.2110 C   0  0  0  0  0  0  0  0  0  0  0  0
    7.2950   10.7130   -0.4850 O   0  0  0  0  0  0  0  0  0  0  0  0
    7.9710   12.9560   -1.8170 C   0  0  0  0  0  0  0  0  0  0  0  0
    8.7570   14.2140   -2.1930 C   0  0  0  0  0  0  0  0  0  0  0  0
    8.6790   15.1850   -1.0990 N   0  0  0  0  0  0  0  0  0  0  0  0
    8.3320   16.0550   -1.5020 H   0  0  0  0  0  0  0  0  0  0  0  0
   10.0380   15.5670   -0.2320 S   0  0  0  0  0  0  0  0  0  0  0  0
   10.2090   14.4820    0.6690 O   0  0  0  0  0  0  0  0  0  0  0  0
    9.8000   16.8810    0.2530 O   0  0  0  0  0  0  0  0  0  0  0  0
   12.3690   14.4600   -1.1370 C   0  0  0  0  0  0  0  0  0  0  0  0
   11.3790   15.5840   -1.4520 C   0  0  0  0  0  0  0  0  0  0  0  0
    7.4670   11.5600    1.7110 C   0  0  0  0  0  0  0  0  0  0  0  0
    8.5790   10.6370    2.2110 C   0  0  0  0  0  0  0  0  0  0  0  0
    9.7190   11.4660    2.7450 C   0  0  0  0  0  0  0  0  0  0  0  0
   10.8610   11.5950    2.0360 C   0  0  0  0  0  0  0  0  0  0  0  0
   11.0050   10.9120    0.7020 C   0  0  0  0  0  0  0  0  0  0  0  0
   11.8840   12.3550    2.5340 N   0  0  0  0  0  0  0  0  0  0  0  0
   12.7140   12.4570    2.0150 H   0  0  0  0  0  0  0  0  0  0  0  0
   11.7670   12.9660    3.7270 C   0  0  0  0  0  0  0  0  0  0  0  0
   10.6420   12.8490    4.4570 N   0  0  0  0  0  0  0  0  0  0  0  0
   10.5720   13.3020    5.3280 H   0  0  0  0  0  0  0  0  0  0  0  0
   12.6900   13.6330    4.1530 O   0  0  0  0  0  0  0  0  0  0  0  0
    9.6090   12.1130    3.9990 C   0  0  0  0  0  0  0  0  0  0  0  0
    8.5910   12.0060    4.6590 O   0  0  0  0  0  0  0  0  0  0  0  0
  1  2  1  0  0  0  0
  1  3  1  0  0  0  0
  3 14  1  0  0  0  0
  4  3  2  0  0  0  0
  5  1  1  0  0  0  0
  6  5  1  0  0  0  0
  6  7  1  0  0  0  0
  7  9  1  0  0  0  0
  8  7  1  0  0  0  0
  9 11  2  0  0  0  0
  9 10  2  0  0  0  0
 13 12  1  0  0  0  0
 13  9  1  0  0  0  0
 14 15  1  0  0  0  0
 15 16  1  0  0  0  0
 16 25  1  0  0  0  0
 17 19  1  0  0  0  0
 17 16  2  0  0  0  0
 18 17  1  0  0  0  0
 19 21  1  0  0  0  0
 20 19  1  0  0  0  0
 21 24  2  0  0  0  0
 21 22  1  0  0  0  0
 22 23  1  0  0  0  0
 25 22  1  0  0  0  0
 25 26  2  0  0  0  0
M  END
>  <MODEL>
1

>  <REMARK>
 VINA RESULT:      -6.5      0.000      0.000
  Name = ZINC31220835
                            x       y       z     vdW  Elec       q    Type
                         _______ _______ _______ _____ _____    ______ ____

>  <TORSDO>
F 8

>  <vina_score>
-6.5

$$$$
ZINC04226595
 OpenBabel01081722353D

 24 25  0  0  1  0  0  0  0  0999 V2000
    7.0870   10.7430    0.1490 C   0  0  0  0  0  0  0  0  0  0  0  0
    8.4370   11.4110    0.0910 C   0  0  0  0  0  0  0  0  0  0  0  0
    8.7020   12.1230   -1.0310 N   0  0  0  0  0  0  0  0  0  0  0  0
    8.0520   12.2020   -1.7650 H   0  0  0  0  0  0  0  0  0  0  0  0
    9.9350   12.7290   -1.0800 C   0  0  0  0  0  0  0  0  0  0  0  0
   10.2610   13.4880   -2.2330 C   0  0  0  0  0  0  0  0  0  0  0  0
   11.4970   14.1170   -2.3070 C   0  0  0  0  0  0  0  0  0  0  0  0
   12.4120   14.0020   -1.2710 C   0  0  0  0  0  0  0  0  0  0  0  0
   12.1220   13.2740   -0.1530 C   0  0  0  0  0  0  0  0  0  0  0  0
   10.8860   12.6240   -0.0380 C   0  0  0  0  0  0  0  0  0  0  0  0
   10.5600   11.8630    1.1110 C   0  0  2  0  0  0  0  0  0  0  0  0
    9.3100   11.2620    1.1580 C   0  0  0  0  0  0  0  0  0  0  0  0
    9.2960   13.6130   -3.3380 C   0  0  0  0  0  0  0  0  0  0  0  0
    8.3960   14.6170   -3.3370 O   0  0  0  0  0  0  0  0  0  0  0  0
    9.3080   12.8090   -4.2490 O   0  0  0  0  0  0  0  0  0  0  0  0
   11.4550   11.7330    2.1600 N   0  0  0  0  0  0  0  0  0  0  0  0
   12.0180   10.9280    2.2300 H   0  0  0  0  0  0  0  0  0  0  0  0
   11.5660   12.7930    3.1640 C   0  0  0  0  0  0  0  0  0  0  0  0
   10.2250   13.5190    3.2900 C   0  0  0  0  0  0  0  0  0  0  0  0
   10.3480   14.8420    2.7630 O   0  0  0  0  0  0  0  0  0  0  0  0
    9.2930   15.2130    1.8740 C   0  0  0  0  0  0  0  0  0  0  0  0
    9.8490   16.1180    0.7730 C   0  0  0  0  0  0  0  0  0  0  0  0
    9.0300   16.0070   -0.3930 O   0  0  0  0  0  0  0  0  0  0  0  0
    9.5200   15.5460   -1.0910 H   0  0  0  0  0  0  0  0  0  0  0  0
  2  1  1  0  0  0  0
  2 12  2  0  0  0  0
  3  2  1  0  0  0  0
  4  3  1  0  0  0  0
  5  3  1  0  0  0  0
  5 10  2  0  0  0  0
  6  5  1  0  0  0  0
  7  6  2  0  0  0  0
  7  8  1  0  0  0  0
  8  9  2  0  0  0  0
  9 10  1  0  0  0  0
 10 11  1  0  0  0  0
 11 12  1  0  0  0  0
 11 16  1  1  0  0  0
 13 14  1  0  0  0  0
 13  6  1  0  0  0  0
 15 13  2  0  0  0  0
 16 17  1  0  0  0  0
 16 18  1  0  0  0  0
 18 19  1  0  0  0  0
 20 19  1  0  0  0  0
 21 20  1  0  0  0  0
 22 21  1  0  0  0  0
 23 22  1  0  0  0  0
 24 23  1  0  0  0  0
M  END
>  <MODEL>
1

>  <REMARK>
 VINA RESULT:      -6.5      0.000      0.000
  Name = ZINC04226595
                            x       y       z     vdW  Elec       q    Type
                         _______ _______ _______ _____ _____    ______ ____

>  <TORSDO>
F 8

>  <vina_score>
-6.5

$$$$
ZINC01731877
 OpenBabel01081722343D

 22 22  0  0  0  0  0  0  0  0999 V2000
   10.1960   14.1330    2.5370 N   0  0  0  0  0  0  0  0  0  0  0  0
    9.5840   14.8980    2.6420 H   0  0  0  0  0  0  0  0  0  0  0  0
   10.3830   13.2590    3.5750 C   0  0  0  0  0  0  0  0  0  0  0  0
   11.5700   13.2510    4.1430 N   0  0  0  0  0  0  0  0  0  0  0  0
   11.7520   12.6400    4.8920 H   0  0  0  0  0  0  0  0  0  0  0  0
   12.2750   13.8560    3.8180 H   0  0  0  0  0  0  0  0  0  0  0  0
    9.2570   12.3620    4.0180 C   0  0  0  0  0  0  0  0  0  0  0  0
    9.1620   10.9210    2.9220 S   0  0  0  0  0  0  0  0  0  0  0  0
    7.7290   11.4340    1.5490 S   0  0  0  0  0  0  0  0  0  0  0  0
    7.5260   12.9390    1.6530 O   0  0  0  0  0  0  0  0  0  0  0  0
    6.5170   10.8310    1.9830 O   0  0  0  0  0  0  0  0  0  0  0  0
    8.2870   11.1870    0.2670 O   0  0  0  0  0  0  0  0  0  0  0  0
   10.9060   13.9310    1.2720 C   0  0  0  0  0  0  0  0  0  0  0  0
   10.4350   14.9690    0.2510 C   0  0  0  0  0  0  0  0  0  0  0  0
   11.0980   13.7230   -1.8150 C   0  0  0  0  0  0  0  0  0  0  0  0
   10.7880   13.0910   -3.0040 C   0  0  0  0  0  0  0  0  0  0  0  0
    9.4680   13.0160   -3.4250 C   0  0  0  0  0  0  0  0  0  0  0  0
    8.4630   13.5770   -2.6500 C   0  0  0  0  0  0  0  0  0  0  0  0
    8.7780   14.2090   -1.4630 C   0  0  0  0  0  0  0  0  0  0  0  0
   10.0940   14.2810   -1.0450 C   0  0  0  0  0  0  0  0  0  0  0  0
    9.1600   12.3960   -4.5950 O   0  0  0  0  0  0  0  0  0  0  0  0
    9.7530   11.7710   -4.9630 H   0  0  0  0  0  0  0  0  0  0  0  0
  1  2  1  0  0  0  0
  1  3  1  0  0  0  0
  3  7  1  0  0  0  0
  3  4  2  0  0  0  0
  4  5  1  0  0  0  0
  6  4  1  0  0  0  0
  8  7  1  0  0  0  0
  9 10  2  0  0  0  0
  9 11  1  0  0  0  0
  9  8  1  0  0  0  0
 12  9  2  0  0  0  0
 13  1  1  0  0  0  0
 14 13  1  0  0  0  0
 15 20  2  0  0  0  0
 16 15  1  0  0  0  0
 17 16  2  0  0  0  0
 17 18  1  0  0  0  0
 18 19  2  0  0  0  0
 19 20  1  0  0  0  0
 20 14  1  0  0  0  0
 21 17  1  0  0  0  0
 22 21  1  0  0  0  0
M  END
>  <MODEL>
1

>  <REMARK>
 VINA RESULT:      -6.5      0.000      0.000
  Name = ZINC01731877
                            x       y       z     vdW  Elec       q    Type
                         _______ _______ _______ _____ _____    ______ ____

>  <TORSDO>
F 8

>  <vina_score>
-6.5

$$$$
ZINC29530525
 OpenBabel01081722303D

 26 27  0  0  0  0  0  0  0  0999 V2000
    8.8760   13.2130    1.9580 C   0  0  0  0  0  0  0  0  0  0  0  0
    9.6900   14.2530    1.5370 C   0  0  0  0  0  0  0  0  0  0  0  0
    9.9600   14.4050    0.1780 C   0  0  0  0  0  0  0  0  0  0  0  0
    9.3980   13.4960   -0.7470 C   0  0  0  0  0  0  0  0  0  0  0  0
    9.7010   13.6840   -2.1710 C   0  0  0  0  0  0  0  0  0  0  0  0
   10.5030   14.7220   -2.5050 N   0  0  0  0  0  0  0  0  0  0  0  0
   11.0010   15.5500   -1.5480 C   0  0  0  0  0  0  0  0  0  0  0  0
    9.2490   12.9370   -3.0180 O   0  0  0  0  0  0  0  0  0  0  0  0
    8.5820   12.4560   -0.3000 C   0  0  0  0  0  0  0  0  0  0  0  0
   10.7500   15.4090   -0.2820 N   0  0  0  0  0  0  0  0  0  0  0  0
   11.1440   16.0440    0.3590 H   0  0  0  0  0  0  0  0  0  0  0  0
    8.3320   12.3180    1.0350 C   0  0  0  0  0  0  0  0  0  0  0  0
    7.4710   11.2110    1.5090 N   0  0  0  0  0  0  0  0  0  0  0  0
    7.9720   10.1550    1.8550 O   0  0  0  0  0  0  0  0  0  0  0  0
    6.2630   11.3550    1.5550 O   0  0  0  0  0  0  0  0  0  0  0  0
    8.6040   13.0580    3.3130 N   0  0  0  0  0  0  0  0  0  0  0  0
    7.6900   13.1970    3.6510 H   0  0  0  0  0  0  0  0  0  0  0  0
    9.6780   12.6850    4.2390 C   0  0  0  0  0  0  0  0  0  0  0  0
    9.5670   11.1960    4.5750 C   0  0  0  0  0  0  0  0  0  0  0  0
   10.8100   10.4650    4.0660 C   0  0  0  0  0  0  0  0  0  0  0  0
   11.0790   10.8660    2.6820 N   0  0  0  0  0  0  0  0  0  0  0  0
   10.8450   10.0660    2.0940 H   0  0  0  0  0  0  0  0  0  0  0  0
   13.1780   12.3770    3.6240 C   0  0  0  0  0  0  0  0  0  0  0  0
   12.5990   11.3540    2.2430 S   0  0  0  0  0  0  0  0  0  0  0  0
   12.4020   12.1570    1.0880 O   0  0  0  0  0  0  0  0  0  0  0  0
   13.3580   10.1540    2.1700 O   0  0  0  0  0  0  0  0  0  0  0  0
  1 16  1  0  0  0  0
  2  1  1  0  0  0  0
  3  2  2  0  0  0  0
  4  9  2  0  0  0  0
  4  3  1  0  0  0  0
  5  4  1  0  0  0  0
  6  5  1  0  0  0  0
  6  7  2  0  0  0  0
  7 10  1  0  0  0  0
  8  5  2  0  0  0  0
  9 12  1  0  0  0  0
 10  3  1  0  0  0  0
 10 11  1  0  0  0  0
 12 13  1  0  0  0  0
 12  1  2  0  0  0  0
 13 15  2  0  0  0  0
 13 14  2  0  0  0  0
 16 17  1  0  0  0  0
 16 18  1  0  0  0  0
 18 19  1  0  0  0  0
 20 19  1  0  0  0  0
 21 20  1  0  0  0  0
 22 21  1  0  0  0  0
 24 21  1  0  0  0  0
 24 23  1  0  0  0  0
 25 24  2  0  0  0  0
 26 24  2  0  0  0  0
M  END
>  <MODEL>
1

>  <REMARK>
 VINA RESULT:      -6.5      0.000      0.000
  Name = ZINC29530525
                            x       y       z     vdW  Elec       q    Type
                         _______ _______ _______ _____ _____    ______ ____

>  <TORSDO>
F 7

>  <vina_score>
-6.5

$$$$
ZINC32036344
 OpenBabel01081722383D

 25 27  0  0  0  0  0  0  0  0999 V2000
   11.7990   13.5860   -1.8030 C   0  0  0  0  0  0  0  0  0  0  0  0
   12.3680   13.1510   -0.7170 N   0  0  0  0  0  0  0  0  0  0  0  0
   11.6340   13.5250    0.3600 C   0  0  0  0  0  0  0  0  0  0  0  0
   10.5300   14.2460   -0.1240 C   0  0  0  0  0  0  0  0  0  0  0  0
    9.6440   14.7320    0.7420 N   0  0  0  0  0  0  0  0  0  0  0  0
    9.7990   14.5380    2.0420 C   0  0  0  0  0  0  0  0  0  0  0  0
   10.8260   13.8630    2.5410 N   0  0  0  0  0  0  0  0  0  0  0  0
   11.7570   13.3440    1.7480 C   0  0  0  0  0  0  0  0  0  0  0  0
   10.6600   14.2680   -1.4890 N   0  0  0  0  0  0  0  0  0  0  0  0
   12.8280   12.6460    2.2780 N   0  0  0  0  0  0  0  0  0  0  0  0
   13.0920   13.0600    3.6800 C   0  0  0  0  0  0  0  0  0  0  0  0
   13.9030   11.8710    4.2530 C   0  0  0  0  0  0  0  0  0  0  0  0
   13.2360   10.6440    3.5910 C   0  0  0  0  0  0  0  0  0  0  0  0
   12.5390   11.1970    2.3330 C   0  0  0  0  0  0  0  0  0  0  0  0
    8.8550   15.0590    2.9120 N   0  0  0  0  0  0  0  0  0  0  0  0
    8.1410   15.6450    2.5700 H   0  0  0  0  0  0  0  0  0  0  0  0
    8.8970   14.8410    3.8710 H   0  0  0  0  0  0  0  0  0  0  0  0
    9.7440   14.9100   -2.4370 C   0  0  0  0  0  0  0  0  0  0  0  0
    8.7580   13.8710   -2.9750 C   0  0  0  0  0  0  0  0  0  0  0  0
    8.7170   12.7500   -2.0890 O   0  0  0  0  0  0  0  0  0  0  0  0
    7.4680   12.5910   -1.4120 C   0  0  0  0  0  0  0  0  0  0  0  0
    7.7030   11.5390    0.0570 P   0  0  0  0  0  0  0  0  0  0  0  0
    6.9070   10.1540   -0.1420 O   0  0  0  0  0  0  0  0  0  0  0  0
    7.1370   12.3000    1.3590 O   0  0  0  0  0  0  0  0  0  0  0  0
    9.1450   11.2580    0.2380 O   0  0  0  0  0  0  0  0  0  0  0  0
  1  9  1  0  0  0  0
  1  2  2  0  0  0  0
  2  3  1  0  0  0  0
  3  8  1  0  0  0  0
  4  3  2  0  0  0  0
  4  5  1  0  0  0  0
  5  6  2  0  0  0  0
  6  7  1  0  0  0  0
  6 15  1  0  0  0  0
  8 10  1  0  0  0  0
  8  7  2  0  0  0  0
  9  4  1  0  0  0  0
 10 14  1  0  0  0  0
 10 11  1  0  0  0  0
 11 12  1  0  0  0  0
 13 12  1  0  0  0  0
 14 13  1  0  0  0  0
 15 17  1  0  0  0  0
 16 15  1  0  0  0  0
 18  9  1  0  0  0  0
 19 18  1  0  0  0  0
 19 20  1  0  0  0  0
 20 21  1  0  0  0  0
 21 22  1  0  0  0  0
 22 25  1  0  0  0  0
 22 24  1  0  0  0  0
 23 22  2  0  0  0  0
M  END
>  <MODEL>
1

>  <REMARK>
 VINA RESULT:      -6.5      0.000      0.000
  Name = ZINC32036344
                            x       y       z     vdW  Elec       q    Type
                         _______ _______ _______ _____ _____    ______ ____

>  <TORSDO>
F 7

>  <vina_score>
-6.5

$$$$
ZINC10186482
 OpenBabel01081722403D

 25 25  0  0  1  0  0  0  0  0999 V2000
    8.9680   13.8970    0.7640 N   0  0  0  0  0  0  0  0  0  0  0  0
    8.8890   14.8170    1.1060 H   0  0  0  0  0  0  0  0  0  0  0  0
    8.7780   12.8520    1.5940 C   0  0  0  0  0  0  0  0  0  0  0  0
    8.7770   11.7210    1.1550 O   0  0  0  0  0  0  0  0  0  0  0  0
   11.6810   14.1700   -0.0490 C   0  0  0  0  0  0  0  0  0  0  0  0
   10.5920   13.7970   -1.0230 C   0  0  0  0  0  0  0  0  0  0  0  0
   10.9000   13.5730   -2.3500 C   0  0  0  0  0  0  0  0  0  0  0  0
    9.8970   13.2350   -3.2470 C   0  0  0  0  0  0  0  0  0  0  0  0
    8.5860   13.1170   -2.8100 C   0  0  0  0  0  0  0  0  0  0  0  0
    8.2770   13.3360   -1.4820 C   0  0  0  0  0  0  0  0  0  0  0  0
    9.2810   13.6740   -0.5840 C   0  0  0  0  0  0  0  0  0  0  0  0
   10.2000   13.0200   -4.5550 O   0  0  0  0  0  0  0  0  0  0  0  0
   10.3230   12.1460   -4.8700 H   0  0  0  0  0  0  0  0  0  0  0  0
    8.5660   13.0890    3.0680 C   0  0  0  0  0  0  0  0  0  0  0  0
    9.7040   12.4360    3.8570 C   0  0  2  0  0  0  0  0  0  0  0  0
   10.8740   12.2730    2.9740 N   0  0  0  0  0  0  0  0  0  0  0  0
   11.2080   11.3120    3.0390 H   0  0  0  0  0  0  0  0  0  0  0  0
   10.6030   12.4850    2.0140 H   0  0  0  0  0  0  0  0  0  0  0  0
   11.9570   13.1850    3.3860 C   0  0  0  0  0  0  0  0  0  0  0  0
   13.2970   12.4560    3.2740 C   0  0  0  0  0  0  0  0  0  0  0  0
   13.0580   10.9440    3.2920 C   0  0  0  0  0  0  0  0  0  0  0  0
   14.1910   12.8450    4.4530 C   0  0  0  0  0  0  0  0  0  0  0  0
    9.2580   11.0860    4.3560 C   0  0  0  0  0  0  0  0  0  0  0  0
   10.0730   10.3530    5.1300 O   0  0  0  0  0  0  0  0  0  0  0  0
    8.1650   10.6640    4.0590 O   0  0  0  0  0  0  0  0  0  0  0  0
  1  2  1  0  0  0  0
  1  3  1  0  0  0  0
  3 14  1  0  0  0  0
  4  3  2  0  0  0  0
  6 11  1  0  0  0  0
  6  5  1  0  0  0  0
  7  6  2  0  0  0  0
  8  9  2  0  0  0  0
  8  7  1  0  0  0  0
  9 10  1  0  0  0  0
 10 11  2  0  0  0  0
 11  1  1  0  0  0  0
 12  8  1  0  0  0  0
 13 12  1  0  0  0  0
 14 15  1  0  0  0  0
 15 16  1  6  0  0  0
 15 23  1  0  0  0  0
 16 17  1  0  0  0  0
 16 19  1  0  0  0  0
 18 16  1  0  0  0  0
 20 21  1  0  0  0  0
 20 19  1  0  0  0  0
 20 22  1  0  0  0  0
 23 24  1  0  0  0  0
 25 23  2  0  0  0  0
M  END
>  <MODEL>
1

>  <REMARK>
 VINA RESULT:      -6.5      0.000      0.000
  Name = ZINC10186482
                            x       y       z     vdW  Elec       q    Type
                         _______ _______ _______ _____ _____    ______ ____

>  <TORSDO>
F 8

>  <vina_score>
-6.5

$$$$
ZINC05116227
 OpenBabel01081722413D

 22 22  0  0  0  0  0  0  0  0999 V2000
   11.6250   12.0580    1.9760 N   0  0  0  0  0  0  0  0  0  0  0  0
   11.3760   15.3570   -1.6610 C   0  0  0  0  0  0  0  0  0  0  0  0
   10.9630   14.8750   -0.2940 C   0  0  0  0  0  0  0  0  0  0  0  0
   11.4810   13.6970    0.2080 C   0  0  0  0  0  0  0  0  0  0  0  0
   11.1010   13.2540    1.4680 C   0  0  0  0  0  0  0  0  0  0  0  0
   10.1980   13.9920    2.2210 C   0  0  0  0  0  0  0  0  0  0  0  0
    9.6840   15.1720    1.7200 C   0  0  0  0  0  0  0  0  0  0  0  0
   10.0640   15.6160    0.4610 C   0  0  0  0  0  0  0  0  0  0  0  0
    9.5410   16.8100   -0.0470 N   0  0  0  0  0  0  0  0  0  0  0  0
    8.5860   17.0190    0.0710 H   0  0  0  0  0  0  0  0  0  0  0  0
   10.1270   17.4410   -0.5260 H   0  0  0  0  0  0  0  0  0  0  0  0
   13.0310   11.9880    2.3820 C   0  0  0  0  0  0  0  0  0  0  0  0
   13.2390   12.8230    3.6470 C   0  0  0  0  0  0  0  0  0  0  0  0
   13.4080   10.5330    2.6650 C   0  0  0  0  0  0  0  0  0  0  0  0
   10.7660   10.8790    2.1010 C   0  0  0  0  0  0  0  0  0  0  0  0
   10.0490   10.9110    3.4520 C   0  0  0  0  0  0  0  0  0  0  0  0
    8.6060   10.4330    3.2750 C   0  0  0  0  0  0  0  0  0  0  0  0
    8.3320   10.1770    1.7920 C   0  0  0  0  0  0  0  0  0  0  0  0
    7.0840   11.3520    1.1980 S   0  0  0  0  0  0  0  0  0  0  0  0
    5.7600   10.8170    1.7260 O   0  0  0  0  0  0  0  0  0  0  0  0
    6.9690   11.2720   -0.2160 O   0  0  0  0  0  0  0  0  0  0  0  0
    7.2490   12.6080    1.8420 O   0  0  0  0  0  0  0  0  0  0  0  0
  1 15  1  0  0  0  0
  1 12  1  0  0  0  0
  2  3  1  0  0  0  0
  3  4  2  0  0  0  0
  3  8  1  0  0  0  0
  4  5  1  0  0  0  0
  5  1  1  0  0  0  0
  5  6  2  0  0  0  0
  7  6  1  0  0  0  0
  8  7  2  0  0  0  0
  9 10  1  0  0  0  0
  9  8  1  0  0  0  0
 11  9  1  0  0  0  0
 12 14  1  0  0  0  0
 12 13  1  0  0  0  0
 15 16  1  0  0  0  0
 17 16  1  0  0  0  0
 18 17  1  0  0  0  0
 19 20  2  0  0  0  0
 19 18  1  0  0  0  0
 19 22  1  0  0  0  0
 21 19  2  0  0  0  0
M  END
>  <MODEL>
1

>  <REMARK>
 VINA RESULT:      -6.4      0.000      0.000
  Name = ZINC05116227
                            x       y       z     vdW  Elec       q    Type
                         _______ _______ _______ _____ _____    ______ ____

>  <TORSDO>
F 8

>  <vina_score>
-6.4

$$$$
ZINC09305196
 OpenBabel01081722423D

 27 28  0  0  0  0  0  0  0  0999 V2000
    8.9860   13.8050   -3.8280 C   0  0  0  0  0  0  0  0  0  0  0  0
    9.9270   12.8330   -3.5400 C   0  0  0  0  0  0  0  0  0  0  0  0
   10.5750   12.8350   -2.3180 C   0  0  0  0  0  0  0  0  0  0  0  0
   10.2700   13.8050   -1.3800 C   0  0  0  0  0  0  0  0  0  0  0  0
    9.3150   14.7830   -1.6660 C   0  0  0  0  0  0  0  0  0  0  0  0
    9.0130   15.7540   -0.7050 N   0  0  0  0  0  0  0  0  0  0  0  0
    8.2060   16.3090   -0.8120 H   0  0  0  0  0  0  0  0  0  0  0  0
    9.8110   15.9370    0.3630 C   0  0  0  0  0  0  0  0  0  0  0  0
   11.0780   15.1380    0.5260 C   0  0  0  0  0  0  0  0  0  0  0  0
    9.5050   16.7540    1.2070 O   0  0  0  0  0  0  0  0  0  0  0  0
   10.9120   13.8330   -0.1310 N   0  0  0  0  0  0  0  0  0  0  0  0
   11.3600   12.7010    0.4470 C   0  0  0  0  0  0  0  0  0  0  0  0
   11.9740   12.7540    1.6450 N   0  0  0  0  0  0  0  0  0  0  0  0
   12.0940   13.6190    2.1000 H   0  0  0  0  0  0  0  0  0  0  0  0
   11.2120   11.6330   -0.1140 O   0  0  0  0  0  0  0  0  0  0  0  0
    8.6750   14.7770   -2.8940 C   0  0  0  0  0  0  0  0  0  0  0  0
   12.4610   11.5240    2.2740 C   0  0  0  0  0  0  0  0  0  0  0  0
   11.7900   11.3460    3.6370 C   0  0  0  0  0  0  0  0  0  0  0  0
   10.8320   10.1540    3.5840 C   0  0  0  0  0  0  0  0  0  0  0  0
    9.4620   10.6290    3.1760 C   0  0  0  0  0  0  0  0  0  0  0  0
    9.0090   10.3870    1.9290 N   0  0  0  0  0  0  0  0  0  0  0  0
    9.5730    9.9000    1.2860 H   0  0  0  0  0  0  0  0  0  0  0  0
    8.7670   11.2290    3.9680 O   0  0  0  0  0  0  0  0  0  0  0  0
    7.6770   10.8490    1.5320 C   0  0  0  0  0  0  0  0  0  0  0  0
    7.7980   12.1880    0.8010 C   0  0  0  0  0  0  0  0  0  0  0  0
    7.6580   13.2560    1.7400 O   0  0  0  0  0  0  0  0  0  0  0  0
    7.7860   14.1040    1.2870 H   0  0  0  0  0  0  0  0  0  0  0  0
  1  2  2  0  0  0  0
  1 16  1  0  0  0  0
  2  3  1  0  0  0  0
  3  4  2  0  0  0  0
  4 11  1  0  0  0  0
  5  4  1  0  0  0  0
  5  6  1  0  0  0  0
  6  8  1  0  0  0  0
  7  6  1  0  0  0  0
  8  9  1  0  0  0  0
  8 10  2  0  0  0  0
 11 12  1  0  0  0  0
 11  9  1  0  0  0  0
 12 13  1  0  0  0  0
 13 14  1  0  0  0  0
 13 17  1  0  0  0  0
 15 12  2  0  0  0  0
 16  5  2  0  0  0  0
 17 18  1  0  0  0  0
 19 18  1  0  0  0  0
 20 19  1  0  0  0  0
 20 23  2  0  0  0  0
 21 20  1  0  0  0  0
 22 21  1  0  0  0  0
 24 21  1  0  0  0  0
 25 24  1  0  0  0  0
 25 26  1  0  0  0  0
 27 26  1  0  0  0  0
M  END
>  <MODEL>
1

>  <REMARK>
 VINA RESULT:      -6.4      0.000      0.000
  Name = ZINC09305196
                            x       y       z     vdW  Elec       q    Type
                         _______ _______ _______ _____ _____    ______ ____

>  <TORSDO>
F 7

>  <vina_score>
-6.4

$$$$
ZINC05114471
 OpenBabel01081722453D

 28 28  0  0  1  0  0  0  0  0999 V2000
    8.2970   12.7680    0.1690 C   0  0  1  0  0  0  0  0  0  0  0  0
    7.8750   11.5580    0.9630 C   0  0  0  0  0  0  0  0  0  0  0  0
    8.6420   10.4510    0.9610 N   0  0  0  0  0  0  0  0  0  0  0  0
    8.3670    9.6600    1.4790 H   0  0  0  0  0  0  0  0  0  0  0  0
    9.4790   10.4310    0.4420 H   0  0  0  0  0  0  0  0  0  0  0  0
    6.8450   11.5810    1.6010 O   0  0  0  0  0  0  0  0  0  0  0  0
    9.6380   13.2010    0.6070 N   0  0  0  0  0  0  0  0  0  0  0  0
   10.2190   12.3760    0.7620 H   0  0  0  0  0  0  0  0  0  0  0  0
   10.0530   13.7910   -0.1130 H   0  0  0  0  0  0  0  0  0  0  0  0
    9.5440   13.9620    1.8670 C   0  0  2  0  0  0  0  0  0  0  0  0
    9.6960   15.4340    1.5780 C   0  0  0  0  0  0  0  0  0  0  0  0
    9.5370   16.3310    2.5630 O   0  0  0  0  0  0  0  0  0  0  0  0
    9.9590   15.8050    0.4590 O   0  0  0  0  0  0  0  0  0  0  0  0
   10.6580   13.5110    2.8130 C   0  0  0  0  0  0  0  0  0  0  0  0
   10.1920   12.3160    3.6030 C   0  0  0  0  0  0  0  0  0  0  0  0
    9.0630   12.2260    4.3330 C   0  0  0  0  0  0  0  0  0  0  0  0
    9.0170   11.0010    4.8760 N   0  0  0  0  0  0  0  0  0  0  0  0
   10.0740   10.3280    4.5130 C   0  0  0  0  0  0  0  0  0  0  0  0
   10.8310   11.1100    3.7130 N   0  0  0  0  0  0  0  0  0  0  0  0
   11.6840   10.8600    3.2880 H   0  0  0  0  0  0  0  0  0  0  0  0
    8.3480   12.4090   -1.3180 C   0  0  1  0  0  0  0  0  0  0  0  0
    6.9920   12.0540   -1.7710 N   0  0  0  0  0  0  0  0  0  0  0  0
    7.0160   11.8110   -2.7600 H   0  0  0  0  0  0  0  0  0  0  0  0
    6.6510   11.2560   -1.2330 H   0  0  0  0  0  0  0  0  0  0  0  0
    6.3680   12.8480   -1.6310 H   0  0  0  0  0  0  0  0  0  0  0  0
    7.7690   14.6420   -2.2790 C   0  0  0  0  0  0  0  0  0  0  0  0
    8.8800   13.6040   -2.1130 C   0  0  0  0  0  0  0  0  0  0  0  0
    9.3480   13.1320   -3.4910 C   0  0  0  0  0  0  0  0  0  0  0  0
  1  7  1  1  0  0  0
  1  2  1  0  0  0  0
  2  6  2  0  0  0  0
  3  2  1  0  0  0  0
  3  4  1  0  0  0  0
  5  3  1  0  0  0  0
  7  8  1  0  0  0  0
  9  7  1  0  0  0  0
 10  7  1  6  0  0  0
 10 14  1  0  0  0  0
 11 10  1  0  0  0  0
 11 12  1  0  0  0  0
 13 11  2  0  0  0  0
 14 15  1  0  0  0  0
 15 19  1  0  0  0  0
 15 16  2  0  0  0  0
 16 17  1  0  0  0  0
 18 17  2  0  0  0  0
 19 18  1  0  0  0  0
 20 19  1  0  0  0  0
 21 27  1  6  0  0  0
 21  1  1  0  0  0  0
 22 25  1  0  0  0  0
 22 21  1  0  0  0  0
 22 24  1  0  0  0  0
 23 22  1  0  0  0  0
 26 27  1  0  0  0  0
 28 27  1  0  0  0  0
M  END
>  <MODEL>
1

>  <REMARK>
 VINA RESULT:      -6.4      0.000      0.000
  Name = ZINC05114471
                            x       y       z     vdW  Elec       q    Type
                         _______ _______ _______ _____ _____    ______ ____

>  <TORSDO>
F 9

>  <vina_score>
-6.4

$$$$
ZINC04340004
 OpenBabel01081722533D

 22 23  0  0  1  0  0  0  0  0999 V2000
   11.8820   13.2580    0.9630 N   0  0  0  0  0  0  0  0  0  0  0  0
   12.1360   12.4660    0.3730 H   0  0  0  0  0  0  0  0  0  0  0  0
   12.3670   13.1970    1.8580 H   0  0  0  0  0  0  0  0  0  0  0  0
   10.4250   13.2350    1.1960 C   0  0  1  0  0  0  0  0  0  0  0  0
    9.9670   11.7860    1.5270 C   0  0  0  0  0  0  0  0  0  0  0  0
    8.3560   12.1200    2.3560 S   0  0  0  0  0  0  0  0  0  0  0  0
    8.6300   13.8680    2.8600 C   0  0  0  0  0  0  0  0  0  0  0  0
    8.2590   11.3120    3.5200 O   0  0  0  0  0  0  0  0  0  0  0  0
    7.3190   12.0760    1.3860 O   0  0  0  0  0  0  0  0  0  0  0  0
   10.0850   14.1300    2.4010 C   0  0  1  0  0  0  0  0  0  0  0  0
   10.9810   13.8390    3.4770 O   0  0  0  0  0  0  0  0  0  0  0  0
   11.2070   12.8950    3.4620 H   0  0  0  0  0  0  0  0  0  0  0  0
   12.2720   14.5070    0.2820 C   0  0  0  0  0  0  0  0  0  0  0  0
   12.3180   14.2630   -1.2270 C   0  0  0  0  0  0  0  0  0  0  0  0
   11.5690   15.3840   -1.9490 C   0  0  0  0  0  0  0  0  0  0  0  0
    9.2380   14.8290   -1.5970 C   0  0  0  0  0  0  0  0  0  0  0  0
   10.3500   14.8220   -2.5700 N   0  0  0  0  0  0  0  0  0  0  0  0
   10.0930   15.3950   -3.3730 H   0  0  0  0  0  0  0  0  0  0  0  0
   10.6090   13.4400   -3.0280 C   0  0  0  0  0  0  0  0  0  0  0  0
    9.3420   12.8990   -3.6970 C   0  0  0  0  0  0  0  0  0  0  0  0
    8.2570   12.9570   -2.7670 O   0  0  0  0  0  0  0  0  0  0  0  0
    7.9850   14.2740   -2.2800 C   0  0  0  0  0  0  0  0  0  0  0  0
  1  3  1  0  0  0  0
  2  1  1  0  0  0  0
  4  1  1  1  0  0  0
  4  5  1  0  0  0  0
  4 10  1  0  0  0  0
  5  6  1  0  0  0  0
  6  7  1  0  0  0  0
  6  8  2  0  0  0  0
  9  6  2  0  0  0  0
 10  7  1  0  0  0  0
 10 11  1  1  0  0  0
 12 11  1  0  0  0  0
 13  1  1  0  0  0  0
 14 13  1  0  0  0  0
 15 14  1  0  0  0  0
 17 15  1  0  0  0  0
 17 16  1  0  0  0  0
 18 17  1  0  0  0  0
 19 17  1  0  0  0  0
 20 19  1  0  0  0  0
 20 21  1  0  0  0  0
 21 22  1  0  0  0  0
 22 16  1  0  0  0  0
M  END
>  <MODEL>
1

>  <REMARK>
 VINA RESULT:      -6.4      0.000      0.000
  Name = ZINC04340004
                            x       y       z     vdW  Elec       q    Type
                         _______ _______ _______ _____ _____    ______ ____

>  <TORSDO>
F 6

>  <vina_score>
-6.4

$$$$
ZINC04771070
 OpenBabel01081722543D

 24 25  0  0  0  0  0  0  0  0999 V2000
    8.5910   12.6570   -0.2290 C   0  0  0  0  0  0  0  0  0  0  0  0
    8.6470   13.0490    1.0980 C   0  0  0  0  0  0  0  0  0  0  0  0
    9.6890   13.8400    1.5430 C   0  0  0  0  0  0  0  0  0  0  0  0
   10.6790   14.2420    0.6650 C   0  0  0  0  0  0  0  0  0  0  0  0
   10.6320   13.8500   -0.6610 C   0  0  0  0  0  0  0  0  0  0  0  0
   11.9910   14.3950   -1.8570 Br  0  0  0  0  0  0  0  0  0  0  0  0
    9.5860   13.0610   -1.1130 C   0  0  0  0  0  0  0  0  0  0  0  0
    7.5650   11.8790   -0.6680 O   0  0  0  0  0  0  0  0  0  0  0  0
    5.8240   10.3430    0.0000 C   0  0  0  0  0  0  0  0  0  0  0  0
    7.3180   10.6680    0.0500 C   0  0  0  0  0  0  0  0  0  0  0  0
    9.7490   14.2650    2.9880 C   0  0  0  0  0  0  0  0  0  0  0  0
   10.6980   13.4090    3.7110 N   0  0  0  0  0  0  0  0  0  0  0  0
   11.6320   13.6510    3.9030 H   0  0  0  0  0  0  0  0  0  0  0  0
   10.1120   12.2310    4.0810 N   0  0  0  0  0  0  0  0  0  0  0  0
   10.6540   10.9930    4.0300 C   0  0  0  0  0  0  0  0  0  0  0  0
    9.7460   10.1540    4.4790 N   0  0  0  0  0  0  0  0  0  0  0  0
    8.6760   10.7830    4.8080 N   0  0  0  0  0  0  0  0  0  0  0  0
    8.8200   12.0480    4.6030 N   0  0  0  0  0  0  0  0  0  0  0  0
   11.9250   10.6680    3.5860 N   0  0  0  0  0  0  0  0  0  0  0  0
   12.2840    9.7650    3.7400 H   0  0  0  0  0  0  0  0  0  0  0  0
   12.4690   11.3420    3.1180 H   0  0  0  0  0  0  0  0  0  0  0  0
    9.5350   12.6790   -2.4180 O   0  0  0  0  0  0  0  0  0  0  0  0
    9.0360   13.6360   -3.3550 C   0  0  0  0  0  0  0  0  0  0  0  0
    8.0800   14.5970   -2.6440 C   0  0  0  0  0  0  0  0  0  0  0  0
  1  2  2  0  0  0  0
  2  3  1  0  0  0  0
  3 11  1  0  0  0  0
  4  3  2  0  0  0  0
  5  4  1  0  0  0  0
  6  5  1  0  0  0  0
  7  5  2  0  0  0  0
  7  1  1  0  0  0  0
  8  1  1  0  0  0  0
  8 10  1  0  0  0  0
  9 10  1  0  0  0  0
 11 12  1  0  0  0  0
 12 13  1  0  0  0  0
 12 14  1  0  0  0  0
 14 18  1  0  0  0  0
 15 14  1  0  0  0  0
 15 16  2  0  0  0  0
 16 17  1  0  0  0  0
 18 17  2  0  0  0  0
 19 20  1  0  0  0  0
 19 15  1  0  0  0  0
 21 19  1  0  0  0  0
 22  7  1  0  0  0  0
 23 24  1  0  0  0  0
 23 22  1  0  0  0  0
M  END
>  <MODEL>
1

>  <REMARK>
 VINA RESULT:      -6.4      0.000      0.000
  Name = ZINC04771070
                            x       y       z     vdW  Elec       q    Type
                         _______ _______ _______ _____ _____    ______ ____

>  <TORSDO>
F 8

>  <vina_score>
-6.4

$$$$
ZINC09047672
 OpenBabel01081722543D

 24 25  0  0  0  0  0  0  0  0999 V2000
    9.0540   15.2790    2.4280 N   0  0  0  0  0  0  0  0  0  0  0  0
    8.2180   15.4930    2.9050 H   0  0  0  0  0  0  0  0  0  0  0  0
    9.6380   14.0340    2.5820 C   0  0  0  0  0  0  0  0  0  0  0  0
    8.9240   12.8620    2.2790 C   0  0  0  0  0  0  0  0  0  0  0  0
    9.5700   11.6270    2.4550 C   0  0  0  0  0  0  0  0  0  0  0  0
   10.8240   11.6110    2.8970 N   0  0  0  0  0  0  0  0  0  0  0  0
   11.4550   12.7360    3.1680 C   0  0  0  0  0  0  0  0  0  0  0  0
   13.0920   12.6590    3.7420 Cl  0  0  0  0  0  0  0  0  0  0  0  0
    8.6590   10.6690    2.0930 N   0  0  0  0  0  0  0  0  0  0  0  0
    8.8020    9.6940    2.1030 H   0  0  0  0  0  0  0  0  0  0  0  0
    7.5170   11.3120    1.7170 C   0  0  0  0  0  0  0  0  0  0  0  0
    7.6740   12.5990    1.8270 N   0  0  0  0  0  0  0  0  0  0  0  0
   10.8900   13.9210    3.0140 N   0  0  0  0  0  0  0  0  0  0  0  0
    9.6770   16.2790    1.5570 C   0  0  0  0  0  0  0  0  0  0  0  0
    8.8960   15.4330   -0.6320 N   0  0  0  0  0  0  0  0  0  0  0  0
    7.9770   15.6510   -0.3520 H   0  0  0  0  0  0  0  0  0  0  0  0
    9.9290   15.6750    0.2000 C   0  0  0  0  0  0  0  0  0  0  0  0
   11.0600   15.4070   -0.1450 O   0  0  0  0  0  0  0  0  0  0  0  0
    9.1400   14.8450   -1.9510 C   0  0  0  0  0  0  0  0  0  0  0  0
    8.9940   13.3250   -1.8670 C   0  0  0  0  0  0  0  0  0  0  0  0
    9.3280   12.9840   -4.2410 C   0  0  0  0  0  0  0  0  0  0  0  0
    9.8610   12.7050   -2.8910 N   0  0  0  0  0  0  0  0  0  0  0  0
    9.8780   11.6960   -2.7450 H   0  0  0  0  0  0  0  0  0  0  0  0
   11.2370   13.2310   -2.7730 C   0  0  0  0  0  0  0  0  0  0  0  0
  1  3  1  0  0  0  0
  1  2  1  0  0  0  0
  3 13  2  0  0  0  0
  4  5  2  0  0  0  0
  4  3  1  0  0  0  0
  5  6  1  0  0  0  0
  6  7  2  0  0  0  0
  7  8  1  0  0  0  0
  9 10  1  0  0  0  0
  9  5  1  0  0  0  0
 11 12  2  0  0  0  0
 11  9  1  0  0  0  0
 12  4  1  0  0  0  0
 13  7  1  0  0  0  0
 14  1  1  0  0  0  0
 15 16  1  0  0  0  0
 15 17  1  0  0  0  0
 17 14  1  0  0  0  0
 18 17  2  0  0  0  0
 19 20  1  0  0  0  0
 19 15  1  0  0  0  0
 21 22  1  0  0  0  0
 22 24  1  0  0  0  0
 22 23  1  0  0  0  0
 22 20  1  0  0  0  0
M  END
>  <MODEL>
1

>  <REMARK>
 VINA RESULT:      -6.4      0.000      0.000
  Name = ZINC09047672
                            x       y       z     vdW  Elec       q    Type
                         _______ _______ _______ _____ _____    ______ ____

>  <TORSDO>
F 6

>  <vina_score>
-6.4

$$$$
ZINC02090323
 OpenBabel01081722543D

 28 29  0  0  0  0  0  0  0  0999 V2000
   12.1600   15.0270   -0.9900 C   0  0  0  0  0  0  0  0  0  0  0  0
   12.8760   10.7720    2.5810 C   0  0  0  0  0  0  0  0  0  0  0  0
   11.8290   11.7750    2.7920 N   0  0  0  0  0  0  0  0  0  0  0  0
   10.9480   11.8110    3.8110 C   0  0  0  0  0  0  0  0  0  0  0  0
   10.1600   12.8470    3.6760 N   0  0  0  0  0  0  0  0  0  0  0  0
   10.4900   13.5270    2.5750 C   0  0  0  0  0  0  0  0  0  0  0  0
   10.0000   14.6730    1.9700 N   0  0  0  0  0  0  0  0  0  0  0  0
    8.8740   15.3920    2.5700 C   0  0  0  0  0  0  0  0  0  0  0  0
   10.5600   15.1280    0.8330 C   0  0  0  0  0  0  0  0  0  0  0  0
   10.1190   16.1380    0.3190 O   0  0  0  0  0  0  0  0  0  0  0  0
   11.5910   14.4930    0.2500 N   0  0  0  0  0  0  0  0  0  0  0  0
   12.1120   13.3720    0.7920 C   0  0  0  0  0  0  0  0  0  0  0  0
   13.0500   12.8080    0.2570 O   0  0  0  0  0  0  0  0  0  0  0  0
   11.5580   12.8620    1.9860 C   0  0  0  0  0  0  0  0  0  0  0  0
   11.6090   14.2450   -2.1830 C   0  0  0  0  0  0  0  0  0  0  0  0
   10.3990   14.9220   -2.6880 N   0  0  0  0  0  0  0  0  0  0  0  0
   10.0880   15.6040   -1.9950 H   0  0  0  0  0  0  0  0  0  0  0  0
   10.6180   15.3920   -3.5660 H   0  0  0  0  0  0  0  0  0  0  0  0
    9.3210   13.9420   -2.9150 C   0  0  0  0  0  0  0  0  0  0  0  0
    9.5080   12.7450   -1.9820 C   0  0  0  0  0  0  0  0  0  0  0  0
    8.2300   12.2840   -1.5370 O   0  0  0  0  0  0  0  0  0  0  0  0
    8.1600   11.3290   -1.6930 H   0  0  0  0  0  0  0  0  0  0  0  0
    9.3570   13.4650   -4.3690 C   0  0  0  0  0  0  0  0  0  0  0  0
    8.9700   12.0910   -4.4300 O   0  0  0  0  0  0  0  0  0  0  0  0
    8.6420   11.8090   -3.5620 H   0  0  0  0  0  0  0  0  0  0  0  0
    7.9720   14.6060   -2.6310 C   0  0  0  0  0  0  0  0  0  0  0  0
    8.0610   15.3660   -1.4240 O   0  0  0  0  0  0  0  0  0  0  0  0
    7.4540   14.9970   -0.7640 H   0  0  0  0  0  0  0  0  0  0  0  0
  1 11  1  0  0  0  0
  2  3  1  0  0  0  0
  3  4  1  0  0  0  0
  5  4  2  0  0  0  0
  6  5  1  0  0  0  0
  7  8  1  0  0  0  0
  7  6  1  0  0  0  0
  9  7  1  0  0  0  0
 10  9  2  0  0  0  0
 11 12  1  0  0  0  0
 11  9  1  0  0  0  0
 12 14  1  0  0  0  0
 13 12  2  0  0  0  0
 14  6  2  0  0  0  0
 14  3  1  0  0  0  0
 15  1  1  0  0  0  0
 16 15  1  0  0  0  0
 16 17  1  0  0  0  0
 18 16  1  0  0  0  0
 19 16  1  0  0  0  0
 19 26  1  0  0  0  0
 19 20  1  0  0  0  0
 20 21  1  0  0  0  0
 22 21  1  0  0  0  0
 23 19  1  0  0  0  0
 24 23  1  0  0  0  0
 24 25  1  0  0  0  0
 26 27  1  0  0  0  0
 27 28  1  0  0  0  0
M  END
>  <MODEL>
1

>  <REMARK>
 VINA RESULT:      -6.4      0.000      0.000
  Name = ZINC02090323
                            x       y       z     vdW  Elec       q    Type
                         _______ _______ _______ _____ _____    ______ ____

>  <TORSDO>
F 10

>  <vina_score>
-6.4

$$$$
ZINC08642818
 OpenBabel01081723413D

 31 33  0  0  1  0  0  0  0  0999 V2000
   12.7310   13.8860   -1.4600 C   0  0  0  0  0  0  0  0  0  0  0  0
   11.8450   14.2790   -0.3610 N   0  0  0  0  0  0  0  0  0  0  0  0
   11.8420   13.5530    0.8190 C   0  0  0  0  0  0  0  0  0  0  0  0
   10.9950   13.9520    1.8490 C   0  0  0  0  0  0  0  0  0  0  0  0
   11.2050   13.0610    2.8930 N   0  0  0  0  0  0  0  0  0  0  0  0
   12.1510   12.1810    2.4730 C   0  0  0  0  0  0  0  0  0  0  0  0
   10.1620   15.0680    1.6600 C   0  0  0  0  0  0  0  0  0  0  0  0
   10.2090   15.7360    0.4880 N   0  0  0  0  0  0  0  0  0  0  0  0
    9.3470   16.9030    0.2880 C   0  0  0  0  0  0  0  0  0  0  0  0
    9.4090   15.4320    2.5460 O   0  0  0  0  0  0  0  0  0  0  0  0
   12.5130   12.4810    1.2420 N   0  0  0  0  0  0  0  0  0  0  0  0
   11.0340   15.3450   -0.4990 C   0  0  0  0  0  0  0  0  0  0  0  0
   11.0500   15.9720   -1.5420 O   0  0  0  0  0  0  0  0  0  0  0  0
   12.6480   11.1330    3.2150 N   0  0  0  0  0  0  0  0  0  0  0  0
   12.1840   10.2640    3.2110 H   0  0  0  0  0  0  0  0  0  0  0  0
   13.8670   11.3090    4.0080 C   0  0  0  0  0  0  0  0  0  0  0  0
   14.0750   12.7960    4.3000 C   0  0  0  0  0  0  0  0  0  0  0  0
   15.0610   12.9470    5.3220 O   0  0  0  0  0  0  0  0  0  0  0  0
   15.9260   13.1160    4.9150 H   0  0  0  0  0  0  0  0  0  0  0  0
   10.5360   13.0700    4.1960 C   0  0  0  0  0  0  0  0  0  0  0  0
    9.1750   12.3800    4.0760 C   0  0  1  0  0  0  0  0  0  0  0  0
    8.1750   13.3520    3.7630 O   0  0  0  0  0  0  0  0  0  0  0  0
    8.2230   14.0820    4.3990 H   0  0  0  0  0  0  0  0  0  0  0  0
    9.2310   11.3290    2.9670 C   0  0  0  0  0  0  0  0  0  0  0  0
    7.9050   11.0270    2.5300 O   0  0  0  0  0  0  0  0  0  0  0  0
    7.6240   11.2400    1.2170 C   0  0  0  0  0  0  0  0  0  0  0  0
    8.3430   12.1840    0.4970 C   0  0  0  0  0  0  0  0  0  0  0  0
    8.0600   12.3940   -0.8390 C   0  0  0  0  0  0  0  0  0  0  0  0
    7.0550   11.6730   -1.4550 C   0  0  0  0  0  0  0  0  0  0  0  0
    6.3340   10.7350   -0.7380 C   0  0  0  0  0  0  0  0  0  0  0  0
    6.6170   10.5170    0.5950 C   0  0  0  0  0  0  0  0  0  0  0  0
  1  2  1  0  0  0  0
  2  3  1  0  0  0  0
  3 11  1  0  0  0  0
  3  4  2  0  0  0  0
  4  5  1  0  0  0  0
  5 20  1  0  0  0  0
  6  5  1  0  0  0  0
  6 14  1  0  0  0  0
  7  4  1  0  0  0  0
  7 10  2  0  0  0  0
  8  7  1  0  0  0  0
  9  8  1  0  0  0  0
 11  6  2  0  0  0  0
 12  2  1  0  0  0  0
 12  8  1  0  0  0  0
 13 12  2  0  0  0  0
 14 16  1  0  0  0  0
 15 14  1  0  0  0  0
 16 17  1  0  0  0  0
 17 18  1  0  0  0  0
 19 18  1  0  0  0  0
 21 24  1  6  0  0  0
 21 20  1  0  0  0  0
 22 21  1  0  0  0  0
 22 23  1  0  0  0  0
 25 24  1  0  0  0  0
 26 25  1  0  0  0  0
 27 26  2  0  0  0  0
 28 27  1  0  0  0  0
 29 28  2  0  0  0  0
 29 30  1  0  0  0  0
 30 31  2  0  0  0  0
 31 26  1  0  0  0  0
M  END
>  <MODEL>
1

>  <REMARK>
 VINA RESULT:      -6.4      0.000      0.000
  Name = ZINC08642818
                            x       y       z     vdW  Elec       q    Type
                         _______ _______ _______ _____ _____    ______ ____

>  <TORSDO>
F 10

>  <vina_score>
-6.4

$$$$
ZINC15771728
 OpenBabel01081723433D

 31 31  0  0  1  0  0  0  0  0999 V2000
    7.5030   12.2880   -1.4590 C   0  0  0  0  0  0  0  0  0  0  0  0
    8.3460   11.4930   -0.5480 N   0  0  0  0  0  0  0  0  0  0  0  0
    8.8350   12.1250    0.0870 H   0  0  0  0  0  0  0  0  0  0  0  0
    9.0200   10.9560   -1.0940 H   0  0  0  0  0  0  0  0  0  0  0  0
    7.5150   10.5670    0.2440 C   0  0  0  0  0  0  0  0  0  0  0  0
    7.2090   11.2020    1.6020 C   0  0  0  0  0  0  0  0  0  0  0  0
   10.7500   13.0430    3.1410 C   0  0  0  0  0  0  0  0  0  0  0  0
   10.6470   11.6610    3.0950 C   0  0  0  0  0  0  0  0  0  0  0  0
    9.4990   11.0700    2.6030 C   0  0  0  0  0  0  0  0  0  0  0  0
    8.4560   11.8530    2.1430 C   0  0  0  0  0  0  0  0  0  0  0  0
    8.5520   13.2310    2.1870 C   0  0  0  0  0  0  0  0  0  0  0  0
    9.6980   13.8310    2.6840 C   0  0  0  0  0  0  0  0  0  0  0  0
    9.7940   15.1860    2.7270 O   0  0  0  0  0  0  0  0  0  0  0  0
    9.7090   15.8830    1.4820 C   0  0  0  0  0  0  0  0  0  0  0  0
   13.0850   12.8680    3.5540 C   0  0  0  0  0  0  0  0  0  0  0  0
   11.8760   13.6260    3.6300 O   0  0  0  0  0  0  0  0  0  0  0  0
    8.1790   13.6340   -1.7240 C   0  0  2  0  0  0  0  0  0  0  0  0
    7.1820   14.6480   -1.8630 O   0  0  0  0  0  0  0  0  0  0  0  0
    6.3350   14.3170   -1.5240 H   0  0  0  0  0  0  0  0  0  0  0  0
    9.0030   13.5470   -3.0110 C   0  0  1  0  0  0  0  0  0  0  0  0
    9.0730   14.8380   -3.6190 O   0  0  0  0  0  0  0  0  0  0  0  0
    8.8810   14.7600   -4.5660 H   0  0  0  0  0  0  0  0  0  0  0  0
   10.4160   13.0610   -2.6790 C   0  0  1  0  0  0  0  0  0  0  0  0
   11.3120   13.4540   -3.7200 O   0  0  0  0  0  0  0  0  0  0  0  0
   11.6220   14.3580   -3.5550 H   0  0  0  0  0  0  0  0  0  0  0  0
   10.8700   13.6790   -1.3550 C   0  0  1  0  0  0  0  0  0  0  0  0
   11.4200   12.6600   -0.5170 O   0  0  0  0  0  0  0  0  0  0  0  0
   12.3690   12.8200   -0.3950 H   0  0  0  0  0  0  0  0  0  0  0  0
   11.9340   14.7430   -1.6280 C   0  0  0  0  0  0  0  0  0  0  0  0
   11.2980   15.9890   -1.9190 O   0  0  0  0  0  0  0  0  0  0  0  0
   11.8050   16.7130   -1.5190 H   0  0  0  0  0  0  0  0  0  0  0  0
  1  2  1  0  0  0  0
  2  3  1  0  0  0  0
  2  5  1  0  0  0  0
  4  2  1  0  0  0  0
  5  6  1  0  0  0  0
  6 10  1  0  0  0  0
  7 16  1  0  0  0  0
  8  7  1  0  0  0  0
  9  8  2  0  0  0  0
 10 11  2  0  0  0  0
 10  9  1  0  0  0  0
 11 12  1  0  0  0  0
 12 13  1  0  0  0  0
 12  7  2  0  0  0  0
 14 13  1  0  0  0  0
 15 16  1  0  0  0  0
 17 18  1  6  0  0  0
 17  1  1  0  0  0  0
 18 19  1  0  0  0  0
 20 21  1  1  0  0  0
 20 23  1  0  0  0  0
 20 17  1  0  0  0  0
 22 21  1  0  0  0  0
 23 24  1  6  0  0  0
 23 26  1  0  0  0  0
 24 25  1  0  0  0  0
 26 29  1  6  0  0  0
 26 27  1  0  0  0  0
 27 28  1  0  0  0  0
 30 29  1  0  0  0  0
 30 31  1  0  0  0  0
M  END
>  <MODEL>
1

>  <REMARK>
 VINA RESULT:      -6.4      0.000      0.000
  Name = ZINC15771728
                            x       y       z     vdW  Elec       q    Type
                         _______ _______ _______ _____ _____    ______ ____

>  <TORSDO>
F 16

>  <vina_score>
-6.4

$$$$
ZINC24869044
 OpenBabel01081722373D

 29 30  0  0  1  0  0  0  0  0999 V2000
    9.0890   13.2740    3.4170 C   0  0  0  0  0  0  0  0  0  0  0  0
   10.0270   13.8520    2.6410 N   0  0  0  0  0  0  0  0  0  0  0  0
   11.4130   13.3600    2.6400 C   0  0  0  0  0  0  0  0  0  0  0  0
   11.8380   13.1180    1.1820 C   0  0  0  0  0  0  0  0  0  0  0  0
   11.6140   14.3420    0.4030 N   0  0  0  0  0  0  0  0  0  0  0  0
   12.1050   15.1040    0.8720 H   0  0  0  0  0  0  0  0  0  0  0  0
   10.1880   14.6910    0.3580 C   0  0  0  0  0  0  0  0  0  0  0  0
    9.6940   14.9940    1.7760 C   0  0  0  0  0  0  0  0  0  0  0  0
    7.9520   13.6960    3.4090 O   0  0  0  0  0  0  0  0  0  0  0  0
    9.4530   12.1050    4.2950 C   0  0  0  0  0  0  0  0  0  0  0  0
    8.6710   10.8680    3.8460 C   0  0  0  0  0  0  0  0  0  0  0  0
    8.9170   10.6280    2.4590 O   0  0  0  0  0  0  0  0  0  0  0  0
    5.6270   10.5210   -0.0360 C   0  0  0  0  0  0  0  0  0  0  0  0
    5.5010   10.1540    1.2910 C   0  0  0  0  0  0  0  0  0  0  0  0
    6.6030   10.1830    2.1270 C   0  0  0  0  0  0  0  0  0  0  0  0
    7.8330   10.5920    1.6370 C   0  0  0  0  0  0  0  0  0  0  0  0
    7.9590   10.9610    0.3010 C   0  0  0  0  0  0  0  0  0  0  0  0
    6.8520   10.9240   -0.5320 C   0  0  0  0  0  0  0  0  0  0  0  0
    9.1650   11.3570   -0.1860 O   0  0  0  0  0  0  0  0  0  0  0  0
    9.2430   12.1770   -0.6340 H   0  0  0  0  0  0  0  0  0  0  0  0
   12.1680   14.2120   -0.9520 C   0  0  0  0  0  0  0  0  0  0  0  0
   11.0930   14.5730   -1.9780 C   0  0  1  0  0  0  0  0  0  0  0  0
   11.4690   15.7670   -2.6650 O   0  0  0  0  0  0  0  0  0  0  0  0
   10.8630   15.9200   -3.4060 H   0  0  0  0  0  0  0  0  0  0  0  0
   10.9470   13.4300   -2.9860 C   0  0  0  0  0  0  0  0  0  0  0  0
    9.2520   13.4070   -3.6320 S   0  0  0  0  0  0  0  0  0  0  0  0
    8.3840   13.0300   -2.4390 O   0  0  0  0  0  0  0  0  0  0  0  0
    9.0920   12.3340   -4.5500 O   0  0  0  0  0  0  0  0  0  0  0  0
    8.8420   14.7230   -3.9760 O   0  0  0  0  0  0  0  0  0  0  0  0
  1 10  1  0  0  0  0
  2  1  1  0  0  0  0
  3  2  1  0  0  0  0
  4  3  1  0  0  0  0
  5  6  1  0  0  0  0
  5  4  1  0  0  0  0
  7  5  1  0  0  0  0
  7  8  1  0  0  0  0
  8  2  1  0  0  0  0
  9  1  2  0  0  0  0
 11 10  1  0  0  0  0
 12 11  1  0  0  0  0
 13 14  1  0  0  0  0
 14 15  2  0  0  0  0
 16 15  1  0  0  0  0
 16 12  1  0  0  0  0
 17 16  2  0  0  0  0
 18 13  2  0  0  0  0
 18 17  1  0  0  0  0
 19 17  1  0  0  0  0
 20 19  1  0  0  0  0
 21  5  1  0  0  0  0
 22 25  1  6  0  0  0
 22 21  1  0  0  0  0
 23 22  1  0  0  0  0
 24 23  1  0  0  0  0
 26 25  1  0  0  0  0
 26 27  1  0  0  0  0
 28 26  2  0  0  0  0
 29 26  2  0  0  0  0
M  END
>  <MODEL>
1

>  <REMARK>
 VINA RESULT:      -6.4      0.000      0.000
  Name = ZINC24869044
                            x       y       z     vdW  Elec       q    Type
                         _______ _______ _______ _____ _____    ______ ____

>  <TORSDO>
F 10

>  <vina_score>
-6.4

$$$$
ZINC01603645
 OpenBabel01081722373D

 21 21  0  0  1  0  0  0  0  0999 V2000
    8.6520   12.9420    0.1450 C   0  0  0  0  0  0  0  0  0  0  0  0
    9.1640   14.1470    0.3500 N   0  0  0  0  0  0  0  0  0  0  0  0
    9.2310   14.4970    1.2680 H   0  0  0  0  0  0  0  0  0  0  0  0
    9.5880   14.8910   -0.6690 C   0  0  0  0  0  0  0  0  0  0  0  0
    9.4780   14.3890   -1.9660 C   0  0  0  0  0  0  0  0  0  0  0  0
    8.9280   13.1190   -2.1410 C   0  0  2  0  0  0  0  0  0  0  0  0
    8.5310   12.4330   -1.0710 N   0  0  0  0  0  0  0  0  0  0  0  0
   10.1280   16.1520   -0.4450 N   0  0  0  0  0  0  0  0  0  0  0  0
   11.0380   16.2390   -0.0790 H   0  0  0  0  0  0  0  0  0  0  0  0
    9.6000   16.9560   -0.6520 H   0  0  0  0  0  0  0  0  0  0  0  0
    9.9100   15.1460   -3.0720 N   0  0  0  0  0  0  0  0  0  0  0  0
   10.1430   14.6960   -3.9160 H   0  0  0  0  0  0  0  0  0  0  0  0
    9.9790   16.1260   -3.0000 H   0  0  0  0  0  0  0  0  0  0  0  0
    8.7970   12.5760   -3.4130 N   0  0  0  0  0  0  0  0  0  0  0  0
    8.2480   13.0340   -4.0910 H   0  0  0  0  0  0  0  0  0  0  0  0
    9.2540   11.7330   -3.6390 H   0  0  0  0  0  0  0  0  0  0  0  0
    8.1100   11.9960    1.5290 S   0  0  0  0  0  0  0  0  0  0  0  0
    7.4370   10.5490    0.6760 C   0  0  0  0  0  0  0  0  0  0  0  0
    5.9310   10.6070    0.6980 C   0  0  0  0  0  0  0  0  0  0  0  0
    5.2380   10.4860   -0.4450 O   0  0  0  0  0  0  0  0  0  0  0  0
    5.3480   10.7640    1.7440 O   0  0  0  0  0  0  0  0  0  0  0  0
  1  2  1  0  0  0  0
  1 17  1  0  0  0  0
  2  3  1  0  0  0  0
  4  8  1  0  0  0  0
  4  2  1  0  0  0  0
  5  4  2  0  0  0  0
  6 14  1  1  0  0  0
  6  5  1  0  0  0  0
  6  7  1  0  0  0  0
  7  1  2  0  0  0  0
  8  9  1  0  0  0  0
 10  8  1  0  0  0  0
 11 13  1  0  0  0  0
 11  5  1  0  0  0  0
 12 11  1  0  0  0  0
 15 14  1  0  0  0  0
 16 14  1  0  0  0  0
 18 19  1  0  0  0  0
 18 17  1  0  0  0  0
 19 21  1  0  0  0  0
 20 19  2  0  0  0  0
M  END
>  <MODEL>
1

>  <REMARK>
 VINA RESULT:      -6.4      0.000      0.000
  Name = ZINC01603645
                            x       y       z     vdW  Elec       q    Type
                         _______ _______ _______ _____ _____    ______ ____

>  <TORSDO>
F 6

>  <vina_score>
-6.4

$$$$
ZINC27654081
 OpenBabel01081722383D

 27 28  0  0  0  0  0  0  0  0999 V2000
   12.1970   12.4360    1.7390 C   0  0  0  0  0  0  0  0  0  0  0  0
   12.4880   12.7500    0.5110 N   0  0  0  0  0  0  0  0  0  0  0  0
   11.7320   13.8090    0.1250 C   0  0  0  0  0  0  0  0  0  0  0  0
   11.6130   14.5560   -1.0560 C   0  0  0  0  0  0  0  0  0  0  0  0
   12.3730   14.2630   -2.1390 O   0  0  0  0  0  0  0  0  0  0  0  0
   10.7430   15.5570   -1.0910 N   0  0  0  0  0  0  0  0  0  0  0  0
   10.6500   16.0880   -1.9140 H   0  0  0  0  0  0  0  0  0  0  0  0
    9.9950   15.8530   -0.0350 C   0  0  0  0  0  0  0  0  0  0  0  0
   10.0770   15.1770    1.0990 N   0  0  0  0  0  0  0  0  0  0  0  0
   10.9200   14.1580    1.2190 C   0  0  0  0  0  0  0  0  0  0  0  0
   11.2350   13.2750    2.2210 N   0  0  0  0  0  0  0  0  0  0  0  0
    9.0980   16.9030   -0.1250 N   0  0  0  0  0  0  0  0  0  0  0  0
    8.1500   16.7270   -0.3270 H   0  0  0  0  0  0  0  0  0  0  0  0
    9.4070   17.8280    0.0120 H   0  0  0  0  0  0  0  0  0  0  0  0
   10.6470   13.2390    3.5620 C   0  0  0  0  0  0  0  0  0  0  0  0
   10.6620   11.8980    4.0530 O   0  0  0  0  0  0  0  0  0  0  0  0
    9.3630   11.3410    4.2610 C   0  0  0  0  0  0  0  0  0  0  0  0
    8.9890   10.4580    3.0680 C   0  0  0  0  0  0  0  0  0  0  0  0
    7.6980   10.8690    2.5470 O   0  0  0  0  0  0  0  0  0  0  0  0
    7.7030   11.7510    1.5350 C   0  0  0  0  0  0  0  0  0  0  0  0
    7.5830   12.9330    1.7620 O   0  0  0  0  0  0  0  0  0  0  0  0
    7.8570   11.2680    0.1160 C   0  0  0  0  0  0  0  0  0  0  0  0
    8.5160   12.3620   -0.7270 C   0  0  0  0  0  0  0  0  0  0  0  0
    7.4960   13.3210   -1.1690 N   0  0  0  0  0  0  0  0  0  0  0  0
    7.1290   13.8250   -0.3630 H   0  0  0  0  0  0  0  0  0  0  0  0
    7.9130   13.9830   -1.8240 H   0  0  0  0  0  0  0  0  0  0  0  0
    6.7360   12.8200   -1.6310 H   0  0  0  0  0  0  0  0  0  0  0  0
  1 11  1  0  0  0  0
  2  1  2  0  0  0  0
  3  2  1  0  0  0  0
  3 10  2  0  0  0  0
  4  3  1  0  0  0  0
  5  4  2  0  0  0  0
  6  4  1  0  0  0  0
  6  8  1  0  0  0  0
  7  6  1  0  0  0  0
  8  9  2  0  0  0  0
  9 10  1  0  0  0  0
 10 11  1  0  0  0  0
 11 15  1  0  0  0  0
 12  8  1  0  0  0  0
 12 14  1  0  0  0  0
 13 12  1  0  0  0  0
 15 16  1  0  0  0  0
 16 17  1  0  0  0  0
 18 17  1  0  0  0  0
 19 18  1  0  0  0  0
 20 21  2  0  0  0  0
 20 19  1  0  0  0  0
 22 20  1  0  0  0  0
 23 22  1  0  0  0  0
 24 23  1  0  0  0  0
 24 25  1  0  0  0  0
 26 24  1  0  0  0  0
 27 24  1  0  0  0  0
M  END
>  <MODEL>
1

>  <REMARK>
 VINA RESULT:      -6.4      0.000      0.000
  Name = ZINC27654081
                            x       y       z     vdW  Elec       q    Type
                         _______ _______ _______ _____ _____    ______ ____

>  <TORSDO>
F 10

>  <vina_score>
-6.4

$$$$
ZINC21038636
 OpenBabel01081722403D

 27 29  0  0  0  0  0  0  0  0999 V2000
   12.0390   14.1970   -0.5330 C   0  0  0  0  0  0  0  0  0  0  0  0
   11.0500   13.5440   -1.2150 N   0  0  0  0  0  0  0  0  0  0  0  0
   10.5800   14.3830   -2.1860 C   0  0  0  0  0  0  0  0  0  0  0  0
   11.2550   15.5050   -2.1110 N   0  0  0  0  0  0  0  0  0  0  0  0
   12.1750   15.3900   -1.0610 N   0  0  0  0  0  0  0  0  0  0  0  0
   12.8120   16.0820   -0.7710 H   0  0  0  0  0  0  0  0  0  0  0  0
   12.7700   13.6870    0.5300 N   0  0  0  0  0  0  0  0  0  0  0  0
   13.7060   13.9620    0.6600 H   0  0  0  0  0  0  0  0  0  0  0  0
   11.4470   13.2180    2.4000 C   0  0  0  0  0  0  0  0  0  0  0  0
   12.1760   12.7810    1.4190 N   0  0  0  0  0  0  0  0  0  0  0  0
   10.7780   10.1540    4.4570 C   0  0  0  0  0  0  0  0  0  0  0  0
   11.4010   11.0090    3.5660 C   0  0  0  0  0  0  0  0  0  0  0  0
   10.8220   12.2640    3.3360 C   0  0  0  0  0  0  0  0  0  0  0  0
    9.6420   12.5950    4.0050 C   0  0  0  0  0  0  0  0  0  0  0  0
    9.0850   11.7430    4.8400 N   0  0  0  0  0  0  0  0  0  0  0  0
    9.6100   10.5570    5.0790 C   0  0  0  0  0  0  0  0  0  0  0  0
    9.2990   14.0180   -3.3390 S   0  0  0  0  0  0  0  0  0  0  0  0
    7.7720   14.2870   -2.3980 C   0  0  0  0  0  0  0  0  0  0  0  0
    7.5440   13.1220   -1.4680 C   0  0  0  0  0  0  0  0  0  0  0  0
    8.1620   13.0860   -0.2710 N   0  0  0  0  0  0  0  0  0  0  0  0
    8.7620   13.8190   -0.0040 H   0  0  0  0  0  0  0  0  0  0  0  0
    6.8050   12.2190   -1.7980 O   0  0  0  0  0  0  0  0  0  0  0  0
    7.9520   12.0120    0.5860 C   0  0  0  0  0  0  0  0  0  0  0  0
    6.9160   11.8300    1.3680 N   0  0  0  0  0  0  0  0  0  0  0  0
    7.0500   10.7320    2.0230 N   0  0  0  0  0  0  0  0  0  0  0  0
    8.1730   10.1540    1.6980 C   0  0  0  0  0  0  0  0  0  0  0  0
    8.7870   10.9480    0.7720 N   0  0  0  0  0  0  0  0  0  0  0  0
  1  7  1  0  0  0  0
  2  1  2  0  0  0  0
  3  4  2  0  0  0  0
  3  2  1  0  0  0  0
  4  5  1  0  0  0  0
  5  6  1  0  0  0  0
  5  1  1  0  0  0  0
  7  8  1  0  0  0  0
  7 10  1  0  0  0  0
  9 13  1  0  0  0  0
 10  9  2  0  0  0  0
 11 16  2  0  0  0  0
 12 11  1  0  0  0  0
 13 12  2  0  0  0  0
 13 14  1  0  0  0  0
 14 15  2  0  0  0  0
 15 16  1  0  0  0  0
 17 18  1  0  0  0  0
 17  3  1  0  0  0  0
 18 19  1  0  0  0  0
 19 20  1  0  0  0  0
 20 21  1  0  0  0  0
 20 23  1  0  0  0  0
 22 19  2  0  0  0  0
 23 27  2  0  0  0  0
 23 24  1  0  0  0  0
 24 25  1  0  0  0  0
 26 25  2  0  0  0  0
 27 26  1  0  0  0  0
M  END
>  <MODEL>
1

>  <REMARK>
 VINA RESULT:      -6.4      0.000      0.000
  Name = ZINC21038636
                            x       y       z     vdW  Elec       q    Type
                         _______ _______ _______ _____ _____    ______ ____

>  <TORSDO>
F 7

>  <vina_score>
-6.4

$$$$
ZINC00399536
 OpenBabel01081722413D

 26 27  0  0  1  0  0  0  0  0999 V2000
    8.6020   12.2400    0.8070 C   0  0  0  0  0  0  0  0  0  0  0  0
    9.6230   11.4550    0.2910 C   0  0  0  0  0  0  0  0  0  0  0  0
   10.9260   11.6650    0.6980 C   0  0  0  0  0  0  0  0  0  0  0  0
   11.2120   12.6500    1.6260 C   0  0  0  0  0  0  0  0  0  0  0  0
   10.1960   13.4290    2.1450 C   0  0  0  0  0  0  0  0  0  0  0  0
    8.8910   13.2260    1.7380 C   0  0  0  0  0  0  0  0  0  0  0  0
    7.3190   12.0380    0.4060 O   0  0  0  0  0  0  0  0  0  0  0  0
    7.0430   12.2580   -0.8920 C   0  0  0  0  0  0  0  0  0  0  0  0
    6.5230   11.3870   -1.5590 O   0  0  0  0  0  0  0  0  0  0  0  0
    7.3500   13.4420   -1.4540 O   0  0  0  0  0  0  0  0  0  0  0  0
    8.2850   13.4230   -2.5640 C   0  0  0  0  0  0  0  0  0  0  0  0
   12.0390   15.0150   -1.2910 C   0  0  0  0  0  0  0  0  0  0  0  0
   12.0030   13.9530   -2.1750 C   0  0  0  0  0  0  0  0  0  0  0  0
   10.7890   13.4380   -2.5870 C   0  0  0  0  0  0  0  0  0  0  0  0
    9.6100   13.9850   -2.1150 C   0  0  0  0  0  0  0  0  0  0  0  0
    9.6470   15.0500   -1.2350 C   0  0  0  0  0  0  0  0  0  0  0  0
   10.8610   15.5620   -0.8180 C   0  0  0  0  0  0  0  0  0  0  0  0
   12.6340   12.8720    2.0720 C   0  0  0  0  0  0  0  0  0  0  0  0
   12.8160   12.3230    3.4890 C   0  0  2  0  0  0  0  0  0  0  0  0
   13.9270   13.0390    4.1410 N   0  0  0  0  0  0  0  0  0  0  0  0
   14.3700   13.6650    3.4680 H   0  0  0  0  0  0  0  0  0  0  0  0
   13.5670   13.5820    4.9250 H   0  0  0  0  0  0  0  0  0  0  0  0
   14.6130   12.3660    4.4810 H   0  0  0  0  0  0  0  0  0  0  0  0
   13.1100   10.8460    3.4220 C   0  0  0  0  0  0  0  0  0  0  0  0
   13.5380   10.2990    2.2730 O   0  0  0  0  0  0  0  0  0  0  0  0
   12.9620   10.1550    4.4020 O   0  0  0  0  0  0  0  0  0  0  0  0
  1  6  2  0  0  0  0
  2  3  2  0  0  0  0
  2  1  1  0  0  0  0
  3  4  1  0  0  0  0
  4 18  1  0  0  0  0
  4  5  2  0  0  0  0
  6  5  1  0  0  0  0
  7  1  1  0  0  0  0
  8  7  1  0  0  0  0
  9  8  2  0  0  0  0
 10  8  1  0  0  0  0
 11 15  1  0  0  0  0
 11 10  1  0  0  0  0
 12 17  2  0  0  0  0
 13 12  1  0  0  0  0
 14 13  2  0  0  0  0
 14 15  1  0  0  0  0
 15 16  2  0  0  0  0
 16 17  1  0  0  0  0
 19 18  1  6  0  0  0
 19 20  1  0  0  0  0
 20 23  1  0  0  0  0
 20 22  1  0  0  0  0
 21 20  1  0  0  0  0
 24 19  1  0  0  0  0
 24 26  1  0  0  0  0
 25 24  2  0  0  0  0
M  END
>  <MODEL>
1

>  <REMARK>
 VINA RESULT:      -6.3      0.000      0.000
  Name = ZINC00399536
                            x       y       z     vdW  Elec       q    Type
                         _______ _______ _______ _____ _____    ______ ____

>  <TORSDO>
F 9

>  <vina_score>
-6.3

$$$$
ZINC25495269
 OpenBabel01081722433D

 27 26  0  0  1  0  0  0  0  0999 V2000
   10.7820   13.1440    0.9080 C   0  0  1  0  0  0  0  0  0  0  0  0
    9.8200   14.1640    1.4590 C   0  0  0  0  0  0  0  0  0  0  0  0
    9.9270   15.6060    1.0380 C   0  0  0  0  0  0  0  0  0  0  0  0
    8.9110   13.8050    2.2870 N   0  0  0  0  0  0  0  0  0  0  0  0
    8.7380   12.4480    2.5910 N   0  0  0  0  0  0  0  0  0  0  0  0
    8.4490   11.8190    1.8910 H   0  0  0  0  0  0  0  0  0  0  0  0
    8.9660   12.0040    3.8430 C   0  0  0  0  0  0  0  0  0  0  0  0
    9.4520   12.8450    4.7780 N   0  0  0  0  0  0  0  0  0  0  0  0
    9.6200   12.5200    5.6920 H   0  0  0  0  0  0  0  0  0  0  0  0
    9.6420   13.7830    4.5460 H   0  0  0  0  0  0  0  0  0  0  0  0
    8.7340   10.8460    4.1290 O   0  0  0  0  0  0  0  0  0  0  0  0
   10.7780   13.2120   -0.5980 C   0  0  0  0  0  0  0  0  0  0  0  0
   11.9900   13.7250   -1.3310 C   0  0  0  0  0  0  0  0  0  0  0  0
    9.7470   12.8310   -1.2530 N   0  0  0  0  0  0  0  0  0  0  0  0
    9.7870   12.7790   -2.6530 N   0  0  0  0  0  0  0  0  0  0  0  0
   10.3280   12.0920   -3.1040 H   0  0  0  0  0  0  0  0  0  0  0  0
    9.0860   13.6710   -3.3810 C   0  0  0  0  0  0  0  0  0  0  0  0
    8.4260   14.6720   -2.7660 N   0  0  0  0  0  0  0  0  0  0  0  0
    7.9130   15.3240   -3.2980 H   0  0  0  0  0  0  0  0  0  0  0  0
    8.4560   14.7520   -1.7850 H   0  0  0  0  0  0  0  0  0  0  0  0
    9.0470   13.5710   -4.5920 O   0  0  0  0  0  0  0  0  0  0  0  0
   12.1910   13.4390    1.4280 C   0  0  0  0  0  0  0  0  0  0  0  0
   12.4510   12.6220    2.6670 C   0  0  0  0  0  0  0  0  0  0  0  0
   12.3820   13.1390    3.7570 O   0  0  0  0  0  0  0  0  0  0  0  0
   12.7600   11.3200    2.5600 O   0  0  0  0  0  0  0  0  0  0  0  0
   14.0420   10.1600    4.2760 C   0  0  0  0  0  0  0  0  0  0  0  0
   12.6440   10.5140    3.7620 C   0  0  0  0  0  0  0  0  0  0  0  0
  1 12  1  6  0  0  0
  1 22  1  0  0  0  0
  1  2  1  0  0  0  0
  2  4  2  0  0  0  0
  3  2  1  0  0  0  0
  4  5  1  0  0  0  0
  5  7  1  0  0  0  0
  6  5  1  0  0  0  0
  7 11  2  0  0  0  0
  7  8  1  0  0  0  0
  8  9  1  0  0  0  0
 10  8  1  0  0  0  0
 13 12  1  0  0  0  0
 14 12  2  0  0  0  0
 15 14  1  0  0  0  0
 16 15  1  0  0  0  0
 17 18  1  0  0  0  0
 17 15  1  0  0  0  0
 18 20  1  0  0  0  0
 19 18  1  0  0  0  0
 21 17  2  0  0  0  0
 22 23  1  0  0  0  0
 23 24  2  0  0  0  0
 25 23  1  0  0  0  0
 25 27  1  0  0  0  0
 27 26  1  0  0  0  0
M  END
>  <MODEL>
1

>  <REMARK>
 VINA RESULT:      -6.3      0.000      0.000
  Name = ZINC25495269
                            x       y       z     vdW  Elec       q    Type
                         _______ _______ _______ _____ _____    ______ ____

>  <TORSDO>
F 8

>  <vina_score>
-6.3

$$$$
ZINC29484918
 OpenBabel01081722433D

 23 24  0  0  0  0  0  0  0  0999 V2000
   10.4620   14.9770   -2.0050 C   0  0  0  0  0  0  0  0  0  0  0  0
   10.5500   14.5930   -0.5500 C   0  0  0  0  0  0  0  0  0  0  0  0
    9.7660   15.2430    0.3840 C   0  0  0  0  0  0  0  0  0  0  0  0
    9.8650   14.8690    1.7290 C   0  0  0  0  0  0  0  0  0  0  0  0
   10.7240   13.8850    2.0720 N   0  0  0  0  0  0  0  0  0  0  0  0
   10.8330   13.5100    3.3760 C   0  0  0  0  0  0  0  0  0  0  0  0
   11.6850   12.5280    3.7450 C   0  0  0  0  0  0  0  0  0  0  0  0
   12.4730   11.8810    2.7820 C   0  0  0  0  0  0  0  0  0  0  0  0
   12.3710   12.2480    1.4730 C   0  0  0  0  0  0  0  0  0  0  0  0
   11.4780   13.2730    1.1100 C   0  0  0  0  0  0  0  0  0  0  0  0
    9.1860   15.4240    2.5780 O   0  0  0  0  0  0  0  0  0  0  0  0
   11.3780   13.6340   -0.1680 N   0  0  0  0  0  0  0  0  0  0  0  0
    9.8500   13.5690   -2.9630 S   0  0  0  0  0  0  0  0  0  0  0  0
    8.6700   12.0310   -1.1340 N   0  0  0  0  0  0  0  0  0  0  0  0
    9.5450   11.5830   -1.0680 H   0  0  0  0  0  0  0  0  0  0  0  0
    8.5190   13.0520   -1.9300 C   0  0  0  0  0  0  0  0  0  0  0  0
    7.3200   13.7260   -1.9650 N   0  0  0  0  0  0  0  0  0  0  0  0
    7.3090   14.7040   -2.0710 H   0  0  0  0  0  0  0  0  0  0  0  0
    6.4740   13.2290   -1.8840 H   0  0  0  0  0  0  0  0  0  0  0  0
    7.5390   11.5500   -0.3370 C   0  0  0  0  0  0  0  0  0  0  0  0
    7.8010   11.8340    1.1440 C   0  0  0  0  0  0  0  0  0  0  0  0
    5.9800   10.2810    1.2590 C   0  0  0  0  0  0  0  0  0  0  0  0
    6.7370   11.2920    1.9280 O   0  0  0  0  0  0  0  0  0  0  0  0
  1  2  1  0  0  0  0
  2 12  2  0  0  0  0
  2  3  1  0  0  0  0
  3  4  1  0  0  0  0
  4  5  1  0  0  0  0
  4 11  2  0  0  0  0
  5  6  1  0  0  0  0
  6  7  2  0  0  0  0
  8  7  1  0  0  0  0
  9  8  1  0  0  0  0
 10  9  2  0  0  0  0
 10  5  1  0  0  0  0
 12 10  1  0  0  0  0
 13  1  1  0  0  0  0
 13 16  1  0  0  0  0
 14 15  1  0  0  0  0
 14 20  1  0  0  0  0
 16 14  1  0  0  0  0
 17 16  2  0  0  0  0
 17 19  1  0  0  0  0
 18 17  1  0  0  0  0
 20 21  1  0  0  0  0
 21 23  1  0  0  0  0
 22 23  1  0  0  0  0
M  END
>  <MODEL>
1

>  <REMARK>
 VINA RESULT:      -6.3      0.000      0.000
  Name = ZINC29484918
                            x       y       z     vdW  Elec       q    Type
                         _______ _______ _______ _____ _____    ______ ____

>  <TORSDO>
F 7

>  <vina_score>
-6.3

$$$$
ZINC01818846
 OpenBabel01081722453D

 24 24  0  0  0  0  0  0  0  0999 V2000
    7.8560   13.2130   -0.3940 N   0  0  0  0  0  0  0  0  0  0  0  0
    6.8900   13.0210   -0.4240 H   0  0  0  0  0  0  0  0  0  0  0  0
    8.0990   12.7120    1.9210 C   0  0  0  0  0  0  0  0  0  0  0  0
    8.4920   13.4120    0.8380 N   0  0  0  0  0  0  0  0  0  0  0  0
    9.2270   14.0630    0.9130 H   0  0  0  0  0  0  0  0  0  0  0  0
    7.1940   11.9090    1.8290 O   0  0  0  0  0  0  0  0  0  0  0  0
    8.7830   12.9250    3.2460 C   0  0  0  0  0  0  0  0  0  0  0  0
   10.0370   13.7760    3.0410 C   0  0  0  0  0  0  0  0  0  0  0  0
   11.2420   13.0710    3.6690 C   0  0  0  0  0  0  0  0  0  0  0  0
   12.3950   13.0390    2.6640 C   0  0  0  0  0  0  0  0  0  0  0  0
   11.8950   12.4710    1.3340 C   0  0  0  0  0  0  0  0  0  0  0  0
   12.5090   13.1770    0.2540 O   0  0  0  0  0  0  0  0  0  0  0  0
   12.6390   12.5740   -0.4950 H   0  0  0  0  0  0  0  0  0  0  0  0
    8.5790   13.2880   -1.5640 C   0  0  0  0  0  0  0  0  0  0  0  0
    8.2260   12.6520   -2.6690 N   0  0  0  0  0  0  0  0  0  0  0  0
    7.4150   12.0940   -2.6790 H   0  0  0  0  0  0  0  0  0  0  0  0
    9.8110   14.1090   -1.6220 C   0  0  0  0  0  0  0  0  0  0  0  0
   10.9150   14.0550   -2.6080 C   0  0  0  0  0  0  0  0  0  0  0  0
   11.7300   14.9880   -2.1750 N   0  0  0  0  0  0  0  0  0  0  0  0
   11.2630   15.5030   -1.1870 O   0  0  0  0  0  0  0  0  0  0  0  0
   10.2000   15.0690   -0.8130 N   0  0  0  0  0  0  0  0  0  0  0  0
   11.0550   13.2200   -3.7100 N   0  0  0  0  0  0  0  0  0  0  0  0
   10.6100   13.4470   -4.5580 H   0  0  0  0  0  0  0  0  0  0  0  0
   11.6010   12.4040   -3.6430 H   0  0  0  0  0  0  0  0  0  0  0  0
  1  4  1  0  0  0  0
  2  1  1  0  0  0  0
  3  7  1  0  0  0  0
  4  5  1  0  0  0  0
  4  3  1  0  0  0  0
  6  3  2  0  0  0  0
  8  7  1  0  0  0  0
  8  9  1  0  0  0  0
 10  9  1  0  0  0  0
 11 10  1  0  0  0  0
 12 11  1  0  0  0  0
 13 12  1  0  0  0  0
 14  1  1  0  0  0  0
 15 14  2  0  0  0  0
 16 15  1  0  0  0  0
 17 14  1  0  0  0  0
 17 21  2  0  0  0  0
 18 19  2  0  0  0  0
 18 17  1  0  0  0  0
 19 20  1  0  0  0  0
 20 21  1  0  0  0  0
 22 24  1  0  0  0  0
 22 18  1  0  0  0  0
 23 22  1  0  0  0  0
M  END
>  <MODEL>
1

>  <REMARK>
 VINA RESULT:      -6.3      0.000      0.000
  Name = ZINC01818846
                            x       y       z     vdW  Elec       q    Type
                         _______ _______ _______ _____ _____    ______ ____

>  <TORSDO>
F 10

>  <vina_score>
-6.3

$$$$
ZINC04839229
 OpenBabel01081722463D

 26 27  0  0  0  0  0  0  0  0999 V2000
    9.7300   12.3710   -0.6590 C   0  0  0  0  0  0  0  0  0  0  0  0
    8.5960   12.7320   -1.3770 C   0  0  0  0  0  0  0  0  0  0  0  0
    7.3690   12.1970   -1.0440 C   0  0  0  0  0  0  0  0  0  0  0  0
    7.2560   11.2980    0.0040 C   0  0  0  0  0  0  0  0  0  0  0  0
    8.3700   10.9270    0.7270 C   0  0  0  0  0  0  0  0  0  0  0  0
    9.6200   11.4580    0.3990 C   0  0  0  0  0  0  0  0  0  0  0  0
   10.8170   11.0610    1.1650 C   0  0  0  0  0  0  0  0  0  0  0  0
   11.0310   11.5720    2.3930 N   0  0  0  0  0  0  0  0  0  0  0  0
   10.0430   12.4600    3.0250 C   0  0  0  0  0  0  0  0  0  0  0  0
   10.7530   13.7240    3.5060 C   0  0  0  0  0  0  0  0  0  0  0  0
   11.8900   13.3550    4.3720 N   0  0  0  0  0  0  0  0  0  0  0  0
   12.3290   14.2060    4.7210 H   0  0  0  0  0  0  0  0  0  0  0  0
   11.5500   12.7900    5.1500 H   0  0  0  0  0  0  0  0  0  0  0  0
   12.8890   12.5800    3.6090 C   0  0  0  0  0  0  0  0  0  0  0  0
   12.2640   11.2650    3.1350 C   0  0  0  0  0  0  0  0  0  0  0  0
   11.6100   10.2720    0.6880 O   0  0  0  0  0  0  0  0  0  0  0  0
    5.9330   10.7310    0.3500 N   0  0  0  0  0  0  0  0  0  0  0  0
    5.2330   10.2420   -0.5190 O   0  0  0  0  0  0  0  0  0  0  0  0
    5.5440   10.7540    1.5040 O   0  0  0  0  0  0  0  0  0  0  0  0
   10.9670   12.9080   -0.9930 N   0  0  0  0  0  0  0  0  0  0  0  0
   11.6960   12.9130   -0.3310 H   0  0  0  0  0  0  0  0  0  0  0  0
   11.1870   13.4690   -2.3280 C   0  0  0  0  0  0  0  0  0  0  0  0
   11.8350   14.8490   -2.2020 C   0  0  0  0  0  0  0  0  0  0  0  0
   11.6170   15.3860   -0.7850 C   0  0  0  0  0  0  0  0  0  0  0  0
    9.8020   15.9440    0.6780 C   0  0  0  0  0  0  0  0  0  0  0  0
   10.2860   15.8890   -0.6670 O   0  0  0  0  0  0  0  0  0  0  0  0
  1  6  2  0  0  0  0
  2  3  2  0  0  0  0
  2  1  1  0  0  0  0
  3  4  1  0  0  0  0
  4 17  1  0  0  0  0
  4  5  2  0  0  0  0
  6  5  1  0  0  0  0
  6  7  1  0  0  0  0
  7  8  1  0  0  0  0
  8  9  1  0  0  0  0
  8 15  1  0  0  0  0
  9 10  1  0  0  0  0
 10 11  1  0  0  0  0
 11 12  1  0  0  0  0
 11 13  1  0  0  0  0
 14 11  1  0  0  0  0
 15 14  1  0  0  0  0
 16  7  2  0  0  0  0
 17 19  2  0  0  0  0
 18 17  2  0  0  0  0
 20  1  1  0  0  0  0
 20 21  1  0  0  0  0
 22 23  1  0  0  0  0
 22 20  1  0  0  0  0
 23 24  1  0  0  0  0
 24 26  1  0  0  0  0
 26 25  1  0  0  0  0
M  END
>  <MODEL>
1

>  <REMARK>
 VINA RESULT:      -6.3      0.000      0.000
  Name = ZINC04839229
                            x       y       z     vdW  Elec       q    Type
                         _______ _______ _______ _____ _____    ______ ____

>  <TORSDO>
F 7

>  <vina_score>
-6.3

$$$$
ZINC20292668
 OpenBabel01081722313D

 24 24  0  0  1  0  0  0  0  0999 V2000
   11.0250   10.2710    1.4090 C   0  0  0  0  0  0  0  0  0  0  0  0
    9.6140   10.7910    1.3130 C   0  0  0  0  0  0  0  0  0  0  0  0
    9.2720   11.6810    0.3120 C   0  0  1  0  0  0  0  0  0  0  0  0
    7.8750   12.1010    0.1000 C   0  0  0  0  0  0  0  0  0  0  0  0
    7.6160   12.9740   -0.8960 N   0  0  0  0  0  0  0  0  0  0  0  0
    6.6870   13.2650   -1.0500 H   0  0  0  0  0  0  0  0  0  0  0  0
    8.5910   13.4520   -1.6800 C   0  0  0  0  0  0  0  0  0  0  0  0
    9.8810   13.1140   -1.5440 N   0  0  0  0  0  0  0  0  0  0  0  0
    8.2900   14.2340   -2.5600 O   0  0  0  0  0  0  0  0  0  0  0  0
    6.9800   11.6760    0.8080 O   0  0  0  0  0  0  0  0  0  0  0  0
   10.2880   12.2520   -0.5900 C   0  0  0  0  0  0  0  0  0  0  0  0
   11.4620   11.9520   -0.4780 O   0  0  0  0  0  0  0  0  0  0  0  0
    8.6850   10.3870    2.2020 N   0  0  0  0  0  0  0  0  0  0  0  0
    7.8600    9.9510    1.8880 H   0  0  0  0  0  0  0  0  0  0  0  0
    8.9030   10.5960    3.6360 C   0  0  0  0  0  0  0  0  0  0  0  0
    8.9440   12.0960    3.9320 C   0  0  0  0  0  0  0  0  0  0  0  0
   10.2670   12.4450    4.6160 C   0  0  0  0  0  0  0  0  0  0  0  0
   10.9320   13.5250    3.8750 N   0  0  0  0  0  0  0  0  0  0  0  0
   11.1700   14.2610    4.5390 H   0  0  0  0  0  0  0  0  0  0  0  0
   10.0340   14.1010    2.8650 C   0  0  0  0  0  0  0  0  0  0  0  0
   12.1790   13.0490    3.2600 C   0  0  0  0  0  0  0  0  0  0  0  0
   10.8730   13.6940   -2.4540 C   0  0  0  0  0  0  0  0  0  0  0  0
   11.2910   15.0490   -1.9420 C   0  0  0  0  0  0  0  0  0  0  0  0
   12.4100   15.1790   -1.2740 C   0  0  0  0  0  0  0  0  0  0  0  0
  2  1  1  0  0  0  0
  2 13  2  0  0  0  0
  3  2  1  1  0  0  0
  4  3  1  0  0  0  0
  4 10  2  0  0  0  0
  5  4  1  0  0  0  0
  6  5  1  0  0  0  0
  7  8  1  0  0  0  0
  7  5  1  0  0  0  0
  8 11  1  0  0  0  0
  9  7  2  0  0  0  0
 11 12  2  0  0  0  0
 11  3  1  0  0  0  0
 13 15  1  0  0  0  0
 14 13  1  0  0  0  0
 15 16  1  0  0  0  0
 16 17  1  0  0  0  0
 18 19  1  0  0  0  0
 18 17  1  0  0  0  0
 20 18  1  0  0  0  0
 21 18  1  0  0  0  0
 22 23  1  0  0  0  0
 22  8  1  0  0  0  0
 23 24  2  0  0  0  0
M  END
>  <MODEL>
1

>  <REMARK>
 VINA RESULT:      -6.3      0.000      0.000
  Name = ZINC20292668
                            x       y       z     vdW  Elec       q    Type
                         _______ _______ _______ _____ _____    ______ ____

>  <TORSDO>
F 7

>  <vina_score>
-6.3

$$$$
ZINC31792221
 OpenBabel01081722483D

 22 23  0  0  0  0  0  0  0  0999 V2000
   12.6430   14.8920   -1.1420 C   0  0  0  0  0  0  0  0  0  0  0  0
   11.3180   14.3530   -0.6660 C   0  0  0  0  0  0  0  0  0  0  0  0
   10.5530   13.5830   -1.4770 C   0  0  0  0  0  0  0  0  0  0  0  0
    9.1630   13.2510   -0.4040 S   0  0  0  0  0  0  0  0  0  0  0  0
    9.7200   14.1500    0.9730 C   0  0  0  0  0  0  0  0  0  0  0  0
   10.8760   14.6240    0.5470 N   0  0  0  0  0  0  0  0  0  0  0  0
   10.8060   13.1280   -2.8910 C   0  0  0  0  0  0  0  0  0  0  0  0
    9.5960   13.4250   -3.7380 C   0  0  0  0  0  0  0  0  0  0  0  0
    9.0630   14.6630   -3.7430 N   0  0  0  0  0  0  0  0  0  0  0  0
    8.2730   14.8570   -4.2960 H   0  0  0  0  0  0  0  0  0  0  0  0
    9.4660   15.3730   -3.1930 H   0  0  0  0  0  0  0  0  0  0  0  0
    9.1010   12.5500   -4.4160 O   0  0  0  0  0  0  0  0  0  0  0  0
    8.9420   14.3720    2.5390 S   0  0  0  0  0  0  0  0  0  0  0  0
    8.5570   12.6500    2.9440 C   0  0  0  0  0  0  0  0  0  0  0  0
    9.6430   12.0890    3.8650 C   0  0  0  0  0  0  0  0  0  0  0  0
   10.8670   11.8600    3.0920 N   0  0  0  0  0  0  0  0  0  0  0  0
   12.0040   12.5660    3.2480 C   0  0  0  0  0  0  0  0  0  0  0  0
   12.9880   11.9870    2.2520 C   0  0  0  0  0  0  0  0  0  0  0  0
   12.2180   10.9200    1.5860 N   0  0  0  0  0  0  0  0  0  0  0  0
   12.2000   13.4770    4.0250 O   0  0  0  0  0  0  0  0  0  0  0  0
   10.9960   10.9210    2.1480 C   0  0  0  0  0  0  0  0  0  0  0  0
   10.1060   10.1560    1.8310 O   0  0  0  0  0  0  0  0  0  0  0  0
  1  2  1  0  0  0  0
  2  6  1  0  0  0  0
  3  2  2  0  0  0  0
  3  4  1  0  0  0  0
  4  5  1  0  0  0  0
  5 13  1  0  0  0  0
  6  5  2  0  0  0  0
  7  3  1  0  0  0  0
  8  7  1  0  0  0  0
  9  8  1  0  0  0  0
  9 11  1  0  0  0  0
 10  9  1  0  0  0  0
 12  8  2  0  0  0  0
 13 14  1  0  0  0  0
 14 15  1  0  0  0  0
 16 17  1  0  0  0  0
 16 15  1  0  0  0  0
 17 20  2  0  0  0  0
 18 17  1  0  0  0  0
 19 21  1  0  0  0  0
 19 18  2  0  0  0  0
 21 16  1  0  0  0  0
 22 21  2  0  0  0  0
M  END
>  <MODEL>
1

>  <REMARK>
 VINA RESULT:      -6.3      0.000      0.000
  Name = ZINC31792221
                            x       y       z     vdW  Elec       q    Type
                         _______ _______ _______ _____ _____    ______ ____

>  <TORSDO>
F 6

>  <vina_score>
-6.3

$$$$
ZINC31659431
 OpenBabel01081722493D

 21 21  0  0  1  0  0  0  0  0999 V2000
   10.6650   13.7260    0.9950 C   0  0  1  0  0  0  0  0  0  0  0  0
   10.2570   12.4340    0.3120 C   0  0  0  0  0  0  0  0  0  0  0  0
    9.0360   11.9370    0.5860 N   0  0  0  0  0  0  0  0  0  0  0  0
    8.1950   12.5530    1.4260 C   0  0  0  0  0  0  0  0  0  0  0  0
    8.4610   13.6950    2.0710 N   0  0  0  0  0  0  0  0  0  0  0  0
    7.7780   14.0740    2.6700 H   0  0  0  0  0  0  0  0  0  0  0  0
    7.1110   12.0380    1.6140 O   0  0  0  0  0  0  0  0  0  0  0  0
   11.0050   11.8640   -0.4530 O   0  0  0  0  0  0  0  0  0  0  0  0
    9.6380   14.3400    1.9270 C   0  0  0  0  0  0  0  0  0  0  0  0
    9.8640   15.3740    2.5190 O   0  0  0  0  0  0  0  0  0  0  0  0
   11.9370   13.4580    1.8000 C   0  0  0  0  0  0  0  0  0  0  0  0
   11.6370   12.4430    2.9060 C   0  0  0  0  0  0  0  0  0  0  0  0
   13.8090   12.9020    4.0520 C   0  0  0  0  0  0  0  0  0  0  0  0
   12.9470   11.8220    3.3970 C   0  0  0  0  0  0  0  0  0  0  0  0
   10.9980   14.7530   -0.0900 C   0  0  0  0  0  0  0  0  0  0  0  0
    9.7460   15.0440   -0.9190 C   0  0  0  0  0  0  0  0  0  0  0  0
   10.0800   14.9820   -2.3480 N   0  0  0  0  0  0  0  0  0  0  0  0
   10.1290   15.9340   -2.7110 H   0  0  0  0  0  0  0  0  0  0  0  0
   10.9780   14.5100   -2.4610 H   0  0  0  0  0  0  0  0  0  0  0  0
    9.0530   14.2470   -3.0980 C   0  0  0  0  0  0  0  0  0  0  0  0
    7.8570   13.9700   -2.1860 C   0  0  0  0  0  0  0  0  0  0  0  0
  1 15  1  6  0  0  0
  1 11  1  0  0  0  0
  1  9  1  0  0  0  0
  2  3  1  0  0  0  0
  2  1  1  0  0  0  0
  3  4  1  0  0  0  0
  4  7  2  0  0  0  0
  4  5  1  0  0  0  0
  5  6  1  0  0  0  0
  8  2  2  0  0  0  0
  9  5  1  0  0  0  0
  9 10  2  0  0  0  0
 11 12  1  0  0  0  0
 12 14  1  0  0  0  0
 14 13  1  0  0  0  0
 16 15  1  0  0  0  0
 17 16  1  0  0  0  0
 18 17  1  0  0  0  0
 19 17  1  0  0  0  0
 20 17  1  0  0  0  0
 20 21  1  0  0  0  0
M  END
>  <MODEL>
1

>  <REMARK>
 VINA RESULT:      -6.3      0.000      0.000
  Name = ZINC31659431
                            x       y       z     vdW  Elec       q    Type
                         _______ _______ _______ _____ _____    ______ ____

>  <TORSDO>
F 7

>  <vina_score>
-6.3

$$$$
ZINC08615535
 OpenBabel01081722493D

 31 32  0  0  1  0  0  0  0  0999 V2000
    9.7570   16.1800   -0.6090 C   0  0  0  0  0  0  0  0  0  0  0  0
   10.4560   14.9000   -1.0720 C   0  0  0  0  0  0  0  0  0  0  0  0
   11.8760   14.8500   -0.5050 C   0  0  0  0  0  0  0  0  0  0  0  0
   10.5050   14.8630   -2.5460 N   0  0  0  0  0  0  0  0  0  0  0  0
   11.3390   15.0400   -3.0370 H   0  0  0  0  0  0  0  0  0  0  0  0
    9.3210   14.5640   -3.2090 C   0  0  2  0  0  0  0  0  0  0  0  0
    8.9850   15.2780   -4.2720 N   0  0  0  0  0  0  0  0  0  0  0  0
    8.1500   15.0810   -4.7540 H   0  0  0  0  0  0  0  0  0  0  0  0
    9.5710   16.0080   -4.5810 H   0  0  0  0  0  0  0  0  0  0  0  0
    8.5690   13.5130   -2.6870 N   0  0  0  0  0  0  0  0  0  0  0  0
    8.1030   12.8670   -3.2660 H   0  0  0  0  0  0  0  0  0  0  0  0
    8.5170   13.4320   -1.2960 C   0  0  1  0  0  0  0  0  0  0  0  0
    7.4400   13.1020   -0.5980 N   0  0  0  0  0  0  0  0  0  0  0  0
    7.4830   13.0650    0.3850 H   0  0  0  0  0  0  0  0  0  0  0  0
    6.5980   12.8920   -1.0620 H   0  0  0  0  0  0  0  0  0  0  0  0
    9.6930   13.7230   -0.6200 N   0  0  0  0  0  0  0  0  0  0  0  0
   10.1380   12.9310    0.4480 C   0  0  0  0  0  0  0  0  0  0  0  0
   10.5880   11.6370    0.2140 C   0  0  0  0  0  0  0  0  0  0  0  0
   11.0310   10.8600    1.2650 C   0  0  0  0  0  0  0  0  0  0  0  0
   11.0150   11.3660    2.5590 C   0  0  0  0  0  0  0  0  0  0  0  0
   10.5600   12.6560    2.7930 C   0  0  0  0  0  0  0  0  0  0  0  0
   10.1230   13.4370    1.7410 C   0  0  0  0  0  0  0  0  0  0  0  0
   11.4580   10.5750    3.6240 N   0  0  0  0  0  0  0  0  0  0  0  0
   10.5200   10.1680    4.6730 C   0  0  0  0  0  0  0  0  0  0  0  0
    9.0980   10.1540    4.1070 C   0  0  0  0  0  0  0  0  0  0  0  0
    8.1640   10.4130    5.1570 O   0  0  0  0  0  0  0  0  0  0  0  0
    8.1870   11.3570    5.3830 H   0  0  0  0  0  0  0  0  0  0  0  0
   12.8600   10.1550    3.6930 C   0  0  0  0  0  0  0  0  0  0  0  0
   13.7300   11.3460    4.0980 C   0  0  0  0  0  0  0  0  0  0  0  0
   14.7130   10.9160    5.0420 O   0  0  0  0  0  0  0  0  0  0  0  0
   14.8600   11.6150    5.6990 H   0  0  0  0  0  0  0  0  0  0  0  0
  2 16  1  0  0  0  0
  2  1  1  0  0  0  0
  2  3  1  0  0  0  0
  4  2  1  0  0  0  0
  5  4  1  0  0  0  0
  6  7  1  1  0  0  0
  6 10  1  0  0  0  0
  6  4  1  0  0  0  0
  8  7  1  0  0  0  0
  9  7  1  0  0  0  0
 10 12  1  0  0  0  0
 11 10  1  0  0  0  0
 12 16  1  0  0  0  0
 12 13  1  6  0  0  0
 13 14  1  0  0  0  0
 15 13  1  0  0  0  0
 16 17  1  0  0  0  0
 17 22  1  0  0  0  0
 18 17  2  0  0  0  0
 18 19  1  0  0  0  0
 19 20  2  0  0  0  0
 20 21  1  0  0  0  0
 20 23  1  0  0  0  0
 22 21  2  0  0  0  0
 23 28  1  0  0  0  0
 23 24  1  0  0  0  0
 25 24  1  0  0  0  0
 25 26  1  0  0  0  0
 26 27  1  0  0  0  0
 28 29  1  0  0  0  0
 29 30  1  0  0  0  0
 30 31  1  0  0  0  0
M  END
>  <MODEL>
1

>  <REMARK>
 VINA RESULT:      -6.3      0.000      0.000
  Name = ZINC08615535
                            x       y       z     vdW  Elec       q    Type
                         _______ _______ _______ _____ _____    ______ ____

>  <TORSDO>
F 8

>  <vina_score>
-6.3

$$$$
ZINC06078676
 OpenBabel01081722493D

 23 24  0  0  0  0  0  0  0  0999 V2000
    7.5570   12.1420   -1.0490 S   0  0  0  0  0  0  0  0  0  0  0  0
   12.9720   14.5750   -0.9200 C   0  0  0  0  0  0  0  0  0  0  0  0
   11.5830   13.9930   -0.9630 C   0  0  0  0  0  0  0  0  0  0  0  0
   10.4870   14.7950   -1.3490 C   0  0  0  0  0  0  0  0  0  0  0  0
    9.2590   14.2270   -1.3730 N   0  0  0  0  0  0  0  0  0  0  0  0
    9.1410   12.9140   -1.0280 C   0  0  0  0  0  0  0  0  0  0  0  0
   10.2070   12.2170   -0.6700 N   0  0  0  0  0  0  0  0  0  0  0  0
   10.6430   15.9660   -1.6510 O   0  0  0  0  0  0  0  0  0  0  0  0
   11.3830   12.7360   -0.6450 N   0  0  0  0  0  0  0  0  0  0  0  0
    8.1620   14.9550   -1.7380 N   0  0  0  0  0  0  0  0  0  0  0  0
    8.1970   15.5300   -2.5380 H   0  0  0  0  0  0  0  0  0  0  0  0
    7.3370   14.9050   -1.2040 H   0  0  0  0  0  0  0  0  0  0  0  0
    7.8390   10.8140    0.1470 C   0  0  0  0  0  0  0  0  0  0  0  0
    6.9610   11.0430    1.3800 C   0  0  0  0  0  0  0  0  0  0  0  0
    7.1700   12.3680    1.8730 O   0  0  0  0  0  0  0  0  0  0  0  0
    8.3930   12.6450    2.4010 C   0  0  0  0  0  0  0  0  0  0  0  0
    8.9230   13.9210    2.2900 C   0  0  0  0  0  0  0  0  0  0  0  0
   10.1620   14.2040    2.8300 C   0  0  0  0  0  0  0  0  0  0  0  0
   10.8810   13.2080    3.4750 C   0  0  0  0  0  0  0  0  0  0  0  0
   10.3520   11.9300    3.5810 C   0  0  0  0  0  0  0  0  0  0  0  0
    9.1110   11.6490    3.0450 C   0  0  0  0  0  0  0  0  0  0  0  0
   12.1030   13.4840    4.0030 O   0  0  0  0  0  0  0  0  0  0  0  0
   13.2050   12.7100    3.5260 C   0  0  0  0  0  0  0  0  0  0  0  0
  1  6  1  0  0  0  0
  1 13  1  0  0  0  0
  3  2  1  0  0  0  0
  3  9  2  0  0  0  0
  4  3  1  0  0  0  0
  5  4  1  0  0  0  0
  5  6  1  0  0  0  0
  6  7  2  0  0  0  0
  7  9  1  0  0  0  0
  8  4  2  0  0  0  0
 10  5  1  0  0  0  0
 10 12  1  0  0  0  0
 11 10  1  0  0  0  0
 13 14  1  0  0  0  0
 14 15  1  0  0  0  0
 15 16  1  0  0  0  0
 16 21  1  0  0  0  0
 17 16  2  0  0  0  0
 17 18  1  0  0  0  0
 18 19  2  0  0  0  0
 19 20  1  0  0  0  0
 19 22  1  0  0  0  0
 21 20  2  0  0  0  0
 23 22  1  0  0  0  0
M  END
>  <MODEL>
1

>  <REMARK>
 VINA RESULT:      -6.3      0.000      0.000
  Name = ZINC06078676
                            x       y       z     vdW  Elec       q    Type
                         _______ _______ _______ _____ _____    ______ ____

>  <TORSDO>
F 7

>  <vina_score>
-6.3

$$$$
ZINC21981399
 OpenBabel01081722323D

 29 30  0  0  1  0  0  0  0  0999 V2000
   10.7720   14.2880    1.1270 C   0  0  0  0  0  0  0  0  0  0  0  0
    9.8980   13.3870    1.8800 N   0  0  0  0  0  0  0  0  0  0  0  0
    8.5690   13.5750    2.2520 C   0  0  0  0  0  0  0  0  0  0  0  0
    8.2580   12.9180    3.3430 N   0  0  0  0  0  0  0  0  0  0  0  0
    9.4580   12.2420    3.7940 C   0  0  1  0  0  0  0  0  0  0  0  0
    9.3950   10.8730    4.3780 C   0  0  0  0  0  0  0  0  0  0  0  0
    8.4080   10.4340    4.9280 O   0  0  0  0  0  0  0  0  0  0  0  0
   10.5540   10.1540    4.2370 N   0  0  0  0  0  0  0  0  0  0  0  0
   10.5910    9.2160    4.5310 H   0  0  0  0  0  0  0  0  0  0  0  0
   11.6730   10.7540    3.6810 C   0  0  0  0  0  0  0  0  0  0  0  0
   11.5580   11.7030    2.7710 N   0  0  0  0  0  0  0  0  0  0  0  0
   10.2030   12.0690    2.4280 C   0  0  2  0  0  0  0  0  0  0  0  0
   12.9250   10.3530    4.0840 N   0  0  0  0  0  0  0  0  0  0  0  0
   13.3900   10.8390    4.8020 H   0  0  0  0  0  0  0  0  0  0  0  0
   13.3550    9.5780    3.6550 H   0  0  0  0  0  0  0  0  0  0  0  0
   10.0540   15.4760    0.7890 O   0  0  0  0  0  0  0  0  0  0  0  0
   10.4880   16.0940   -0.4240 C   0  0  0  0  0  0  0  0  0  0  0  0
   11.6810   15.3200   -0.9920 C   0  0  0  0  0  0  0  0  0  0  0  0
   11.3140   14.7370   -2.2700 O   0  0  0  0  0  0  0  0  0  0  0  0
   10.9460   13.4460   -2.2670 C   0  0  0  0  0  0  0  0  0  0  0  0
   11.7030   12.6020   -1.8510 O   0  0  0  0  0  0  0  0  0  0  0  0
    9.5870   13.0490   -2.7840 C   0  0  2  0  0  0  0  0  0  0  0  0
    9.3290   13.7350   -4.0570 N   0  0  0  0  0  0  0  0  0  0  0  0
    8.8870   14.6360   -3.8740 H   0  0  0  0  0  0  0  0  0  0  0  0
   10.2100   13.8830   -4.5490 H   0  0  0  0  0  0  0  0  0  0  0  0
    8.7100   13.1630   -4.6320 H   0  0  0  0  0  0  0  0  0  0  0  0
    7.6980   14.6160   -2.3150 C   0  0  0  0  0  0  0  0  0  0  0  0
    8.5170   13.4470   -1.7650 C   0  0  0  0  0  0  0  0  0  0  0  0
    7.5940   12.2540   -1.5040 C   0  0  0  0  0  0  0  0  0  0  0  0
  1  2  1  0  0  0  0
  2  3  1  0  0  0  0
  3  4  1  0  0  0  0
  5  4  1  6  0  0  0
  5  6  1  0  0  0  0
  6  7  2  0  0  0  0
  8  6  1  0  0  0  0
  8  9  1  0  0  0  0
 10 13  1  0  0  0  0
 10  8  1  0  0  0  0
 11 10  2  0  0  0  0
 12  2  1  1  0  0  0
 12 11  1  0  0  0  0
 12  5  1  0  0  0  0
 13 14  1  0  0  0  0
 15 13  1  0  0  0  0
 16  1  1  0  0  0  0
 17 16  1  0  0  0  0
 18 17  1  0  0  0  0
 19 20  1  0  0  0  0
 19 18  1  0  0  0  0
 20 21  2  0  0  0  0
 22 23  1  6  0  0  0
 22 20  1  0  0  0  0
 22 28  1  0  0  0  0
 23 24  1  0  0  0  0
 25 23  1  0  0  0  0
 26 23  1  0  0  0  0
 27 28  1  0  0  0  0
 28 29  1  0  0  0  0
M  END
>  <MODEL>
1

>  <REMARK>
 VINA RESULT:      -6.3      0.000      0.000
  Name = ZINC21981399
                            x       y       z     vdW  Elec       q    Type
                         _______ _______ _______ _____ _____    ______ ____

>  <TORSDO>
F 10

>  <vina_score>
-6.3

$$$$
ZINC17002242
 OpenBabel01081722493D

 22 22  0  0  0  0  0  0  0  0999 V2000
    8.1290   12.3170    0.2230 N   0  0  0  0  0  0  0  0  0  0  0  0
    7.6140   12.6430    1.3600 N   0  0  0  0  0  0  0  0  0  0  0  0
    8.3940   12.6660    2.4820 C   0  0  0  0  0  0  0  0  0  0  0  0
    9.2280   13.7040    2.8880 C   0  0  0  0  0  0  0  0  0  0  0  0
    9.8110   13.2830    4.0690 N   0  0  0  0  0  0  0  0  0  0  0  0
   10.4530   13.7910    4.6180 H   0  0  0  0  0  0  0  0  0  0  0  0
    9.3400   12.0500    4.3320 C   0  0  0  0  0  0  0  0  0  0  0  0
    8.5000   11.6900    3.3990 N   0  0  0  0  0  0  0  0  0  0  0  0
    9.4430   14.9800    2.2050 C   0  0  0  0  0  0  0  0  0  0  0  0
    9.4570   15.0290    0.8580 N   0  0  0  0  0  0  0  0  0  0  0  0
    9.6020   15.8870    0.3980 H   0  0  0  0  0  0  0  0  0  0  0  0
    9.3240   14.2050    0.3340 H   0  0  0  0  0  0  0  0  0  0  0  0
    9.6090   15.9960    2.8520 O   0  0  0  0  0  0  0  0  0  0  0  0
    7.3290   12.2930   -0.9270 N   0  0  0  0  0  0  0  0  0  0  0  0
    6.6380   11.6000   -1.0330 H   0  0  0  0  0  0  0  0  0  0  0  0
    7.5190   13.3020   -1.9730 C   0  0  0  0  0  0  0  0  0  0  0  0
    8.8860   13.1030   -2.6310 C   0  0  0  0  0  0  0  0  0  0  0  0
    9.5870   14.4560   -2.7700 C   0  0  0  0  0  0  0  0  0  0  0  0
   11.6470   15.4280   -1.9500 C   0  0  0  0  0  0  0  0  0  0  0  0
   11.0430   14.2560   -2.6180 N   0  0  0  0  0  0  0  0  0  0  0  0
   11.4610   14.1480   -3.5410 H   0  0  0  0  0  0  0  0  0  0  0  0
   11.3040   13.0350   -1.8280 C   0  0  0  0  0  0  0  0  0  0  0  0
  1  2  2  0  0  0  0
  2  3  1  0  0  0  0
  3  4  2  0  0  0  0
  3  8  1  0  0  0  0
  4  5  1  0  0  0  0
  5  7  1  0  0  0  0
  5  6  1  0  0  0  0
  8  7  2  0  0  0  0
  9 13  2  0  0  0  0
  9  4  1  0  0  0  0
 10  9  1  0  0  0  0
 11 10  1  0  0  0  0
 12 10  1  0  0  0  0
 14  1  1  0  0  0  0
 15 14  1  0  0  0  0
 16 14  1  0  0  0  0
 17 16  1  0  0  0  0
 18 17  1  0  0  0  0
 18 20  1  0  0  0  0
 20 19  1  0  0  0  0
 20 22  1  0  0  0  0
 21 20  1  0  0  0  0
M  END
>  <MODEL>
1

>  <REMARK>
 VINA RESULT:      -6.3      0.000      0.000
  Name = ZINC17002242
                            x       y       z     vdW  Elec       q    Type
                         _______ _______ _______ _____ _____    ______ ____

>  <TORSDO>
F 7

>  <vina_score>
-6.3

$$$$
ZINC14116594
 OpenBabel01081722513D

 26 27  0  0  1  0  0  0  0  0999 V2000
    8.5510   11.4870    1.8300 C   0  0  0  0  0  0  0  0  0  0  0  0
    8.2530   12.6880    2.3640 N   0  0  0  0  0  0  0  0  0  0  0  0
    7.8630   12.7430    3.2670 H   0  0  0  0  0  0  0  0  0  0  0  0
    9.0300   11.4200    0.7190 O   0  0  0  0  0  0  0  0  0  0  0  0
    8.4970   13.8600    1.6340 N   0  0  0  0  0  0  0  0  0  0  0  0
    7.9660   14.0570    0.8290 H   0  0  0  0  0  0  0  0  0  0  0  0
    9.4570   14.7160    2.0350 C   0  0  0  0  0  0  0  0  0  0  0  0
   10.1110   14.4730    3.0270 O   0  0  0  0  0  0  0  0  0  0  0  0
    9.7200   15.9750    1.2500 C   0  0  0  0  0  0  0  0  0  0  0  0
   10.2700   15.6090   -0.1300 C   0  0  2  0  0  0  0  0  0  0  0  0
    9.1490   14.9980   -0.9910 C   0  0  0  0  0  0  0  0  0  0  0  0
    9.7540   14.3370   -2.2530 C   0  0  0  0  0  0  0  0  0  0  0  0
   11.4380   13.8560   -1.6890 S   0  0  0  0  0  0  0  0  0  0  0  0
   11.5140   12.4390   -1.6130 O   0  0  0  0  0  0  0  0  0  0  0  0
   12.4020   14.5680   -2.4530 O   0  0  0  0  0  0  0  0  0  0  0  0
   11.3970   14.5470    0.0180 C   0  0  0  0  0  0  0  0  0  0  0  0
    8.2880   10.2280    2.6160 C   0  0  0  0  0  0  0  0  0  0  0  0
    9.1130   10.3380    4.2240 S   0  0  0  0  0  0  0  0  0  0  0  0
   12.5470   11.9880    3.3860 C   0  0  0  0  0  0  0  0  0  0  0  0
   11.3230   12.0380    3.9940 N   0  0  0  0  0  0  0  0  0  0  0  0
   10.9540   12.7800    4.5270 H   0  0  0  0  0  0  0  0  0  0  0  0
   10.7200   10.8480    3.7080 C   0  0  0  0  0  0  0  0  0  0  0  0
   11.5630   10.1540    2.9810 N   0  0  0  0  0  0  0  0  0  0  0  0
   12.6390   10.8310    2.7940 N   0  0  0  0  0  0  0  0  0  0  0  0
   14.4900   12.8930    4.6350 C   0  0  0  0  0  0  0  0  0  0  0  0
   13.5980   13.0680    3.4040 C   0  0  0  0  0  0  0  0  0  0  0  0
  1  2  1  0  0  0  0
  1 17  1  0  0  0  0
  2  3  1  0  0  0  0
  4  1  2  0  0  0  0
  5  7  1  0  0  0  0
  5  2  1  0  0  0  0
  6  5  1  0  0  0  0
  7  8  2  0  0  0  0
  9  7  1  0  0  0  0
 10 16  1  0  0  0  0
 10  9  1  1  0  0  0
 11 10  1  0  0  0  0
 12 13  1  0  0  0  0
 12 11  1  0  0  0  0
 13 14  2  0  0  0  0
 13 16  1  0  0  0  0
 15 13  2  0  0  0  0
 17 18  1  0  0  0  0
 19 26  1  0  0  0  0
 19 20  1  0  0  0  0
 20 21  1  0  0  0  0
 22 20  1  0  0  0  0
 22 18  1  0  0  0  0
 23 22  2  0  0  0  0
 24 23  1  0  0  0  0
 24 19  2  0  0  0  0
 26 25  1  0  0  0  0
M  END
>  <MODEL>
1

>  <REMARK>
 VINA RESULT:      -6.3      0.000      0.000
  Name = ZINC14116594
                            x       y       z     vdW  Elec       q    Type
                         _______ _______ _______ _____ _____    ______ ____

>  <TORSDO>
F 7

>  <vina_score>
-6.3

$$$$
ZINC04372269
 OpenBabel01081722513D

 24 25  0  0  1  0  0  0  0  0999 V2000
   10.5140   13.1520    3.0700 C   0  0  2  0  0  0  0  0  0  0  0  0
    9.8790   12.8950    4.3750 N   0  0  0  0  0  0  0  0  0  0  0  0
   10.5750   13.0150    5.1120 H   0  0  0  0  0  0  0  0  0  0  0  0
    9.1100   13.5510    4.5120 H   0  0  0  0  0  0  0  0  0  0  0  0
    9.3580   11.5170    4.4290 C   0  0  0  0  0  0  0  0  0  0  0  0
    8.7110   11.1810    3.1100 C   0  0  0  0  0  0  0  0  0  0  0  0
    9.0460   10.1540    2.3080 C   0  0  0  0  0  0  0  0  0  0  0  0
    8.1890   10.2150    1.1850 C   0  0  0  0  0  0  0  0  0  0  0  0
    7.3820   11.2760    1.3670 C   0  0  0  0  0  0  0  0  0  0  0  0
    7.6990   11.8540    2.5380 O   0  0  0  0  0  0  0  0  0  0  0  0
   12.0130   13.1560    3.2300 C   0  0  0  0  0  0  0  0  0  0  0  0
   12.7990   12.7730    2.2120 O   0  0  0  0  0  0  0  0  0  0  0  0
   12.5070   13.5050    4.2770 O   0  0  0  0  0  0  0  0  0  0  0  0
   10.0540   14.5140    2.5460 C   0  0  0  0  0  0  0  0  0  0  0  0
    9.9600   13.2670    0.4120 N   0  0  0  0  0  0  0  0  0  0  0  0
   10.0150   12.4330    0.9320 H   0  0  0  0  0  0  0  0  0  0  0  0
    9.9130   14.4550    1.0470 C   0  0  0  0  0  0  0  0  0  0  0  0
    9.7600   15.4770    0.4120 O   0  0  0  0  0  0  0  0  0  0  0  0
   11.0220   13.2630   -3.1060 C   0  0  0  0  0  0  0  0  0  0  0  0
   11.1040   13.3200   -1.7240 C   0  0  0  0  0  0  0  0  0  0  0  0
    9.9280   13.2200   -0.9860 C   0  0  0  0  0  0  0  0  0  0  0  0
    8.7200   13.0790   -1.6580 C   0  0  0  0  0  0  0  0  0  0  0  0
    8.6870   13.0350   -2.9750 N   0  0  0  0  0  0  0  0  0  0  0  0
    9.7820   13.1210   -3.7020 C   0  0  0  0  0  0  0  0  0  0  0  0
  1 14  1  1  0  0  0
  1 11  1  0  0  0  0
  1  2  1  0  0  0  0
  2  5  1  0  0  0  0
  2  4  1  0  0  0  0
  2  3  1  0  0  0  0
  6  5  1  0  0  0  0
  7  6  2  0  0  0  0
  8  9  2  0  0  0  0
  8  7  1  0  0  0  0
  9 10  1  0  0  0  0
 10  6  1  0  0  0  0
 11 13  1  0  0  0  0
 12 11  2  0  0  0  0
 15 16  1  0  0  0  0
 15 17  1  0  0  0  0
 17 14  1  0  0  0  0
 18 17  2  0  0  0  0
 19 20  1  0  0  0  0
 20 21  2  0  0  0  0
 21 15  1  0  0  0  0
 22 21  1  0  0  0  0
 23 22  2  0  0  0  0
 24 19  2  0  0  0  0
 24 23  1  0  0  0  0
M  END
>  <MODEL>
1

>  <REMARK>
 VINA RESULT:      -6.3      0.000      0.000
  Name = ZINC04372269
                            x       y       z     vdW  Elec       q    Type
                         _______ _______ _______ _____ _____    ______ ____

>  <TORSDO>
F 7

>  <vina_score>
-6.3

$$$$
ZINC03888603
 OpenBabel01081722523D

 23 24  0  0  0  0  0  0  0  0999 V2000
   10.5650   14.5050   -1.4500 C   0  0  0  0  0  0  0  0  0  0  0  0
   11.3310   13.3590   -1.6020 C   0  0  0  0  0  0  0  0  0  0  0  0
   11.9090   12.7640   -0.4960 C   0  0  0  0  0  0  0  0  0  0  0  0
   11.7180   13.3010    0.7630 C   0  0  0  0  0  0  0  0  0  0  0  0
   10.9570   14.4430    0.9230 C   0  0  0  0  0  0  0  0  0  0  0  0
   10.3770   15.0510   -0.1810 C   0  0  0  0  0  0  0  0  0  0  0  0
   12.4550   12.5320    2.1670 S   0  0  0  0  0  0  0  0  0  0  0  0
   13.0980   11.3560    1.6950 O   0  0  0  0  0  0  0  0  0  0  0  0
   13.1510   13.5520    2.8700 O   0  0  0  0  0  0  0  0  0  0  0  0
   11.2230   12.0340    3.1550 N   0  0  0  0  0  0  0  0  0  0  0  0
   10.6970   10.6650    3.2450 C   0  0  0  0  0  0  0  0  0  0  0  0
    9.5460   10.6820    4.2730 C   0  0  0  0  0  0  0  0  0  0  0  0
    9.1110   12.1720    4.2790 C   0  0  0  0  0  0  0  0  0  0  0  0
   10.4680   12.8920    4.0870 C   0  0  0  0  0  0  0  0  0  0  0  0
    9.6040   16.2070   -0.0210 N   0  0  0  0  0  0  0  0  0  0  0  0
    8.6230   16.1430    0.0120 H   0  0  0  0  0  0  0  0  0  0  0  0
   10.0430   17.0850    0.0590 H   0  0  0  0  0  0  0  0  0  0  0  0
    9.9820   15.1130   -2.5690 N   0  0  0  0  0  0  0  0  0  0  0  0
   10.3430   15.9630   -2.9110 H   0  0  0  0  0  0  0  0  0  0  0  0
    8.8360   14.4840   -3.2320 C   0  0  0  0  0  0  0  0  0  0  0  0
    7.7470   14.1900   -2.1990 C   0  0  0  0  0  0  0  0  0  0  0  0
    7.9820   12.2720   -0.6150 C   0  0  0  0  0  0  0  0  0  0  0  0
    7.5920   12.6760   -2.0380 C   0  0  0  0  0  0  0  0  0  0  0  0
  1  6  1  0  0  0  0
  2  1  2  0  0  0  0
  2  3  1  0  0  0  0
  3  4  2  0  0  0  0
  4  5  1  0  0  0  0
  4  7  1  0  0  0  0
  6 15  1  0  0  0  0
  6  5  2  0  0  0  0
  7  9  2  0  0  0  0
  7 10  1  0  0  0  0
  8  7  2  0  0  0  0
 10 11  1  0  0  0  0
 10 14  1  0  0  0  0
 11 12  1  0  0  0  0
 12 13  1  0  0  0  0
 14 13  1  0  0  0  0
 15 16  1  0  0  0  0
 15 17  1  0  0  0  0
 18  1  1  0  0  0  0
 19 18  1  0  0  0  0
 20 18  1  0  0  0  0
 20 21  1  0  0  0  0
 21 23  1  0  0  0  0
 23 22  1  0  0  0  0
M  END
>  <MODEL>
1

>  <REMARK>
 VINA RESULT:      -6.3      0.000      0.000
  Name = ZINC03888603
                            x       y       z     vdW  Elec       q    Type
                         _______ _______ _______ _____ _____    ______ ____

>  <TORSDO>
F 7

>  <vina_score>
-6.3

$$$$
ZINC04777692
 OpenBabel01081722573D

 28 29  0  0  1  0  0  0  0  0999 V2000
    9.2300   12.1530    3.6800 C   0  0  1  0  0  0  0  0  0  0  0  0
    8.5530   12.4220    4.9090 O   0  0  0  0  0  0  0  0  0  0  0  0
    8.1910   11.5970    5.2650 H   0  0  0  0  0  0  0  0  0  0  0  0
   10.6650   12.6770    3.7620 C   0  0  0  0  0  0  0  0  0  0  0  0
   10.3050   14.4450    2.0510 C   0  0  0  0  0  0  0  0  0  0  0  0
    9.7260   15.2750    2.9180 N   0  0  0  0  0  0  0  0  0  0  0  0
    9.7970   15.1050    3.8860 H   0  0  0  0  0  0  0  0  0  0  0  0
   10.2910   14.5590    0.5810 C   0  0  0  0  0  0  0  0  0  0  0  0
    9.4960   15.2640   -0.3140 C   0  0  0  0  0  0  0  0  0  0  0  0
    9.9250   15.0110   -1.5260 N   0  0  0  0  0  0  0  0  0  0  0  0
   11.0180   14.1300   -1.4620 N   0  0  0  0  0  0  0  0  0  0  0  0
   11.7740   13.6140   -2.6060 C   0  0  0  0  0  0  0  0  0  0  0  0
   11.2510   13.8410   -0.1680 C   0  0  0  0  0  0  0  0  0  0  0  0
   12.1550   13.0590    0.4530 N   0  0  0  0  0  0  0  0  0  0  0  0
   12.0490   12.8580    1.7420 C   0  0  0  0  0  0  0  0  0  0  0  0
   11.0190   13.3300    2.5000 N   0  0  0  0  0  0  0  0  0  0  0  0
    9.2530   10.6430    3.4290 C   0  0  2  0  0  0  0  0  0  0  0  0
   10.5850   10.1540    3.5870 O   0  0  0  0  0  0  0  0  0  0  0  0
   11.0800   10.2890    2.7640 H   0  0  0  0  0  0  0  0  0  0  0  0
    8.7690   10.3560    2.0060 C   0  0  2  0  0  0  0  0  0  0  0  0
    9.8950   10.2260    1.1370 O   0  0  0  0  0  0  0  0  0  0  0  0
    9.5880   10.1620    0.2180 H   0  0  0  0  0  0  0  0  0  0  0  0
    7.8830   11.5060    1.5250 C   0  0  2  0  0  0  0  0  0  0  0  0
    6.5130   11.1930    1.7850 O   0  0  0  0  0  0  0  0  0  0  0  0
    6.4440   10.7210    2.6300 H   0  0  0  0  0  0  0  0  0  0  0  0
    8.0830   11.7120    0.0230 C   0  0  0  0  0  0  0  0  0  0  0  0
    7.4800   10.6300   -0.6900 O   0  0  0  0  0  0  0  0  0  0  0  0
    7.5430   10.7960   -1.6440 H   0  0  0  0  0  0  0  0  0  0  0  0
  1  4  1  1  0  0  0
  1  2  1  0  0  0  0
  2  3  1  0  0  0  0
  5 16  1  0  0  0  0
  5  6  2  0  0  0  0
  6  7  1  0  0  0  0
  8  5  1  0  0  0  0
  9  8  1  0  0  0  0
 10 11  1  0  0  0  0
 10  9  2  0  0  0  0
 11 13  1  0  0  0  0
 12 11  1  0  0  0  0
 13 14  1  0  0  0  0
 13  8  2  0  0  0  0
 14 15  2  0  0  0  0
 15 16  1  0  0  0  0
 16  4  1  0  0  0  0
 17 18  1  6  0  0  0
 17  1  1  0  0  0  0
 19 18  1  0  0  0  0
 20 21  1  6  0  0  0
 20 17  1  0  0  0  0
 22 21  1  0  0  0  0
 23 26  1  6  0  0  0
 23 24  1  0  0  0  0
 23 20  1  0  0  0  0
 24 25  1  0  0  0  0
 27 26  1  0  0  0  0
 28 27  1  0  0  0  0
M  END
>  <MODEL>
1

>  <REMARK>
 VINA RESULT:      -6.3      0.000      0.000
  Name = ZINC04777692
                            x       y       z     vdW  Elec       q    Type
                         _______ _______ _______ _____ _____    ______ ____

>  <TORSDO>
F 11

>  <vina_score>
-6.3

$$$$
ZINC15775177
 OpenBabel01081722573D

 26 27  0  0  1  0  0  0  0  0999 V2000
   11.4310   12.8490    1.4670 C   0  0  0  0  0  0  0  0  0  0  0  0
   11.3550   11.8210    0.6340 N   0  0  0  0  0  0  0  0  0  0  0  0
   11.2940   11.9800   -0.6160 N   0  0  0  0  0  0  0  0  0  0  0  0
   11.3150   13.1740   -1.1730 C   0  0  0  0  0  0  0  0  0  0  0  0
   11.4220   14.1990    0.2910 S   0  0  0  0  0  0  0  0  0  0  0  0
   11.4990   12.8730    2.8520 N   0  0  0  0  0  0  0  0  0  0  0  0
   10.8130   13.3530    3.3710 H   0  0  0  0  0  0  0  0  0  0  0  0
   15.7330   10.2120    5.5290 C   0  0  0  0  0  0  0  0  0  0  0  0
   14.6080   10.9190    4.8180 C   0  0  0  0  0  0  0  0  0  0  0  0
   14.6160   12.2990    4.7140 C   0  0  0  0  0  0  0  0  0  0  0  0
   13.5870   12.9490    4.0630 C   0  0  0  0  0  0  0  0  0  0  0  0
   12.5420   12.2180    3.5120 C   0  0  0  0  0  0  0  0  0  0  0  0
   12.5340   10.8330    3.6240 C   0  0  0  0  0  0  0  0  0  0  0  0
   13.5690   10.1880    4.2720 C   0  0  0  0  0  0  0  0  0  0  0  0
   11.2570   13.5650   -2.6270 C   0  0  2  0  0  0  0  0  0  0  0  0
   11.5180   14.9650   -2.7560 O   0  0  0  0  0  0  0  0  0  0  0  0
   11.9040   15.2990   -1.9310 H   0  0  0  0  0  0  0  0  0  0  0  0
    9.8670   13.2530   -3.1850 C   0  0  2  0  0  0  0  0  0  0  0  0
    9.9560   13.0380   -4.5950 O   0  0  0  0  0  0  0  0  0  0  0  0
    9.2030   13.4600   -5.0340 H   0  0  0  0  0  0  0  0  0  0  0  0
    8.9290   14.4280   -2.9060 C   0  0  1  0  0  0  0  0  0  0  0  0
    8.6140   15.0870   -4.1350 O   0  0  0  0  0  0  0  0  0  0  0  0
    8.0240   14.5250   -4.6610 H   0  0  0  0  0  0  0  0  0  0  0  0
    7.6420   13.9120   -2.2600 C   0  0  0  0  0  0  0  0  0  0  0  0
    7.8560   13.7190   -0.8600 O   0  0  0  0  0  0  0  0  0  0  0  0
    8.7830   13.4780   -0.7050 H   0  0  0  0  0  0  0  0  0  0  0  0
  1  6  1  0  0  0  0
  2  1  2  0  0  0  0
  3  2  1  0  0  0  0
  4  3  2  0  0  0  0
  4  5  1  0  0  0  0
  5  1  1  0  0  0  0
  6  7  1  0  0  0  0
  6 12  1  0  0  0  0
  9  8  1  0  0  0  0
 10  9  1  0  0  0  0
 11 10  2  0  0  0  0
 12 13  2  0  0  0  0
 12 11  1  0  0  0  0
 13 14  1  0  0  0  0
 14  9  2  0  0  0  0
 15 16  1  1  0  0  0
 15  4  1  0  0  0  0
 16 17  1  0  0  0  0
 18 19  1  6  0  0  0
 18 21  1  0  0  0  0
 18 15  1  0  0  0  0
 20 19  1  0  0  0  0
 21 22  1  6  0  0  0
 21 24  1  0  0  0  0
 23 22  1  0  0  0  0
 24 25  1  0  0  0  0
 25 26  1  0  0  0  0
M  END
>  <MODEL>
1

>  <REMARK>
 VINA RESULT:      -6.3      0.000      0.000
  Name = ZINC15775177
                            x       y       z     vdW  Elec       q    Type
                         _______ _______ _______ _____ _____    ______ ____

>  <TORSDO>
F 10

>  <vina_score>
-6.3

$$$$
ZINC26997465
 OpenBabel01081723423D

 30 31  0  0  1  0  0  0  0  0999 V2000
    9.5100   13.7620   -2.8670 C   0  0  0  0  0  0  0  0  0  0  0  0
    9.3980   14.5630   -3.7740 O   0  0  0  0  0  0  0  0  0  0  0  0
   10.5480   13.9580   -1.8340 C   0  0  0  0  0  0  0  0  0  0  0  0
   11.7940   14.4820   -2.1840 C   0  0  0  0  0  0  0  0  0  0  0  0
   12.7570   14.6670   -1.2140 C   0  0  0  0  0  0  0  0  0  0  0  0
   12.4940   14.3260    0.1010 C   0  0  0  0  0  0  0  0  0  0  0  0
   11.2630   13.8030    0.4530 C   0  0  0  0  0  0  0  0  0  0  0  0
   10.2890   13.6160   -0.5060 C   0  0  0  0  0  0  0  0  0  0  0  0
   10.9850   13.4340    1.8880 C   0  0  0  0  0  0  0  0  0  0  0  0
   11.8710   12.3390    2.2910 N   0  0  0  0  0  0  0  0  0  0  0  0
   11.8360   11.1010    1.7590 C   0  0  0  0  0  0  0  0  0  0  0  0
   12.9180   10.3170    2.4730 C   0  0  0  0  0  0  0  0  0  0  0  0
   13.4870   11.2930    3.4180 N   0  0  0  0  0  0  0  0  0  0  0  0
   11.0930   10.7000    0.8890 O   0  0  0  0  0  0  0  0  0  0  0  0
   12.8110   12.4420    3.2380 C   0  0  0  0  0  0  0  0  0  0  0  0
   13.0300   13.4600    3.8650 O   0  0  0  0  0  0  0  0  0  0  0  0
    8.6880   12.6960   -2.8030 O   0  0  0  0  0  0  0  0  0  0  0  0
    7.2090   14.3780   -1.8480 C   0  0  0  0  0  0  0  0  0  0  0  0
    7.3310   12.9370   -2.3460 C   0  0  2  0  0  0  0  0  0  0  0  0
    7.0040   11.9880   -1.2220 C   0  0  0  0  0  0  0  0  0  0  0  0
    7.7810   11.9560   -0.1210 N   0  0  0  0  0  0  0  0  0  0  0  0
    8.5610   12.5520   -0.0500 H   0  0  0  0  0  0  0  0  0  0  0  0
    7.4880   11.1090    0.8860 C   0  0  0  0  0  0  0  0  0  0  0  0
    8.2640   11.0760    1.9870 N   0  0  0  0  0  0  0  0  0  0  0  0
    9.0440   11.6720    2.0570 H   0  0  0  0  0  0  0  0  0  0  0  0
    6.5240   10.3720    0.7990 O   0  0  0  0  0  0  0  0  0  0  0  0
    6.0440   11.2550   -1.3070 O   0  0  0  0  0  0  0  0  0  0  0  0
    7.9460   10.1530    3.0800 C   0  0  0  0  0  0  0  0  0  0  0  0
    8.9200   10.3610    4.2110 C   0  0  0  0  0  0  0  0  0  0  0  0
    9.3410   11.5660    4.5010 C   0  0  0  0  0  0  0  0  0  0  0  0
  1 17  1  0  0  0  0
  1  3  1  0  0  0  0
  2  1  2  0  0  0  0
  3  8  1  0  0  0  0
  4  3  2  0  0  0  0
  4  5  1  0  0  0  0
  5  6  2  0  0  0  0
  6  7  1  0  0  0  0
  7  9  1  0  0  0  0
  8  7  2  0  0  0  0
  9 10  1  0  0  0  0
 10 15  1  0  0  0  0
 11 10  1  0  0  0  0
 11 12  1  0  0  0  0
 12 13  2  0  0  0  0
 14 11  2  0  0  0  0
 15 13  1  0  0  0  0
 15 16  2  0  0  0  0
 19 17  1  1  0  0  0
 19 18  1  0  0  0  0
 19 20  1  0  0  0  0
 20 21  1  0  0  0  0
 21 22  1  0  0  0  0
 21 23  1  0  0  0  0
 23 24  1  0  0  0  0
 24 25  1  0  0  0  0
 24 28  1  0  0  0  0
 26 23  2  0  0  0  0
 27 20  2  0  0  0  0
 28 29  1  0  0  0  0
 29 30  2  0  0  0  0
M  END
>  <MODEL>
1

>  <REMARK>
 VINA RESULT:      -6.3      0.000      0.000
  Name = ZINC26997465
                            x       y       z     vdW  Elec       q    Type
                         _______ _______ _______ _____ _____    ______ ____

>  <TORSDO>
F 8

>  <vina_score>
-6.3

$$$$
ZINC13165761
 OpenBabel01081722343D

 21 21  0  0  1  0  0  0  0  0999 V2000
   10.0450   12.0800    1.8210 N   0  0  0  0  0  0  0  0  0  0  0  0
    9.7290   11.7090    0.5610 C   0  0  0  0  0  0  0  0  0  0  0  0
    8.2920   11.2920    0.3000 C   0  0  1  0  0  0  0  0  0  0  0  0
    7.3560   11.3360    1.4910 C   0  0  0  0  0  0  0  0  0  0  0  0
    7.8530   11.7320    2.6620 N   0  0  0  0  0  0  0  0  0  0  0  0
    6.1860   11.0210    1.3810 O   0  0  0  0  0  0  0  0  0  0  0  0
   10.5590   11.7040   -0.3240 O   0  0  0  0  0  0  0  0  0  0  0  0
    9.1120   12.0790    2.8160 C   0  0  0  0  0  0  0  0  0  0  0  0
    9.6170   12.5670    4.3780 S   0  0  0  0  0  0  0  0  0  0  0  0
    7.7290   12.1940   -0.7680 C   0  0  0  0  0  0  0  0  0  0  0  0
    8.4100   13.2810   -1.0570 N   0  0  0  0  0  0  0  0  0  0  0  0
    9.2490   13.4770   -0.5830 H   0  0  0  0  0  0  0  0  0  0  0  0
    7.9040   14.2250   -2.1130 C   0  0  0  0  0  0  0  0  0  0  0  0
    8.9760   14.3600   -3.1960 C   0  0  0  0  0  0  0  0  0  0  0  0
    9.6130   12.9940   -3.4560 C   0  0  0  0  0  0  0  0  0  0  0  0
    8.9720   12.3740   -4.5720 O   0  0  0  0  0  0  0  0  0  0  0  0
    8.0470   12.6620   -4.6150 H   0  0  0  0  0  0  0  0  0  0  0  0
   11.4180   12.4900    2.1250 C   0  0  2  0  0  0  0  0  0  0  0  0
   11.8970   13.4890    1.0690 C   0  0  0  0  0  0  0  0  0  0  0  0
   13.0890   11.1810    3.4440 C   0  0  0  0  0  0  0  0  0  0  0  0
   12.3310   11.2620    2.1170 C   0  0  0  0  0  0  0  0  0  0  0  0
  1 18  1  0  0  0  0
  1  8  1  0  0  0  0
  2  1  1  0  0  0  0
  3 10  1  6  0  0  0
  3  2  1  0  0  0  0
  3  4  1  0  0  0  0
  4  5  1  0  0  0  0
  5  8  1  0  0  0  0
  6  4  2  0  0  0  0
  7  2  2  0  0  0  0
  8  9  2  0  0  0  0
 11 10  1  0  0  0  0
 11 12  1  0  0  0  0
 13 11  1  0  0  0  0
 14 13  1  0  0  0  0
 15 14  1  0  0  0  0
 16 15  1  0  0  0  0
 17 16  1  0  0  0  0
 18 19  1  6  0  0  0
 21 18  1  0  0  0  0
 21 20  1  0  0  0  0
M  END
>  <MODEL>
1

>  <REMARK>
 VINA RESULT:      -6.3      0.000      0.000
  Name = ZINC13165761
                            x       y       z     vdW  Elec       q    Type
                         _______ _______ _______ _____ _____    ______ ____

>  <TORSDO>
F 7

>  <vina_score>
-6.3

$$$$
ZINC05472967
 OpenBabel01081722403D

 22 23  0  0  1  0  0  0  0  0999 V2000
   10.7870   14.2460    0.7570 N   0  0  0  0  0  0  0  0  0  0  0  0
   11.6180   13.7320    0.6350 H   0  0  0  0  0  0  0  0  0  0  0  0
   10.1200   14.1810    1.9270 C   0  0  0  0  0  0  0  0  0  0  0  0
    9.0970   14.8140    2.0780 O   0  0  0  0  0  0  0  0  0  0  0  0
    9.7740   16.4110    0.2370 C   0  0  0  0  0  0  0  0  0  0  0  0
   10.2740   15.0810   -0.3320 C   0  0  1  0  0  0  0  0  0  0  0  0
   11.3940   15.3460   -1.3410 C   0  0  0  0  0  0  0  0  0  0  0  0
   11.7690   14.2080   -2.2930 C   0  0  0  0  0  0  0  0  0  0  0  0
   12.7100   14.5890   -1.1490 C   0  0  0  0  0  0  0  0  0  0  0  0
    9.1640   14.3850   -1.0030 C   0  0  0  0  0  0  0  0  0  0  0  0
    8.3070   13.8480   -1.5200 N   0  0  0  0  0  0  0  0  0  0  0  0
   10.6450   13.3180    3.0450 C   0  0  0  0  0  0  0  0  0  0  0  0
   10.5300   11.5720    2.5660 S   0  0  0  0  0  0  0  0  0  0  0  0
    8.9430   11.4390    1.8110 C   0  0  0  0  0  0  0  0  0  0  0  0
    8.7000   11.1830    0.4910 N   0  0  0  0  0  0  0  0  0  0  0  0
    9.3800   11.0400   -0.2060 H   0  0  0  0  0  0  0  0  0  0  0  0
    7.3470   11.1600    0.3080 C   0  0  0  0  0  0  0  0  0  0  0  0
    6.7770   11.3930    1.4650 N   0  0  0  0  0  0  0  0  0  0  0  0
    7.7890   11.5650    2.4180 N   0  0  0  0  0  0  0  0  0  0  0  0
    6.6890   10.9300   -0.8940 N   0  0  0  0  0  0  0  0  0  0  0  0
    7.1940   10.6150   -1.6780 H   0  0  0  0  0  0  0  0  0  0  0  0
    5.7200   11.0850   -0.9610 H   0  0  0  0  0  0  0  0  0  0  0  0
  1  3  1  0  0  0  0
  2  1  1  0  0  0  0
  3  4  2  0  0  0  0
  3 12  1  0  0  0  0
  6  7  1  6  0  0  0
  6  5  1  0  0  0  0
  6  1  1  0  0  0  0
  7  9  1  0  0  0  0
  8  7  1  0  0  0  0
  8  9  1  0  0  0  0
 10  6  1  0  0  0  0
 11 10  3  0  0  0  0
 13 12  1  0  0  0  0
 14 19  2  0  0  0  0
 14 13  1  0  0  0  0
 15 14  1  0  0  0  0
 16 15  1  0  0  0  0
 17 15  1  0  0  0  0
 17 18  2  0  0  0  0
 18 19  1  0  0  0  0
 20 17  1  0  0  0  0
 21 20  1  0  0  0  0
 22 20  1  0  0  0  0
M  END
>  <MODEL>
1

>  <REMARK>
 VINA RESULT:      -6.3      0.000      0.000
  Name = ZINC05472967
                            x       y       z     vdW  Elec       q    Type
                         _______ _______ _______ _____ _____    ______ ____

>  <TORSDO>
F 7

>  <vina_score>
-6.3

$$$$
ZINC15690560
 OpenBabel01081722443D

 21 22  0  0  1  0  0  0  0  0999 V2000
   11.5110   15.2260   -1.1570 C   0  0  0  0  0  0  0  0  0  0  0  0
   11.9720   14.0550   -0.3270 C   0  0  0  0  0  0  0  0  0  0  0  0
   12.6660   13.1990   -0.8220 O   0  0  0  0  0  0  0  0  0  0  0  0
   11.6100   13.9630    0.9630 O   0  0  0  0  0  0  0  0  0  0  0  0
    9.8030   14.4730    2.5290 C   0  0  0  0  0  0  0  0  0  0  0  0
    8.4100   13.9900    3.0020 C   0  0  0  0  0  0  0  0  0  0  0  0
    8.3340   12.2750    2.3440 S   0  0  0  0  0  0  0  0  0  0  0  0
    9.9400   12.2220    1.4430 C   0  0  0  0  0  0  0  0  0  0  0  0
    8.3830   11.3590    3.4300 O   0  0  0  0  0  0  0  0  0  0  0  0
    7.2730   12.1860    1.4030 O   0  0  0  0  0  0  0  0  0  0  0  0
   10.2020   13.7410    1.2380 C   0  0  2  0  0  0  0  0  0  0  0  0
   10.8670   14.6270   -2.7430 S   0  0  0  0  0  0  0  0  0  0  0  0
    9.2590   14.0240   -2.3500 C   0  0  0  0  0  0  0  0  0  0  0  0
    8.9260   12.7210   -2.1060 N   0  0  0  0  0  0  0  0  0  0  0  0
    9.5450   11.9540   -2.1170 H   0  0  0  0  0  0  0  0  0  0  0  0
    7.5870   12.6690   -1.8430 C   0  0  0  0  0  0  0  0  0  0  0  0
    7.1140   13.8890   -1.9120 N   0  0  0  0  0  0  0  0  0  0  0  0
    8.1730   14.7480   -2.2320 N   0  0  0  0  0  0  0  0  0  0  0  0
    6.8570   11.5240   -1.5500 N   0  0  0  0  0  0  0  0  0  0  0  0
    5.9010   11.4770   -1.7840 H   0  0  0  0  0  0  0  0  0  0  0  0
    7.2950   10.7610   -1.1080 H   0  0  0  0  0  0  0  0  0  0  0  0
  1  2  1  0  0  0  0
  2  4  1  0  0  0  0
  3  2  2  0  0  0  0
  5  6  1  0  0  0  0
  7  6  1  0  0  0  0
  7  9  2  0  0  0  0
  8  7  1  0  0  0  0
 10  7  2  0  0  0  0
 11  4  1  1  0  0  0
 11  8  1  0  0  0  0
 11  5  1  0  0  0  0
 12 13  1  0  0  0  0
 12  1  1  0  0  0  0
 13 18  2  0  0  0  0
 13 14  1  0  0  0  0
 14 16  1  0  0  0  0
 15 14  1  0  0  0  0
 16 19  1  0  0  0  0
 17 16  2  0  0  0  0
 18 17  1  0  0  0  0
 19 21  1  0  0  0  0
 20 19  1  0  0  0  0
M  END
>  <MODEL>
1

>  <REMARK>
 VINA RESULT:      -6.2      0.000      0.000
  Name = ZINC15690560
                            x       y       z     vdW  Elec       q    Type
                         _______ _______ _______ _____ _____    ______ ____

>  <TORSDO>
F 6

>  <vina_score>
-6.2

$$$$
ZINC10569467
 OpenBabel01081722473D

 23 23  0  0  1  0  0  0  0  0999 V2000
   11.9640   13.0480    2.9400 C   0  0  1  0  0  0  0  0  0  0  0  0
   13.4590   13.0730    3.2650 C   0  0  0  0  0  0  0  0  0  0  0  0
   10.7240   13.8560    0.9590 N   0  0  0  0  0  0  0  0  0  0  0  0
   10.0850   14.2840    1.5730 H   0  0  0  0  0  0  0  0  0  0  0  0
   11.7710   13.1650    1.4500 C   0  0  0  0  0  0  0  0  0  0  0  0
   12.5590   12.6380    0.6940 O   0  0  0  0  0  0  0  0  0  0  0  0
    9.4570   13.0240   -3.7910 C   0  0  0  0  0  0  0  0  0  0  0  0
    9.9850   13.5940   -2.4990 C   0  0  0  0  0  0  0  0  0  0  0  0
    9.8890   13.0360   -1.2710 C   0  0  0  0  0  0  0  0  0  0  0  0
   10.5450   13.9650   -0.4200 C   0  0  0  0  0  0  0  0  0  0  0  0
   10.9490   14.9410   -1.1900 N   0  0  0  0  0  0  0  0  0  0  0  0
   10.6460   14.7500   -2.3450 O   0  0  0  0  0  0  0  0  0  0  0  0
   11.2460   11.4880    3.5230 S   0  0  0  0  0  0  0  0  0  0  0  0
    9.6860   11.9860    4.3020 C   0  0  0  0  0  0  0  0  0  0  0  0
    8.6090   12.0860    3.2520 C   0  0  0  0  0  0  0  0  0  0  0  0
    8.4280   13.1300    2.6710 O   0  0  0  0  0  0  0  0  0  0  0  0
    7.8520   11.0160    2.9620 O   0  0  0  0  0  0  0  0  0  0  0  0
    7.8840   10.5380    1.5920 C   0  0  0  0  0  0  0  0  0  0  0  0
    6.5500   10.7920    0.9400 C   0  0  0  0  0  0  0  0  0  0  0  0
    6.4750   10.9680   -0.3940 N   0  0  0  0  0  0  0  0  0  0  0  0
    5.6040   11.1350   -0.8210 H   0  0  0  0  0  0  0  0  0  0  0  0
    7.2920   10.9310   -0.9430 H   0  0  0  0  0  0  0  0  0  0  0  0
    5.5440   10.8390    1.6150 O   0  0  0  0  0  0  0  0  0  0  0  0
  1  5  1  6  0  0  0
  1  2  1  0  0  0  0
  1 13  1  0  0  0  0
  3  5  1  0  0  0  0
  3  4  1  0  0  0  0
  6  5  2  0  0  0  0
  7  8  1  0  0  0  0
  8 12  1  0  0  0  0
  8  9  2  0  0  0  0
  9 10  1  0  0  0  0
 10  3  1  0  0  0  0
 11 10  2  0  0  0  0
 12 11  1  0  0  0  0
 13 14  1  0  0  0  0
 15 14  1  0  0  0  0
 16 15  2  0  0  0  0
 17 15  1  0  0  0  0
 18 17  1  0  0  0  0
 19 18  1  0  0  0  0
 19 23  2  0  0  0  0
 20 19  1  0  0  0  0
 21 20  1  0  0  0  0
 22 20  1  0  0  0  0
M  END
>  <MODEL>
1

>  <REMARK>
 VINA RESULT:      -6.2      0.000      0.000
  Name = ZINC10569467
                            x       y       z     vdW  Elec       q    Type
                         _______ _______ _______ _____ _____    ______ ____

>  <TORSDO>
F 8

>  <vina_score>
-6.2

$$$$
ZINC22063500
 OpenBabel01081722503D

 30 31  0  0  1  0  0  0  0  0999 V2000
    9.8580   12.6300   -1.2670 C   0  0  0  0  0  0  0  0  0  0  0  0
    8.5180   12.9220   -1.5630 C   0  0  0  0  0  0  0  0  0  0  0  0
    7.5370   12.3990   -0.7430 C   0  0  0  0  0  0  0  0  0  0  0  0
    7.9030   11.6200    0.3420 C   0  0  0  0  0  0  0  0  0  0  0  0
    9.1720   11.3650    0.6000 N   0  0  0  0  0  0  0  0  0  0  0  0
   10.1440   11.8340   -0.1530 C   0  0  0  0  0  0  0  0  0  0  0  0
    9.5080   10.5360    1.7610 C   0  0  2  0  0  0  0  0  0  0  0  0
    8.6900   10.9950    2.9700 C   0  0  2  0  0  0  0  0  0  0  0  0
    9.0620   12.4420    3.3100 C   0  0  2  0  0  0  0  0  0  0  0  0
   10.5710   12.5240    3.5630 C   0  0  1  0  0  0  0  0  0  0  0  0
   11.3160   12.0060    2.3300 C   0  0  2  0  0  0  0  0  0  0  0  0
   10.9020   10.6670    2.0530 O   0  0  0  0  0  0  0  0  0  0  0  0
   12.8000   12.0270    2.5940 C   0  0  0  0  0  0  0  0  0  0  0  0
   13.4600   10.8770    2.8060 O   0  0  0  0  0  0  0  0  0  0  0  0
   13.3960   13.0780    2.6140 O   0  0  0  0  0  0  0  0  0  0  0  0
    8.9780   10.1540    4.0890 O   0  0  0  0  0  0  0  0  0  0  0  0
    9.7950    9.6580    3.9190 H   0  0  0  0  0  0  0  0  0  0  0  0
    8.3570   12.8540    4.4820 O   0  0  0  0  0  0  0  0  0  0  0  0
    8.2360   13.8160    4.4660 H   0  0  0  0  0  0  0  0  0  0  0  0
   10.9410   13.8820    3.8090 O   0  0  0  0  0  0  0  0  0  0  0  0
   11.6190   14.1540    3.1710 H   0  0  0  0  0  0  0  0  0  0  0  0
   10.9440   13.1540   -2.1100 C   0  0  0  0  0  0  0  0  0  0  0  0
   10.8280   13.1600   -3.3160 O   0  0  0  0  0  0  0  0  0  0  0  0
   12.2030   13.6860   -1.4730 C   0  0  0  0  0  0  0  0  0  0  0  0
   11.9470   15.0940   -0.9350 C   0  0  0  0  0  0  0  0  0  0  0  0
   11.4860   15.0100    0.5210 C   0  0  0  0  0  0  0  0  0  0  0  0
    9.7260   16.6210   -0.3400 C   0  0  0  0  0  0  0  0  0  0  0  0
   10.1730   15.6440    0.6550 N   0  0  0  0  0  0  0  0  0  0  0  0
    9.4100   15.3420    1.6510 N   0  0  0  0  0  0  0  0  0  0  0  0
    9.4810   15.9790    2.6870 O   0  0  0  0  0  0  0  0  0  0  0  0
  1  6  2  0  0  0  0
  2  1  1  0  0  0  0
  2  3  1  0  0  0  0
  3  4  2  0  0  0  0
  4  5  1  0  0  0  0
  6  5  1  0  0  0  0
  7  5  1  6  0  0  0
  7 12  1  0  0  0  0
  7  8  1  0  0  0  0
  8  9  1  0  0  0  0
  8 16  1  1  0  0  0
  9 10  1  0  0  0  0
  9 18  1  1  0  0  0
 10 20  1  6  0  0  0
 11 13  1  1  0  0  0
 11 10  1  0  0  0  0
 12 11  1  0  0  0  0
 13 15  2  0  0  0  0
 13 14  1  0  0  0  0
 17 16  1  0  0  0  0
 19 18  1  0  0  0  0
 21 20  1  0  0  0  0
 22 24  1  0  0  0  0
 22  1  1  0  0  0  0
 23 22  2  0  0  0  0
 24 25  1  0  0  0  0
 25 26  1  0  0  0  0
 26 28  1  0  0  0  0
 27 28  1  0  0  0  0
 28 29  1  0  0  0  0
 29 30  2  0  0  0  0
M  END
>  <MODEL>
1

>  <REMARK>
 VINA RESULT:      -6.2      0.000      0.000
  Name = ZINC22063500
                            x       y       z     vdW  Elec       q    Type
                         _______ _______ _______ _____ _____    ______ ____

>  <TORSDO>
F 11

>  <vina_score>
-6.2

$$$$
ZINC24983928
 OpenBabel01081722533D

 27 28  0  0  0  0  0  0  0  0999 V2000
   11.5600   13.5530    1.6280 C   0  0  0  0  0  0  0  0  0  0  0  0
   12.6890   12.9070    1.9780 N   0  0  0  0  0  0  0  0  0  0  0  0
   13.3490   12.6600    1.2910 H   0  0  0  0  0  0  0  0  0  0  0  0
   10.7450   13.8600    2.4770 O   0  0  0  0  0  0  0  0  0  0  0  0
   10.4190   13.9080   -1.7820 C   0  0  0  0  0  0  0  0  0  0  0  0
   11.4480   14.7840   -1.8080 C   0  0  0  0  0  0  0  0  0  0  0  0
   12.0240   14.7820   -0.5280 C   0  0  0  0  0  0  0  0  0  0  0  0
   11.3130   13.8880    0.2210 C   0  0  0  0  0  0  0  0  0  0  0  0
   10.3420   13.3700   -0.5590 O   0  0  0  0  0  0  0  0  0  0  0  0
    9.3550   13.5350   -3.1360 S   0  0  0  0  0  0  0  0  0  0  0  0
   10.1410   12.8350   -4.0900 O   0  0  0  0  0  0  0  0  0  0  0  0
    8.6640   14.7370   -3.4520 O   0  0  0  0  0  0  0  0  0  0  0  0
    7.2230   12.8970   -1.5980 C   0  0  0  0  0  0  0  0  0  0  0  0
    8.2170   12.4660   -2.5850 N   0  0  0  0  0  0  0  0  0  0  0  0
    7.6990   12.1410   -3.4020 H   0  0  0  0  0  0  0  0  0  0  0  0
   12.9360   12.5730    3.3830 C   0  0  0  0  0  0  0  0  0  0  0  0
   13.3380   11.1010    3.4950 C   0  0  0  0  0  0  0  0  0  0  0  0
   12.2300   10.3340    4.0680 N   0  0  0  0  0  0  0  0  0  0  0  0
   12.3900    9.7310    4.8300 H   0  0  0  0  0  0  0  0  0  0  0  0
   10.9540   10.4580    3.5400 C   0  0  0  0  0  0  0  0  0  0  0  0
    9.9080   10.8730    4.3620 C   0  0  0  0  0  0  0  0  0  0  0  0
    8.6490   10.9930    3.8380 C   0  0  0  0  0  0  0  0  0  0  0  0
    8.4580   10.6930    2.4810 C   0  0  0  0  0  0  0  0  0  0  0  0
    9.5500   10.2770    1.7180 C   0  0  0  0  0  0  0  0  0  0  0  0
   10.7460   10.1800    2.2610 N   0  0  0  0  0  0  0  0  0  0  0  0
    7.1590   10.8040    1.8880 C   0  0  0  0  0  0  0  0  0  0  0  0
    6.1280   10.8920    1.4190 N   0  0  0  0  0  0  0  0  0  0  0  0
  1  2  1  0  0  0  0
  1  4  2  0  0  0  0
  2 16  1  0  0  0  0
  3  2  1  0  0  0  0
  5  9  1  0  0  0  0
  6  5  2  0  0  0  0
  6  7  1  0  0  0  0
  7  8  2  0  0  0  0
  8  1  1  0  0  0  0
  9  8  1  0  0  0  0
 10 14  1  0  0  0  0
 10  5  1  0  0  0  0
 11 10  2  0  0  0  0
 12 10  2  0  0  0  0
 14 13  1  0  0  0  0
 15 14  1  0  0  0  0
 16 17  1  0  0  0  0
 17 18  1  0  0  0  0
 18 19  1  0  0  0  0
 20 18  1  0  0  0  0
 20 21  2  0  0  0  0
 22 21  1  0  0  0  0
 23 22  2  0  0  0  0
 24 25  2  0  0  0  0
 24 23  1  0  0  0  0
 25 20  1  0  0  0  0
 26 23  1  0  0  0  0
 27 26  3  0  0  0  0
M  END
>  <MODEL>
1

>  <REMARK>
 VINA RESULT:      -6.2      0.000      0.000
  Name = ZINC24983928
                            x       y       z     vdW  Elec       q    Type
                         _______ _______ _______ _____ _____    ______ ____

>  <TORSDO>
F 8

>  <vina_score>
-6.2

$$$$
ZINC21953394
 OpenBabel01081722523D

 23 24  0  0  1  0  0  0  0  0999 V2000
   10.2920   12.9750   -1.6530 C   0  0  1  0  0  0  0  0  0  0  0  0
   11.4480   13.5630   -0.8370 C   0  0  0  0  0  0  0  0  0  0  0  0
   11.9650   12.5500    0.0340 O   0  0  0  0  0  0  0  0  0  0  0  0
   11.0070   11.8420    0.7320 C   0  0  0  0  0  0  0  0  0  0  0  0
    9.6640   11.8580    0.3420 C   0  0  0  0  0  0  0  0  0  0  0  0
    8.7580   11.1180    1.1010 C   0  0  0  0  0  0  0  0  0  0  0  0
    9.7890   10.3950    2.3620 S   0  0  0  0  0  0  0  0  0  0  0  0
   11.3490   11.0890    1.8550 C   0  0  0  0  0  0  0  0  0  0  0  0
    9.2460   12.5800   -0.7580 O   0  0  0  0  0  0  0  0  0  0  0  0
    8.3100   14.3640   -2.2760 C   0  0  0  0  0  0  0  0  0  0  0  0
    9.7620   14.0300   -2.6260 C   0  0  1  0  0  0  0  0  0  0  0  0
   10.5820   15.2450   -2.5250 N   0  0  0  0  0  0  0  0  0  0  0  0
   10.3000   15.9060   -3.2480 H   0  0  0  0  0  0  0  0  0  0  0  0
   10.4510   15.6690   -1.6070 H   0  0  0  0  0  0  0  0  0  0  0  0
   11.5650   15.0010   -2.6500 H   0  0  0  0  0  0  0  0  0  0  0  0
    7.3130   10.9690    0.9080 C   0  0  0  0  0  0  0  0  0  0  0  0
    6.5400   11.5030    1.6790 O   0  0  0  0  0  0  0  0  0  0  0  0
    6.8410   10.2410   -0.1250 O   0  0  0  0  0  0  0  0  0  0  0  0
    5.3990   10.1590   -0.2680 C   0  0  0  0  0  0  0  0  0  0  0  0
   12.6700   10.9090    2.4660 C   0  0  0  0  0  0  0  0  0  0  0  0
   13.4790   10.1580    1.9560 O   0  0  0  0  0  0  0  0  0  0  0  0
   12.9880   11.5800    3.5920 O   0  0  0  0  0  0  0  0  0  0  0  0
   13.3150   12.9880    3.4510 C   0  0  0  0  0  0  0  0  0  0  0  0
  1  2  1  1  0  0  0
  1  9  1  0  0  0  0
  2  3  1  0  0  0  0
  3  4  1  0  0  0  0
  4  8  2  0  0  0  0
  5  4  1  0  0  0  0
  5  6  2  0  0  0  0
  6  7  1  0  0  0  0
  8  7  1  0  0  0  0
  8 20  1  0  0  0  0
  9  5  1  0  0  0  0
 11 12  1  1  0  0  0
 11 10  1  0  0  0  0
 11  1  1  0  0  0  0
 12 14  1  0  0  0  0
 13 12  1  0  0  0  0
 15 12  1  0  0  0  0
 16  6  1  0  0  0  0
 16 17  2  0  0  0  0
 18 16  1  0  0  0  0
 19 18  1  0  0  0  0
 20 22  1  0  0  0  0
 21 20  2  0  0  0  0
 23 22  1  0  0  0  0
M  END
>  <MODEL>
1

>  <REMARK>
 VINA RESULT:      -6.2      0.000      0.000
  Name = ZINC21953394
                            x       y       z     vdW  Elec       q    Type
                         _______ _______ _______ _____ _____    ______ ____

>  <TORSDO>
F 6

>  <vina_score>
-6.2

$$$$
ZINC19752419
 OpenBabel01081722553D

 24 25  0  0  1  0  0  0  0  0999 V2000
    8.6030   13.2480   -0.6050 C   0  0  0  0  0  0  0  0  0  0  0  0
    8.1770   12.4410    0.3210 N   0  0  0  0  0  0  0  0  0  0  0  0
    8.9870   12.5250    1.4090 C   0  0  0  0  0  0  0  0  0  0  0  0
    8.9900   11.8930    2.6560 C   0  0  0  0  0  0  0  0  0  0  0  0
    9.9710   12.1980    3.5760 C   0  0  0  0  0  0  0  0  0  0  0  0
   10.9640   13.1290    3.2660 C   0  0  0  0  0  0  0  0  0  0  0  0
   10.9670   13.7640    2.0390 C   0  0  0  0  0  0  0  0  0  0  0  0
    9.9850   13.4650    1.1050 C   0  0  0  0  0  0  0  0  0  0  0  0
    9.7150   13.9060   -0.1780 N   0  0  0  0  0  0  0  0  0  0  0  0
    9.9750   11.5840    4.7890 O   0  0  0  0  0  0  0  0  0  0  0  0
   10.0270   10.1550    4.7930 C   0  0  0  0  0  0  0  0  0  0  0  0
   11.9310   13.4180    4.1790 O   0  0  0  0  0  0  0  0  0  0  0  0
   13.2420   12.9140    3.9180 C   0  0  0  0  0  0  0  0  0  0  0  0
    7.9590   13.4280   -1.9570 C   0  0  2  0  0  0  0  0  0  0  0  0
    6.6240   12.8160   -1.9490 N   0  0  0  0  0  0  0  0  0  0  0  0
    6.6930   11.8540   -1.6160 H   0  0  0  0  0  0  0  0  0  0  0  0
    6.0100   13.3460   -1.3310 H   0  0  0  0  0  0  0  0  0  0  0  0
    6.2420   12.8210   -2.8940 H   0  0  0  0  0  0  0  0  0  0  0  0
    9.1810   13.7760   -4.1080 C   0  0  0  0  0  0  0  0  0  0  0  0
    8.8220   12.7550   -3.0260 C   0  0  0  0  0  0  0  0  0  0  0  0
   10.4830   14.8960   -0.9360 C   0  0  0  0  0  0  0  0  0  0  0  0
   11.8370   14.3300   -1.2740 C   0  0  0  0  0  0  0  0  0  0  0  0
   11.9590   13.0360   -1.6120 O   0  0  0  0  0  0  0  0  0  0  0  0
   12.8140   15.0400   -1.2400 O   0  0  0  0  0  0  0  0  0  0  0  0
  1  9  1  0  0  0  0
  1  2  2  0  0  0  0
  2  3  1  0  0  0  0
  3  4  1  0  0  0  0
  4  5  2  0  0  0  0
  5 10  1  0  0  0  0
  6  5  1  0  0  0  0
  6 12  1  0  0  0  0
  7  6  2  0  0  0  0
  8  3  2  0  0  0  0
  8  7  1  0  0  0  0
  9  8  1  0  0  0  0
 10 11  1  0  0  0  0
 13 12  1  0  0  0  0
 14 20  1  6  0  0  0
 14 15  1  0  0  0  0
 14  1  1  0  0  0  0
 15 16  1  0  0  0  0
 15 17  1  0  0  0  0
 18 15  1  0  0  0  0
 19 20  1  0  0  0  0
 21  9  1  0  0  0  0
 22 24  1  0  0  0  0
 22 21  1  0  0  0  0
 23 22  2  0  0  0  0
M  END
>  <MODEL>
1

>  <REMARK>
 VINA RESULT:      -6.2      0.000      0.000
  Name = ZINC19752419
                            x       y       z     vdW  Elec       q    Type
                         _______ _______ _______ _____ _____    ______ ____

>  <TORSDO>
F 7

>  <vina_score>
-6.2

$$$$
ZINC04226538
 OpenBabel01081722563D

 22 23  0  0  1  0  0  0  0  0999 V2000
   12.7420   12.5540    3.5310 C   0  0  0  0  0  0  0  0  0  0  0  0
   11.7570   12.4790    2.3930 C   0  0  0  0  0  0  0  0  0  0  0  0
   10.5500   11.9420    2.6850 N   0  0  0  0  0  0  0  0  0  0  0  0
   10.3260   11.6190    3.5870 H   0  0  0  0  0  0  0  0  0  0  0  0
    9.6530   11.8760    1.6390 C   0  0  0  0  0  0  0  0  0  0  0  0
    8.3860   11.3260    1.8930 C   0  0  0  0  0  0  0  0  0  0  0  0
    7.4600   11.2420    0.8670 C   0  0  2  0  0  0  0  0  0  0  0  0
    7.7780   11.7030   -0.4220 C   0  0  0  0  0  0  0  0  0  0  0  0
    8.9990   12.2380   -0.6850 C   0  0  0  0  0  0  0  0  0  0  0  0
    9.9570   12.3350    0.3350 C   0  0  0  0  0  0  0  0  0  0  0  0
   11.2370   12.8900    0.0870 C   0  0  0  0  0  0  0  0  0  0  0  0
   12.1340   12.9480    1.1410 C   0  0  0  0  0  0  0  0  0  0  0  0
    6.1260   10.6640    1.1300 C   0  0  0  0  0  0  0  0  0  0  0  0
    5.2330   10.5460    0.1270 O   0  0  0  0  0  0  0  0  0  0  0  0
    5.8330   10.2950    2.2490 O   0  0  0  0  0  0  0  0  0  0  0  0
   11.5830   13.3530   -1.1740 N   0  0  0  0  0  0  0  0  0  0  0  0
   11.4060   12.7990   -1.9680 H   0  0  0  0  0  0  0  0  0  0  0  0
   12.2110   14.6680   -1.3230 C   0  0  0  0  0  0  0  0  0  0  0  0
   11.1330   15.7210   -1.5880 C   0  0  0  0  0  0  0  0  0  0  0  0
   10.3680   16.0060   -0.2940 C   0  0  0  0  0  0  0  0  0  0  0  0
    8.9670   15.8520   -0.5240 O   0  0  0  0  0  0  0  0  0  0  0  0
    8.5790   15.3200    0.1890 H   0  0  0  0  0  0  0  0  0  0  0  0
  2  3  1  0  0  0  0
  2  1  1  0  0  0  0
  3  4  1  0  0  0  0
  5  6  2  0  0  0  0
  5  3  1  0  0  0  0
  7 13  1  1  0  0  0
  7  6  1  0  0  0  0
  8  7  1  0  0  0  0
  9  8  2  0  0  0  0
  9 10  1  0  0  0  0
 10  5  1  0  0  0  0
 11 10  2  0  0  0  0
 11 12  1  0  0  0  0
 12  2  2  0  0  0  0
 13 15  1  0  0  0  0
 14 13  2  0  0  0  0
 16 11  1  0  0  0  0
 17 16  1  0  0  0  0
 18 16  1  0  0  0  0
 19 18  1  0  0  0  0
 19 20  1  0  0  0  0
 21 20  1  0  0  0  0
 21 22  1  0  0  0  0
M  END
>  <MODEL>
1

>  <REMARK>
 VINA RESULT:      -6.2      0.000      0.000
  Name = ZINC04226538
                            x       y       z     vdW  Elec       q    Type
                         _______ _______ _______ _____ _____    ______ ____

>  <TORSDO>
F 6

>  <vina_score>
-6.2

$$$$
ZINC02267985
 OpenBabel01081723403D

 27 28  0  0  1  0  0  0  0  0999 V2000
    9.6620   11.4460    3.3900 C   0  0  0  0  0  0  0  0  0  0  0  0
   10.0660   11.5740    1.9200 C   0  0  0  0  0  0  0  0  0  0  0  0
   10.4590   10.2010    1.3720 C   0  0  0  0  0  0  0  0  0  0  0  0
   11.2500   12.5410    1.7910 C   0  0  1  0  0  0  0  0  0  0  0  0
   11.6240   12.6710    0.3120 C   0  0  0  0  0  0  0  0  0  0  0  0
   10.4650   13.2160   -0.4290 N   0  0  0  0  0  0  0  0  0  0  0  0
   10.1910   14.1020   -0.0040 H   0  0  0  0  0  0  0  0  0  0  0  0
    9.3250   12.2770   -0.3540 C   0  0  0  0  0  0  0  0  0  0  0  0
   10.8280   13.9130    2.3250 C   0  0  0  0  0  0  0  0  0  0  0  0
    9.6980   14.4150    1.5150 N   0  0  0  0  0  0  0  0  0  0  0  0
    9.9790   14.4350    0.5340 H   0  0  0  0  0  0  0  0  0  0  0  0
    8.5290   13.5200    1.6590 C   0  0  0  0  0  0  0  0  0  0  0  0
    8.8930   12.1380    1.1090 C   0  0  2  0  0  0  0  0  0  0  0  0
   12.4010   12.0470    2.5510 N   0  0  0  0  0  0  0  0  0  0  0  0
   12.6680   12.5300    3.6370 O   0  0  0  0  0  0  0  0  0  0  0  0
   13.0920   11.1530    2.0970 O   0  0  0  0  0  0  0  0  0  0  0  0
    7.7310   11.2490    1.1990 N   0  0  0  0  0  0  0  0  0  0  0  0
    6.7390   11.6040    1.8080 O   0  0  0  0  0  0  0  0  0  0  0  0
    7.7590   10.1540    0.6650 O   0  0  0  0  0  0  0  0  0  0  0  0
   10.8340   13.4500   -1.8390 C   0  0  0  0  0  0  0  0  0  0  0  0
   11.8310   14.6090   -1.8970 C   0  0  0  0  0  0  0  0  0  0  0  0
   11.1660   15.7880   -2.3560 O   0  0  0  0  0  0  0  0  0  0  0  0
   11.2360   16.4810   -1.6830 H   0  0  0  0  0  0  0  0  0  0  0  0
    9.3410   15.7830    1.9410 C   0  0  0  0  0  0  0  0  0  0  0  0
    9.6880   16.7620    0.8180 C   0  0  0  0  0  0  0  0  0  0  0  0
    9.1530   16.2810   -0.4160 O   0  0  0  0  0  0  0  0  0  0  0  0
    8.6100   15.4950   -0.2490 H   0  0  0  0  0  0  0  0  0  0  0  0
  2  1  1  0  0  0  0
  3  2  1  0  0  0  0
  4  2  1  0  0  0  0
  4  9  1  0  0  0  0
  4 14  1  1  0  0  0
  5  4  1  0  0  0  0
  6  8  1  0  0  0  0
  6  7  1  0  0  0  0
  6  5  1  0  0  0  0
  8 13  1  0  0  0  0
 10 12  1  0  0  0  0
 10 24  1  0  0  0  0
 10  9  1  0  0  0  0
 11 10  1  0  0  0  0
 13 17  1  1  0  0  0
 13 12  1  0  0  0  0
 13  2  1  0  0  0  0
 14 15  2  0  0  0  0
 16 14  2  0  0  0  0
 17 18  2  0  0  0  0
 19 17  2  0  0  0  0
 20  6  1  0  0  0  0
 21 20  1  0  0  0  0
 22 21  1  0  0  0  0
 22 23  1  0  0  0  0
 25 24  1  0  0  0  0
 26 27  1  0  0  0  0
 26 25  1  0  0  0  0
M  END
>  <MODEL>
1

>  <REMARK>
 VINA RESULT:      -6.2      0.000      0.000
  Name = ZINC02267985
                            x       y       z     vdW  Elec       q    Type
                         _______ _______ _______ _____ _____    ______ ____

>  <TORSDO>
F 8

>  <vina_score>
-6.2

$$$$
ZINC29840100
 OpenBabel01081722333D

 23 23  0  0  1  0  0  0  0  0999 V2000
    9.3980   13.0560    0.1180 N   0  0  0  0  0  0  0  0  0  0  0  0
    9.1120   12.3550   -0.5120 H   0  0  0  0  0  0  0  0  0  0  0  0
    9.3430   14.3520   -0.2460 C   0  0  0  0  0  0  0  0  0  0  0  0
    9.6950   15.2150    0.5300 O   0  0  0  0  0  0  0  0  0  0  0  0
   11.1820   12.1070    3.1590 C   0  0  1  0  0  0  0  0  0  0  0  0
   11.6710   10.6750    3.3860 C   0  0  0  0  0  0  0  0  0  0  0  0
   11.1510   12.4280    1.6780 C   0  0  0  0  0  0  0  0  0  0  0  0
    9.8640   12.7040    1.3920 N   0  0  0  0  0  0  0  0  0  0  0  0
    9.0840   12.5980    2.4740 C   0  0  0  0  0  0  0  0  0  0  0  0
    7.8840   12.7950    2.4650 O   0  0  0  0  0  0  0  0  0  0  0  0
   12.0890   12.4350    0.9100 O   0  0  0  0  0  0  0  0  0  0  0  0
    9.7760   12.2470    3.5730 N   0  0  0  0  0  0  0  0  0  0  0  0
   13.5280   12.6610    3.8180 C   0  0  0  0  0  0  0  0  0  0  0  0
   12.0660   13.1010    3.9140 C   0  0  0  0  0  0  0  0  0  0  0  0
    8.8420   14.7290   -1.6160 C   0  0  0  0  0  0  0  0  0  0  0  0
    9.9680   14.7570   -2.5590 N   0  0  0  0  0  0  0  0  0  0  0  0
    9.7290   15.3980   -3.3160 H   0  0  0  0  0  0  0  0  0  0  0  0
   11.1850   15.2630   -1.9090 C   0  0  0  0  0  0  0  0  0  0  0  0
   12.2920   14.2130   -2.0110 C   0  0  0  0  0  0  0  0  0  0  0  0
   10.1980   13.4310   -3.1460 C   0  0  0  0  0  0  0  0  0  0  0  0
    9.3370   13.2720   -4.4010 C   0  0  0  0  0  0  0  0  0  0  0  0
    8.8830   11.9210   -4.4990 O   0  0  0  0  0  0  0  0  0  0  0  0
    8.6750   11.7160   -5.4240 H   0  0  0  0  0  0  0  0  0  0  0  0
  1  8  1  0  0  0  0
  2  1  1  0  0  0  0
  3  1  1  0  0  0  0
  3  4  2  0  0  0  0
  5  6  1  1  0  0  0
  5 12  1  0  0  0  0
  5 14  1  0  0  0  0
  7  5  1  0  0  0  0
  8  7  1  0  0  0  0
  8  9  1  0  0  0  0
  9 12  1  0  0  0  0
 10  9  2  0  0  0  0
 11  7  2  0  0  0  0
 13 14  1  0  0  0  0
 15  3  1  0  0  0  0
 16 18  1  0  0  0  0
 16 15  1  0  0  0  0
 17 16  1  0  0  0  0
 19 18  1  0  0  0  0
 20 16  1  0  0  0  0
 21 20  1  0  0  0  0
 22 21  1  0  0  0  0
 23 22  1  0  0  0  0
M  END
>  <MODEL>
1

>  <REMARK>
 VINA RESULT:      -6.2      0.000      0.000
  Name = ZINC29840100
                            x       y       z     vdW  Elec       q    Type
                         _______ _______ _______ _____ _____    ______ ____

>  <TORSDO>
F 8

>  <vina_score>
-6.2

$$$$
ZINC06509720
 OpenBabel01081722353D

 26 27  0  0  0  0  0  0  0  0999 V2000
    8.6810   13.2320   -0.3410 C   0  0  0  0  0  0  0  0  0  0  0  0
    9.2060   13.5020    0.9350 C   0  0  0  0  0  0  0  0  0  0  0  0
    8.8760   12.6790    1.9740 N   0  0  0  0  0  0  0  0  0  0  0  0
    8.0630   11.6260    1.7960 C   0  0  0  0  0  0  0  0  0  0  0  0
    7.5310   11.3190    0.6020 N   0  0  0  0  0  0  0  0  0  0  0  0
    6.6510   10.1530    0.4800 C   0  0  0  0  0  0  0  0  0  0  0  0
    7.7980   10.9240    2.7530 O   0  0  0  0  0  0  0  0  0  0  0  0
    7.7960   12.0700   -0.4870 C   0  0  0  0  0  0  0  0  0  0  0  0
    7.3110   11.7900   -1.5680 O   0  0  0  0  0  0  0  0  0  0  0  0
   10.0280   14.5690    1.1330 N   0  0  0  0  0  0  0  0  0  0  0  0
   10.8380   14.6750    0.5860 H   0  0  0  0  0  0  0  0  0  0  0  0
    9.8100   15.2340    1.8260 H   0  0  0  0  0  0  0  0  0  0  0  0
    8.9930   14.0540   -1.4450 C   0  0  0  0  0  0  0  0  0  0  0  0
    8.3060   15.0250   -1.6930 O   0  0  0  0  0  0  0  0  0  0  0  0
   10.1790   13.7270   -2.3160 C   0  0  0  0  0  0  0  0  0  0  0  0
   11.8480   15.3780   -1.7240 C   0  0  0  0  0  0  0  0  0  0  0  0
   10.8390   14.9820   -2.7240 N   0  0  0  0  0  0  0  0  0  0  0  0
   10.1360   15.7180   -2.7960 H   0  0  0  0  0  0  0  0  0  0  0  0
   11.2950   14.8450   -3.6270 H   0  0  0  0  0  0  0  0  0  0  0  0
    9.4190   12.9510    3.3060 C   0  0  0  0  0  0  0  0  0  0  0  0
   10.8030   12.3630    3.4130 C   0  0  0  0  0  0  0  0  0  0  0  0
   10.9730   10.9910    3.4130 C   0  0  0  0  0  0  0  0  0  0  0  0
   12.2430   10.4520    3.5050 C   0  0  0  0  0  0  0  0  0  0  0  0
   13.3410   11.2850    3.6100 C   0  0  0  0  0  0  0  0  0  0  0  0
   13.1700   12.6560    3.6170 C   0  0  0  0  0  0  0  0  0  0  0  0
   11.9010   13.1960    3.5180 C   0  0  0  0  0  0  0  0  0  0  0  0
  1  2  2  0  0  0  0
  2 10  1  0  0  0  0
  2  3  1  0  0  0  0
  3 20  1  0  0  0  0
  4  3  1  0  0  0  0
  4  7  2  0  0  0  0
  5  4  1  0  0  0  0
  6  5  1  0  0  0  0
  8  1  1  0  0  0  0
  8  5  1  0  0  0  0
  9  8  2  0  0  0  0
 10 12  1  0  0  0  0
 11 10  1  0  0  0  0
 13  1  1  0  0  0  0
 14 13  2  0  0  0  0
 15 13  1  0  0  0  0
 17 15  1  0  0  0  0
 17 16  1  0  0  0  0
 18 17  1  0  0  0  0
 19 17  1  0  0  0  0
 20 21  1  0  0  0  0
 21 22  2  0  0  0  0
 21 26  1  0  0  0  0
 22 23  1  0  0  0  0
 23 24  2  0  0  0  0
 24 25  1  0  0  0  0
 26 25  2  0  0  0  0
M  END
>  <MODEL>
1

>  <REMARK>
 VINA RESULT:      -6.2      0.000      0.000
  Name = ZINC06509720
                            x       y       z     vdW  Elec       q    Type
                         _______ _______ _______ _____ _____    ______ ____

>  <TORSDO>
F 6

>  <vina_score>
-6.2

$$$$
ZINC06493486
 OpenBabel01081722343D

 23 24  0  0  0  0  0  0  0  0999 V2000
   11.4060   12.2240    1.1680 C   0  0  0  0  0  0  0  0  0  0  0  0
   10.5990   11.7100    0.2190 N   0  0  0  0  0  0  0  0  0  0  0  0
   10.3070   10.7720    0.2760 H   0  0  0  0  0  0  0  0  0  0  0  0
   11.8330   13.3560    1.0540 O   0  0  0  0  0  0  0  0  0  0  0  0
   10.1760   12.5110   -0.8490 C   0  0  0  0  0  0  0  0  0  0  0  0
   11.0710   12.8620   -1.8510 C   0  0  0  0  0  0  0  0  0  0  0  0
   10.6530   13.6470   -2.9070 C   0  0  0  0  0  0  0  0  0  0  0  0
    9.3400   14.0970   -2.9600 C   0  0  0  0  0  0  0  0  0  0  0  0
    8.4460   13.7510   -1.9560 C   0  0  0  0  0  0  0  0  0  0  0  0
    8.8630   12.9610   -0.9020 C   0  0  0  0  0  0  0  0  0  0  0  0
    8.9180   14.8970   -4.0270 N   0  0  0  0  0  0  0  0  0  0  0  0
    8.1660   15.5210   -3.9060 H   0  0  0  0  0  0  0  0  0  0  0  0
    9.3720   14.8350   -4.8980 H   0  0  0  0  0  0  0  0  0  0  0  0
   10.9710   11.1650    3.4580 C   0  0  0  0  0  0  0  0  0  0  0  0
   11.7700   11.4110    2.3480 C   0  0  0  0  0  0  0  0  0  0  0  0
   12.9340   10.7710    2.5470 N   0  0  0  0  0  0  0  0  0  0  0  0
   12.9020   10.1540    3.6970 C   0  0  0  0  0  0  0  0  0  0  0  0
   11.7120   10.3630    4.2900 N   0  0  0  0  0  0  0  0  0  0  0  0
    9.6050   11.6590    3.6910 C   0  0  0  0  0  0  0  0  0  0  0  0
    8.6760   10.8770    3.7400 O   0  0  0  0  0  0  0  0  0  0  0  0
    9.3830   12.9800    3.8500 O   0  0  0  0  0  0  0  0  0  0  0  0
    9.2060   14.9990    2.5030 C   0  0  0  0  0  0  0  0  0  0  0  0
    8.5850   13.6420    2.8350 C   0  0  0  0  0  0  0  0  0  0  0  0
  1 15  1  0  0  0  0
  2  3  1  0  0  0  0
  2  1  1  0  0  0  0
  4  1  2  0  0  0  0
  5  2  1  0  0  0  0
  6  5  2  0  0  0  0
  7  6  1  0  0  0  0
  8  7  2  0  0  0  0
  8  9  1  0  0  0  0
  9 10  2  0  0  0  0
 10  5  1  0  0  0  0
 11 12  1  0  0  0  0
 11  8  1  0  0  0  0
 13 11  1  0  0  0  0
 14 19  1  0  0  0  0
 14 18  1  0  0  0  0
 15 16  1  0  0  0  0
 15 14  2  0  0  0  0
 16 17  1  0  0  0  0
 17 18  2  0  0  0  0
 19 20  2  0  0  0  0
 19 21  1  0  0  0  0
 22 23  1  0  0  0  0
 23 21  1  0  0  0  0
M  END
>  <MODEL>
1

>  <REMARK>
 VINA RESULT:      -6.2      0.000      0.000
  Name = ZINC06493486
                            x       y       z     vdW  Elec       q    Type
                         _______ _______ _______ _____ _____    ______ ____

>  <TORSDO>
F 6

>  <vina_score>
-6.2

$$$$
ZINC01187537
 OpenBabel01081722363D

 17 17  0  0  0  0  0  0  0  0999 V2000
   11.6650   15.6200   -1.1550 C   0  0  0  0  0  0  0  0  0  0  0  0
   11.2130   15.0260   -0.0350 N   0  0  0  0  0  0  0  0  0  0  0  0
   10.2570   14.1150   -0.4090 C   0  0  0  0  0  0  0  0  0  0  0  0
   10.1590   14.2040   -1.7910 C   0  0  0  0  0  0  0  0  0  0  0  0
   11.0390   15.1360   -2.1930 N   0  0  0  0  0  0  0  0  0  0  0  0
    9.4860   13.2270    0.4780 C   0  0  0  0  0  0  0  0  0  0  0  0
    8.1980   13.5090    0.7590 N   0  0  0  0  0  0  0  0  0  0  0  0
    7.7730   14.3070    0.3710 H   0  0  0  0  0  0  0  0  0  0  0  0
   10.0110   12.2410    0.9570 O   0  0  0  0  0  0  0  0  0  0  0  0
    7.4560   12.6550    1.6120 O   0  0  0  0  0  0  0  0  0  0  0  0
    6.6000   13.0650    1.8140 H   0  0  0  0  0  0  0  0  0  0  0  0
    9.2540   13.4200   -2.6580 C   0  0  0  0  0  0  0  0  0  0  0  0
    9.7360   12.8170   -3.7630 N   0  0  0  0  0  0  0  0  0  0  0  0
   10.6890   12.8980   -3.9920 H   0  0  0  0  0  0  0  0  0  0  0  0
    8.0760   13.3200   -2.3750 O   0  0  0  0  0  0  0  0  0  0  0  0
    8.8690   12.0660   -4.5940 O   0  0  0  0  0  0  0  0  0  0  0  0
    7.9970   12.4910   -4.6200 H   0  0  0  0  0  0  0  0  0  0  0  0
  1  2  1  0  0  0  0
  3  2  1  0  0  0  0
  3  6  1  0  0  0  0
  4  3  2  0  0  0  0
  5  4  1  0  0  0  0
  5  1  2  0  0  0  0
  6  7  1  0  0  0  0
  6  9  2  0  0  0  0
  7 10  1  0  0  0  0
  8  7  1  0  0  0  0
 10 11  1  0  0  0  0
 12 15  2  0  0  0  0
 12  4  1  0  0  0  0
 13 12  1  0  0  0  0
 14 13  1  0  0  0  0
 16 13  1  0  0  0  0
 17 16  1  0  0  0  0
M  END
>  <MODEL>
1

>  <REMARK>
 VINA RESULT:      -6.2      0.000      0.000
  Name = ZINC01187537
                            x       y       z     vdW  Elec       q    Type
                         _______ _______ _______ _____ _____    ______ ____

>  <TORSDO>
F 4

>  <vina_score>
-6.2

$$$$
ZINC31126591
 OpenBabel01081722393D

 35 36  0  0  0  0  0  0  0  0999 V2000
    9.6870   15.6510    0.7190 N   0  0  0  0  0  0  0  0  0  0  0  0
    9.2790   14.5030    0.0620 C   0  0  0  0  0  0  0  0  0  0  0  0
    8.5840   13.5240    0.7930 C   0  0  0  0  0  0  0  0  0  0  0  0
    8.3240   13.7650    2.2220 C   0  0  0  0  0  0  0  0  0  0  0  0
    8.7670   14.9210    2.7650 N   0  0  0  0  0  0  0  0  0  0  0  0
    8.6030   15.1020    3.7190 H   0  0  0  0  0  0  0  0  0  0  0  0
    7.7260   12.9480    2.8950 O   0  0  0  0  0  0  0  0  0  0  0  0
    8.1600   12.3510    0.1480 C   0  0  0  0  0  0  0  0  0  0  0  0
    8.4550   12.2160   -1.2100 C   0  0  0  0  0  0  0  0  0  0  0  0
    9.1440   13.2290   -1.8570 C   0  0  0  0  0  0  0  0  0  0  0  0
    9.5290   14.3180   -1.2240 N   0  0  0  0  0  0  0  0  0  0  0  0
    9.4260   15.8260    2.0250 C   0  0  0  0  0  0  0  0  0  0  0  0
    9.8050   16.8490    2.5600 O   0  0  0  0  0  0  0  0  0  0  0  0
    9.4630   13.0800   -3.3230 C   0  0  0  0  0  0  0  0  0  0  0  0
   10.9790   13.1060   -3.5200 C   0  0  0  0  0  0  0  0  0  0  0  0
    8.8280   14.2330   -4.1030 C   0  0  0  0  0  0  0  0  0  0  0  0
   11.4140   16.0290   -0.9710 C   0  0  0  0  0  0  0  0  0  0  0  0
   10.4120   16.6870   -0.0190 C   0  0  0  0  0  0  0  0  0  0  0  0
    7.4250   11.2950    0.8820 C   0  0  0  0  0  0  0  0  0  0  0  0
    6.2120   11.3070    0.9110 O   0  0  0  0  0  0  0  0  0  0  0  0
    8.1040   10.3210    1.5190 O   0  0  0  0  0  0  0  0  0  0  0  0
    7.8470   10.1580    2.9390 C   0  0  0  0  0  0  0  0  0  0  0  0
    9.1280   10.3520    3.7070 C   0  0  0  0  0  0  0  0  0  0  0  0
   10.2510   10.7250    3.0630 N   0  0  0  0  0  0  0  0  0  0  0  0
   10.2340   10.8720    2.0900 H   0  0  0  0  0  0  0  0  0  0  0  0
   11.3970   10.8990    3.7520 C   0  0  0  0  0  0  0  0  0  0  0  0
   12.5200   11.2730    3.1060 N   0  0  0  0  0  0  0  0  0  0  0  0
   12.5030   11.4190    2.1330 H   0  0  0  0  0  0  0  0  0  0  0  0
   11.4170   10.7180    4.9540 O   0  0  0  0  0  0  0  0  0  0  0  0
    9.1480   10.1720    4.9070 O   0  0  0  0  0  0  0  0  0  0  0  0
   13.7650   11.4610    3.8540 C   0  0  0  0  0  0  0  0  0  0  0  0
   13.9800   12.9520    4.1200 C   0  0  0  0  0  0  0  0  0  0  0  0
   15.2470   13.1480    4.6810 F   0  0  0  0  0  0  0  0  0  0  0  0
   13.0020   13.4140    5.0070 F   0  0  0  0  0  0  0  0  0  0  0  0
   13.8900   13.6590    2.9160 F   0  0  0  0  0  0  0  0  0  0  0  0
  1 12  1  0  0  0  0
  2  1  1  0  0  0  0
  2  3  2  0  0  0  0
  3  4  1  0  0  0  0
  4  5  1  0  0  0  0
  4  7  2  0  0  0  0
  5  6  1  0  0  0  0
  8  3  1  0  0  0  0
  8 19  1  0  0  0  0
  9  8  2  0  0  0  0
 10 11  2  0  0  0  0
 10  9  1  0  0  0  0
 11  2  1  0  0  0  0
 12 13  2  0  0  0  0
 12  5  1  0  0  0  0
 14 10  1  0  0  0  0
 15 14  1  0  0  0  0
 16 14  1  0  0  0  0
 17 18  1  0  0  0  0
 18  1  1  0  0  0  0
 19 20  2  0  0  0  0
 19 21  1  0  0  0  0
 21 22  1  0  0  0  0
 22 23  1  0  0  0  0
 23 30  2  0  0  0  0
 24 23  1  0  0  0  0
 24 26  1  0  0  0  0
 25 24  1  0  0  0  0
 26 29  2  0  0  0  0
 27 26  1  0  0  0  0
 27 31  1  0  0  0  0
 28 27  1  0  0  0  0
 31 32  1  0  0  0  0
 32 33  1  0  0  0  0
 32 34  1  0  0  0  0
 35 32  1  0  0  0  0
M  END
>  <MODEL>
1

>  <REMARK>
 VINA RESULT:      -6.2      0.000      0.000
  Name = ZINC31126591
                            x       y       z     vdW  Elec       q    Type
                         _______ _______ _______ _____ _____    ______ ____

>  <TORSDO>
F 8

>  <vina_score>
-6.2

$$$$
ZINC19751955
 OpenBabel01081722393D

 22 23  0  0  0  0  0  0  0  0999 V2000
    9.7130   12.3880    3.4980 C   0  0  0  0  0  0  0  0  0  0  0  0
    8.6960   12.1550    2.5970 C   0  0  0  0  0  0  0  0  0  0  0  0
    8.7660   12.7050    1.3130 C   0  0  0  0  0  0  0  0  0  0  0  0
    9.8730   13.4910    0.9540 C   0  0  0  0  0  0  0  0  0  0  0  0
    9.6540   13.8830   -0.3540 N   0  0  0  0  0  0  0  0  0  0  0  0
    8.4650   13.3460   -0.7430 C   0  0  0  0  0  0  0  0  0  0  0  0
   10.8910   13.7190    1.8700 C   0  0  0  0  0  0  0  0  0  0  0  0
    7.9460   12.6570    0.2310 N   0  0  0  0  0  0  0  0  0  0  0  0
   10.8090   13.1750    3.1370 C   0  0  0  0  0  0  0  0  0  0  0  0
    9.8000   10.4370    4.8550 C   0  0  0  0  0  0  0  0  0  0  0  0
    9.6460   11.8540    4.7470 O   0  0  0  0  0  0  0  0  0  0  0  0
   11.8040   13.4030    4.0360 O   0  0  0  0  0  0  0  0  0  0  0  0
   13.1060   12.9180    3.7020 C   0  0  0  0  0  0  0  0  0  0  0  0
   10.5380   14.7200   -1.1690 C   0  0  0  0  0  0  0  0  0  0  0  0
   11.5810   13.8560   -1.8290 C   0  0  0  0  0  0  0  0  0  0  0  0
   11.3410   13.3150   -3.0330 O   0  0  0  0  0  0  0  0  0  0  0  0
   12.6340   13.6510   -1.2730 O   0  0  0  0  0  0  0  0  0  0  0  0
    7.8420   13.5240   -2.1030 C   0  0  0  0  0  0  0  0  0  0  0  0
    8.4200   12.5500   -3.0390 N   0  0  0  0  0  0  0  0  0  0  0  0
    8.0380   12.7080   -3.9720 H   0  0  0  0  0  0  0  0  0  0  0  0
    9.4330   12.6620   -3.0620 H   0  0  0  0  0  0  0  0  0  0  0  0
    8.1880   11.6060   -2.7320 H   0  0  0  0  0  0  0  0  0  0  0  0
  1 11  1  0  0  0  0
  2  1  2  0  0  0  0
  3  2  1  0  0  0  0
  4  3  2  0  0  0  0
  4  7  1  0  0  0  0
  5  4  1  0  0  0  0
  6  5  1  0  0  0  0
  6  8  2  0  0  0  0
  7  9  2  0  0  0  0
  8  3  1  0  0  0  0
  9  1  1  0  0  0  0
  9 12  1  0  0  0  0
 11 10  1  0  0  0  0
 13 12  1  0  0  0  0
 14  5  1  0  0  0  0
 15 17  1  0  0  0  0
 15 14  1  0  0  0  0
 16 15  2  0  0  0  0
 18  6  1  0  0  0  0
 19 22  1  0  0  0  0
 19 18  1  0  0  0  0
 20 19  1  0  0  0  0
 21 19  1  0  0  0  0
M  END
>  <MODEL>
1

>  <REMARK>
 VINA RESULT:      -6.2      0.000      0.000
  Name = ZINC19751955
                            x       y       z     vdW  Elec       q    Type
                         _______ _______ _______ _____ _____    ______ ____

>  <TORSDO>
F 6

>  <vina_score>
-6.2

$$$$
ZINC05758200
 OpenBabel01081722393D

 19 19  0  0  0  0  0  0  0  0999 V2000
    9.6240   14.0960    0.4750 C   0  0  0  0  0  0  0  0  0  0  0  0
    8.7450   13.0330    0.4310 C   0  0  0  0  0  0  0  0  0  0  0  0
    8.2430   12.6320   -0.8090 C   0  0  0  0  0  0  0  0  0  0  0  0
    8.6210   13.2920   -1.9000 N   0  0  0  0  0  0  0  0  0  0  0  0
    9.4670   14.3070   -1.8150 C   0  0  0  0  0  0  0  0  0  0  0  0
    9.9620   14.7050   -0.6530 N   0  0  0  0  0  0  0  0  0  0  0  0
    8.3460   12.3280    1.6710 N   0  0  0  0  0  0  0  0  0  0  0  0
    9.1880   12.0290    2.4990 O   0  0  0  0  0  0  0  0  0  0  0  0
    7.1760   12.0460    1.8620 O   0  0  0  0  0  0  0  0  0  0  0  0
    7.3630   11.5670   -0.9020 N   0  0  0  0  0  0  0  0  0  0  0  0
    7.4560   10.7980   -0.2950 H   0  0  0  0  0  0  0  0  0  0  0  0
    6.3650   11.5840   -1.8340 N   0  0  0  0  0  0  0  0  0  0  0  0
    6.0050   12.5330   -1.9300 H   0  0  0  0  0  0  0  0  0  0  0  0
    6.7320   11.2680   -2.7310 H   0  0  0  0  0  0  0  0  0  0  0  0
    9.8440   14.9690   -2.9710 N   0  0  0  0  0  0  0  0  0  0  0  0
   10.7080   15.4390   -3.0100 H   0  0  0  0  0  0  0  0  0  0  0  0
    9.0160   14.9690   -4.0580 N   0  0  0  0  0  0  0  0  0  0  0  0
    8.1630   14.4570   -3.8370 H   0  0  0  0  0  0  0  0  0  0  0  0
    8.7810   15.9310   -4.3060 H   0  0  0  0  0  0  0  0  0  0  0  0
  2  1  1  0  0  0  0
  2  7  1  0  0  0  0
  3  2  2  0  0  0  0
  4  5  2  0  0  0  0
  4  3  1  0  0  0  0
  5  6  1  0  0  0  0
  6  1  2  0  0  0  0
  7  9  2  0  0  0  0
  7  8  2  0  0  0  0
 10  3  1  0  0  0  0
 10 11  1  0  0  0  0
 12 10  1  0  0  0  0
 13 12  1  0  0  0  0
 14 12  1  0  0  0  0
 15  5  1  0  0  0  0
 16 15  1  0  0  0  0
 17 18  1  0  0  0  0
 17 15  1  0  0  0  0
 19 17  1  0  0  0  0
M  END
>  <MODEL>
1

>  <REMARK>
 VINA RESULT:      -6.2      0.000      0.000
  Name = ZINC05758200
                            x       y       z     vdW  Elec       q    Type
                         _______ _______ _______ _____ _____    ______ ____

>  <TORSDO>
F 5

>  <vina_score>
-6.2

$$$$
ZINC05132239
 OpenBabel01081722413D

 23 22  0  0  0  0  0  0  0  0999 V2000
   11.4980   15.2590   -2.0740 C   0  0  0  0  0  0  0  0  0  0  0  0
   10.6000   15.0940   -0.8760 C   0  0  0  0  0  0  0  0  0  0  0  0
   11.1100   14.6470    0.2980 C   0  0  0  0  0  0  0  0  0  0  0  0
    9.2720   15.3960   -0.9730 N   0  0  0  0  0  0  0  0  0  0  0  0
    8.8570   16.0040   -0.3180 H   0  0  0  0  0  0  0  0  0  0  0  0
    8.5000   14.8420   -2.0010 N   0  0  0  0  0  0  0  0  0  0  0  0
    8.1860   15.4090   -2.7430 H   0  0  0  0  0  0  0  0  0  0  0  0
    8.1790   13.5050   -1.9760 C   0  0  0  0  0  0  0  0  0  0  0  0
    8.5570   12.6530   -2.9370 N   0  0  0  0  0  0  0  0  0  0  0  0
    8.3170   11.7010   -2.8730 H   0  0  0  0  0  0  0  0  0  0  0  0
    9.3500   13.1510   -4.1140 C   0  0  0  0  0  0  0  0  0  0  0  0
    7.4420   12.9940   -0.9340 N   0  0  0  0  0  0  0  0  0  0  0  0
    6.8010   12.2640   -1.0960 H   0  0  0  0  0  0  0  0  0  0  0  0
    7.5560   13.3580   -0.0260 H   0  0  0  0  0  0  0  0  0  0  0  0
   10.2970   14.4010    1.3300 N   0  0  0  0  0  0  0  0  0  0  0  0
    9.5580   13.3440    1.3300 N   0  0  0  0  0  0  0  0  0  0  0  0
    8.6550   13.1460    2.3290 C   0  0  0  0  0  0  0  0  0  0  0  0
    8.2190   11.9420    2.5860 N   0  0  0  0  0  0  0  0  0  0  0  0
    7.5040   11.8080    3.2500 H   0  0  0  0  0  0  0  0  0  0  0  0
    8.7940   10.7900    1.8870 C   0  0  0  0  0  0  0  0  0  0  0  0
    8.2000   14.2170    3.0710 N   0  0  0  0  0  0  0  0  0  0  0  0
    8.0400   14.1150    4.0360 H   0  0  0  0  0  0  0  0  0  0  0  0
    8.0350   15.0850    2.6340 H   0  0  0  0  0  0  0  0  0  0  0  0
  1  2  1  0  0  0  0
  2  3  2  0  0  0  0
  3 15  1  0  0  0  0
  4  2  1  0  0  0  0
  4  5  1  0  0  0  0
  6  8  1  0  0  0  0
  6  4  1  0  0  0  0
  7  6  1  0  0  0  0
  8 12  2  0  0  0  0
  9 10  1  0  0  0  0
  9  8  1  0  0  0  0
 11  9  1  0  0  0  0
 12 14  1  0  0  0  0
 13 12  1  0  0  0  0
 15 16  1  0  0  0  0
 16 17  2  0  0  0  0
 17 18  1  0  0  0  0
 17 21  1  0  0  0  0
 18 19  1  0  0  0  0
 20 18  1  0  0  0  0
 21 22  1  0  0  0  0
 23 21  1  0  0  0  0
M  END
>  <MODEL>
1

>  <REMARK>
 VINA RESULT:      -6.1      0.000      0.000
  Name = ZINC05132239
                            x       y       z     vdW  Elec       q    Type
                         _______ _______ _______ _____ _____    ______ ____

>  <TORSDO>
F 7

>  <vina_score>
-6.1

$$$$
ZINC05594650
 OpenBabel01081722463D

 22 23  0  0  1  0  0  0  0  0999 V2000
    8.1330   12.7890    1.3740 C   0  0  0  0  0  0  0  0  0  0  0  0
    8.1540   12.7210    2.6940 N   0  0  0  0  0  0  0  0  0  0  0  0
    9.2910   12.8470    3.3710 C   0  0  0  0  0  0  0  0  0  0  0  0
   10.4790   13.0570    2.6510 C   0  0  0  0  0  0  0  0  0  0  0  0
   10.4030   13.1220    1.2490 C   0  0  0  0  0  0  0  0  0  0  0  0
   11.6860   13.3300    0.8110 N   0  0  0  0  0  0  0  0  0  0  0  0
   12.4900   13.3860    1.9090 C   0  0  0  0  0  0  0  0  0  0  0  0
   11.7810   13.2260    2.9880 N   0  0  0  0  0  0  0  0  0  0  0  0
    9.2210   12.9840    0.6590 N   0  0  0  0  0  0  0  0  0  0  0  0
    9.3030   12.7730    4.7530 N   0  0  0  0  0  0  0  0  0  0  0  0
    9.9660   12.2070    5.2090 H   0  0  0  0  0  0  0  0  0  0  0  0
    8.6490   13.2880    5.2790 H   0  0  0  0  0  0  0  0  0  0  0  0
   12.1140   13.4680   -0.5840 C   0  0  0  0  0  0  0  0  0  0  0  0
   11.7340   14.8580   -1.0990 C   0  0  0  0  0  0  0  0  0  0  0  0
   10.9730   14.7280   -2.3010 O   0  0  0  0  0  0  0  0  0  0  0  0
   10.8010   13.3780   -2.7370 C   0  0  0  0  0  0  0  0  0  0  0  0
    9.3210   13.1180   -3.0250 C   0  0  2  0  0  0  0  0  0  0  0  0
    9.1910   12.4480   -4.2800 O   0  0  0  0  0  0  0  0  0  0  0  0
    8.3420   11.9820   -4.3120 H   0  0  0  0  0  0  0  0  0  0  0  0
    8.5720   14.4510   -3.0780 C   0  0  0  0  0  0  0  0  0  0  0  0
    8.2270   14.8580   -1.7520 O   0  0  0  0  0  0  0  0  0  0  0  0
    7.8150   14.1140   -1.2840 H   0  0  0  0  0  0  0  0  0  0  0  0
  1  2  2  0  0  0  0
  2  3  1  0  0  0  0
  3 10  1  0  0  0  0
  4  8  1  0  0  0  0
  4  3  2  0  0  0  0
  5  4  1  0  0  0  0
  6  5  1  0  0  0  0
  6  7  1  0  0  0  0
  7  8  2  0  0  0  0
  9  5  2  0  0  0  0
  9  1  1  0  0  0  0
 10 11  1  0  0  0  0
 10 12  1  0  0  0  0
 13  6  1  0  0  0  0
 14 13  1  0  0  0  0
 15 14  1  0  0  0  0
 16 15  1  0  0  0  0
 17 18  1  6  0  0  0
 17 16  1  0  0  0  0
 19 18  1  0  0  0  0
 20 17  1  0  0  0  0
 20 21  1  0  0  0  0
 21 22  1  0  0  0  0
M  END
>  <MODEL>
1

>  <REMARK>
 VINA RESULT:      -6.1      0.000      0.000
  Name = ZINC05594650
                            x       y       z     vdW  Elec       q    Type
                         _______ _______ _______ _____ _____    ______ ____

>  <TORSDO>
F 9

>  <vina_score>
-6.1

$$$$
ZINC05838514
 OpenBabel01081722463D

 29 31  0  0  1  0  0  0  0  0999 V2000
   10.3840   13.0980    3.0110 C   0  0  2  0  0  0  0  0  0  0  0  0
    9.9570   12.2940    4.2590 C   0  0  2  0  0  0  0  0  0  0  0  0
    9.8080   10.8460    3.7390 C   0  0  2  0  0  0  0  0  0  0  0  0
    9.5590   10.9860    2.3230 O   0  0  0  0  0  0  0  0  0  0  0  0
   10.4420   12.0420    1.8850 C   0  0  1  0  0  0  0  0  0  0  0  0
    9.9650   12.6140    0.6240 N   0  0  0  0  0  0  0  0  0  0  0  0
    8.7380   12.4220    0.0640 C   0  0  0  0  0  0  0  0  0  0  0  0
    8.6520   13.0790   -1.0560 N   0  0  0  0  0  0  0  0  0  0  0  0
    9.8170   13.7320   -1.2860 C   0  0  0  0  0  0  0  0  0  0  0  0
   10.2910   14.5770   -2.3030 C   0  0  0  0  0  0  0  0  0  0  0  0
   11.5280   15.0540   -2.2050 N   0  0  0  0  0  0  0  0  0  0  0  0
   12.2970   14.7520   -1.1750 C   0  0  0  0  0  0  0  0  0  0  0  0
   11.8930   13.9690   -0.1970 N   0  0  0  0  0  0  0  0  0  0  0  0
   10.6730   13.4420   -0.2110 C   0  0  0  0  0  0  0  0  0  0  0  0
    9.4910   14.9040   -3.3840 N   0  0  0  0  0  0  0  0  0  0  0  0
    8.6760   14.3840   -3.5690 H   0  0  0  0  0  0  0  0  0  0  0  0
    9.7360   15.6590   -3.9680 H   0  0  0  0  0  0  0  0  0  0  0  0
   11.7160   13.6990    3.2140 N   0  0  0  0  0  0  0  0  0  0  0  0
   11.7830   14.0430    4.1700 H   0  0  0  0  0  0  0  0  0  0  0  0
   11.8400   14.4690    2.5560 H   0  0  0  0  0  0  0  0  0  0  0  0
   12.7720   12.6930    2.9900 C   0  0  0  0  0  0  0  0  0  0  0  0
   13.7610   12.7370    4.1550 C   0  0  0  0  0  0  0  0  0  0  0  0
   13.4470   10.2890    3.7660 C   0  0  0  0  0  0  0  0  0  0  0  0
   14.3780   11.3510    4.3530 C   0  0  0  0  0  0  0  0  0  0  0  0
    8.7120   12.7780    4.7650 O   0  0  0  0  0  0  0  0  0  0  0  0
    8.6660   12.6130    5.7200 H   0  0  0  0  0  0  0  0  0  0  0  0
    8.6260   10.1550    4.4220 C   0  0  0  0  0  0  0  0  0  0  0  0
    7.5000   10.1570    3.5430 O   0  0  0  0  0  0  0  0  0  0  0  0
    6.6870   10.2760    4.0580 H   0  0  0  0  0  0  0  0  0  0  0  0
  1 18  1  1  0  0  0
  1  2  1  0  0  0  0
  2 25  1  6  0  0  0
  3  2  1  0  0  0  0
  3 27  1  1  0  0  0
  4  3  1  0  0  0  0
  5  6  1  6  0  0  0
  5  4  1  0  0  0  0
  5  1  1  0  0  0  0
  7  6  1  0  0  0  0
  8  7  2  0  0  0  0
  9  8  1  0  0  0  0
  9 14  2  0  0  0  0
 10 11  2  0  0  0  0
 10  9  1  0  0  0  0
 11 12  1  0  0  0  0
 12 13  2  0  0  0  0
 14 13  1  0  0  0  0
 14  6  1  0  0  0  0
 15 10  1  0  0  0  0
 16 15  1  0  0  0  0
 17 15  1  0  0  0  0
 18 19  1  0  0  0  0
 20 18  1  0  0  0  0
 21 18  1  0  0  0  0
 21 22  1  0  0  0  0
 22 24  1  0  0  0  0
 23 24  1  0  0  0  0
 25 26  1  0  0  0  0
 28 29  1  0  0  0  0
 28 27  1  0  0  0  0
M  END
>  <MODEL>
1

>  <REMARK>
 VINA RESULT:      -6.1      0.000      0.000
  Name = ZINC05838514
                            x       y       z     vdW  Elec       q    Type
                         _______ _______ _______ _____ _____    ______ ____

>  <TORSDO>
F 9

>  <vina_score>
-6.1

$$$$
ZINC01635054
 OpenBabel01081722503D

 24 24  0  0  0  0  0  0  0  0999 V2000
   10.9380   10.8170    3.1500 N   0  0  0  0  0  0  0  0  0  0  0  0
   10.6090   11.2290    2.3190 H   0  0  0  0  0  0  0  0  0  0  0  0
   12.2630   10.7010    3.3660 C   0  0  0  0  0  0  0  0  0  0  0  0
   13.1380   11.1490    2.4440 N   0  0  0  0  0  0  0  0  0  0  0  0
   14.1060   11.0640    2.6020 H   0  0  0  0  0  0  0  0  0  0  0  0
   12.6690   10.1920    4.3940 O   0  0  0  0  0  0  0  0  0  0  0  0
   12.6700   11.7350    1.2610 N   0  0  0  0  0  0  0  0  0  0  0  0
   12.3050   12.9790    1.2540 C   0  0  0  0  0  0  0  0  0  0  0  0
   11.8120   13.5960    0.0070 C   0  0  0  0  0  0  0  0  0  0  0  0
   12.4150   14.7540   -0.4880 C   0  0  0  0  0  0  0  0  0  0  0  0
   11.9540   15.3220   -1.6570 C   0  0  0  0  0  0  0  0  0  0  0  0
   10.8890   14.7540   -2.3330 C   0  0  0  0  0  0  0  0  0  0  0  0
   10.2860   13.6060   -1.8490 C   0  0  0  0  0  0  0  0  0  0  0  0
   10.7410   13.0240   -0.6830 C   0  0  0  0  0  0  0  0  0  0  0  0
    9.1510   13.0020   -2.5800 N   0  0  0  0  0  0  0  0  0  0  0  0
    9.2490   12.7660   -3.7710 O   0  0  0  0  0  0  0  0  0  0  0  0
    8.1170   12.7410   -1.9910 O   0  0  0  0  0  0  0  0  0  0  0  0
    9.9860   10.3300    4.1520 C   0  0  0  0  0  0  0  0  0  0  0  0
    8.9040   11.3860    4.3830 C   0  0  0  0  0  0  0  0  0  0  0  0
    9.4640   12.7710    4.0540 C   0  0  0  0  0  0  0  0  0  0  0  0
    9.1460   14.6940    2.6160 C   0  0  0  0  0  0  0  0  0  0  0  0
    8.5230   13.4650    3.1500 N   0  0  0  0  0  0  0  0  0  0  0  0
    7.6860   13.7200    3.6760 H   0  0  0  0  0  0  0  0  0  0  0  0
    8.1360   12.5700    2.0390 C   0  0  0  0  0  0  0  0  0  0  0  0
  1  3  1  0  0  0  0
  1 18  1  0  0  0  0
  2  1  1  0  0  0  0
  3  6  2  0  0  0  0
  4  5  1  0  0  0  0
  4  3  1  0  0  0  0
  7  4  1  0  0  0  0
  8  7  2  0  0  0  0
  9  8  1  0  0  0  0
 10  9  1  0  0  0  0
 11 10  2  0  0  0  0
 12 13  2  0  0  0  0
 12 11  1  0  0  0  0
 13 14  1  0  0  0  0
 14  9  2  0  0  0  0
 15 17  2  0  0  0  0
 15 13  1  0  0  0  0
 16 15  2  0  0  0  0
 18 19  1  0  0  0  0
 20 19  1  0  0  0  0
 21 22  1  0  0  0  0
 22 23  1  0  0  0  0
 22 20  1  0  0  0  0
 24 22  1  0  0  0  0
M  END
>  <MODEL>
1

>  <REMARK>
 VINA RESULT:      -6.1      0.000      0.000
  Name = ZINC01635054
                            x       y       z     vdW  Elec       q    Type
                         _______ _______ _______ _____ _____    ______ ____

>  <TORSDO>
F 7

>  <vina_score>
-6.1

$$$$
ZINC06041659
 OpenBabel01081722513D

 26 27  0  0  0  0  0  0  0  0999 V2000
    9.9360   13.5600    0.3070 C   0  0  0  0  0  0  0  0  0  0  0  0
    9.4770   14.2830    1.3980 C   0  0  0  0  0  0  0  0  0  0  0  0
   10.0950   14.1630    2.6250 C   0  0  0  0  0  0  0  0  0  0  0  0
   11.1820   13.3140    2.7710 C   0  0  0  0  0  0  0  0  0  0  0  0
   11.6510   12.5800    1.6690 C   0  0  0  0  0  0  0  0  0  0  0  0
   12.7060   11.8410    2.1010 N   0  0  0  0  0  0  0  0  0  0  0  0
   12.9160   12.0750    3.3710 C   0  0  0  0  0  0  0  0  0  0  0  0
   12.0010   12.9760    3.8340 N   0  0  0  0  0  0  0  0  0  0  0  0
   11.9360   13.3200    4.7540 H   0  0  0  0  0  0  0  0  0  0  0  0
   11.0140   12.7130    0.4320 C   0  0  0  0  0  0  0  0  0  0  0  0
   13.9150   11.4930    4.1330 N   0  0  0  0  0  0  0  0  0  0  0  0
   14.0460   10.5170    4.1080 H   0  0  0  0  0  0  0  0  0  0  0  0
   14.7060   12.2600    4.9070 C   0  0  0  0  0  0  0  0  0  0  0  0
   14.5440   13.4650    4.9380 O   0  0  0  0  0  0  0  0  0  0  0  0
   15.6770   11.6940    5.6480 O   0  0  0  0  0  0  0  0  0  0  0  0
   15.7330   10.2420    5.6610 C   0  0  0  0  0  0  0  0  0  0  0  0
    9.1330   13.7280   -1.2530 S   0  0  0  0  0  0  0  0  0  0  0  0
    9.7340   12.7780   -2.1230 O   0  0  0  0  0  0  0  0  0  0  0  0
    9.1020   15.1180   -1.5470 O   0  0  0  0  0  0  0  0  0  0  0  0
    7.5600   13.2530   -1.0470 N   0  0  0  0  0  0  0  0  0  0  0  0
    7.4000   13.1930   -0.0420 H   0  0  0  0  0  0  0  0  0  0  0  0
    7.0940   11.9920   -1.6270 C   0  0  0  0  0  0  0  0  0  0  0  0
    6.7590   11.0230   -0.5210 C   0  0  0  0  0  0  0  0  0  0  0  0
    5.6180   10.6600   -0.3610 O   0  0  0  0  0  0  0  0  0  0  0  0
    7.6630   10.9540    1.6820 C   0  0  0  0  0  0  0  0  0  0  0  0
    7.7280   10.5640    0.2860 O   0  0  0  0  0  0  0  0  0  0  0  0
  1 10  2  0  0  0  0
  1  2  1  0  0  0  0
  2  3  2  0  0  0  0
  3  4  1  0  0  0  0
  4  8  1  0  0  0  0
  5  6  1  0  0  0  0
  5  4  2  0  0  0  0
  6  7  2  0  0  0  0
  7  8  1  0  0  0  0
  7 11  1  0  0  0  0
  8  9  1  0  0  0  0
 10  5  1  0  0  0  0
 11 13  1  0  0  0  0
 12 11  1  0  0  0  0
 13 14  2  0  0  0  0
 13 15  1  0  0  0  0
 15 16  1  0  0  0  0
 17 20  1  0  0  0  0
 17  1  1  0  0  0  0
 18 17  2  0  0  0  0
 19 17  2  0  0  0  0
 20 21  1  0  0  0  0
 22 20  1  0  0  0  0
 22 23  1  0  0  0  0
 23 24  2  0  0  0  0
 23 26  1  0  0  0  0
 26 25  1  0  0  0  0
M  END
>  <MODEL>
1

>  <REMARK>
 VINA RESULT:      -6.1      0.000      0.000
  Name = ZINC06041659
                            x       y       z     vdW  Elec       q    Type
                         _______ _______ _______ _____ _____    ______ ____

>  <TORSDO>
F 7

>  <vina_score>
-6.1

$$$$
ZINC22450082
 OpenBabel01081722533D

 25 26  0  0  1  0  0  0  0  0999 V2000
    9.0990   13.7510   -1.7830 C   0  0  2  0  0  0  0  0  0  0  0  0
    8.9950   15.1150   -1.2480 N   0  0  0  0  0  0  0  0  0  0  0  0
    8.9200   15.7660   -2.0300 H   0  0  0  0  0  0  0  0  0  0  0  0
    8.1700   15.1770   -0.6510 H   0  0  0  0  0  0  0  0  0  0  0  0
   10.1850   15.4640   -0.4610 C   0  0  0  0  0  0  0  0  0  0  0  0
    9.7580   16.2090    0.8050 C   0  0  0  0  0  0  0  0  0  0  0  0
    9.2660   15.2450    1.7980 N   0  0  0  0  0  0  0  0  0  0  0  0
   10.0560   14.8360    2.2980 H   0  0  0  0  0  0  0  0  0  0  0  0
    8.6550   15.7230    2.4620 H   0  0  0  0  0  0  0  0  0  0  0  0
    8.7430   14.5080    1.3260 H   0  0  0  0  0  0  0  0  0  0  0  0
    9.0680   13.7990   -3.2890 C   0  0  0  0  0  0  0  0  0  0  0  0
    9.4160   12.7150   -4.0020 O   0  0  0  0  0  0  0  0  0  0  0  0
    8.7310   14.8120   -3.8550 O   0  0  0  0  0  0  0  0  0  0  0  0
    7.9240   12.9120   -1.2750 C   0  0  0  0  0  0  0  0  0  0  0  0
    9.2830   11.3080    1.7070 N   0  0  0  0  0  0  0  0  0  0  0  0
    9.3730   11.6350    0.3810 C   0  0  0  0  0  0  0  0  0  0  0  0
    8.2650   12.3370    0.0760 C   0  0  0  0  0  0  0  0  0  0  0  0
    7.5200   12.4400    1.1870 N   0  0  0  0  0  0  0  0  0  0  0  0
    8.1200   11.8210    2.1660 C   0  0  0  0  0  0  0  0  0  0  0  0
   10.2620   10.5430    2.4820 C   0  0  0  0  0  0  0  0  0  0  0  0
   11.2420   12.7820    3.3500 C   0  0  0  0  0  0  0  0  0  0  0  0
   11.3280   11.4740    3.0020 C   0  0  0  0  0  0  0  0  0  0  0  0
   13.0580   11.1610    3.3220 S   0  0  0  0  0  0  0  0  0  0  0  0
   13.4740   12.7530    3.8770 C   0  0  0  0  0  0  0  0  0  0  0  0
   12.3280   13.3860    3.7860 N   0  0  0  0  0  0  0  0  0  0  0  0
  1 11  1  6  0  0  0
  1 14  1  0  0  0  0
  1  2  1  0  0  0  0
  2  4  1  0  0  0  0
  2  5  1  0  0  0  0
  3  2  1  0  0  0  0
  5  6  1  0  0  0  0
  6  7  1  0  0  0  0
  7  8  1  0  0  0  0
  7  9  1  0  0  0  0
 10  7  1  0  0  0  0
 12 11  2  0  0  0  0
 13 11  1  0  0  0  0
 14 17  1  0  0  0  0
 15 19  1  0  0  0  0
 15 20  1  0  0  0  0
 16 15  1  0  0  0  0
 17 16  2  0  0  0  0
 17 18  1  0  0  0  0
 18 19  2  0  0  0  0
 20 22  1  0  0  0  0
 21 25  1  0  0  0  0
 22 23  1  0  0  0  0
 22 21  2  0  0  0  0
 23 24  1  0  0  0  0
 25 24  2  0  0  0  0
M  END
>  <MODEL>
1

>  <REMARK>
 VINA RESULT:      -6.1      0.000      0.000
  Name = ZINC22450082
                            x       y       z     vdW  Elec       q    Type
                         _______ _______ _______ _____ _____    ______ ____

>  <TORSDO>
F 9

>  <vina_score>
-6.1

$$$$
ZINC29574719
 OpenBabel01081722533D

 25 25  0  0  1  0  0  0  0  0999 V2000
    9.4910   15.7820    1.0070 C   0  0  0  0  0  0  0  0  0  0  0  0
    8.9900   14.8820    0.1380 N   0  0  0  0  0  0  0  0  0  0  0  0
    8.7690   13.9720    0.4450 H   0  0  0  0  0  0  0  0  0  0  0  0
    9.7640   16.9020    0.6300 O   0  0  0  0  0  0  0  0  0  0  0  0
    8.7820   15.2400   -1.2010 N   0  0  0  0  0  0  0  0  0  0  0  0
    8.7650   16.1900   -1.4590 H   0  0  0  0  0  0  0  0  0  0  0  0
    8.6080   14.2850   -2.1350 C   0  0  0  0  0  0  0  0  0  0  0  0
    7.4310   13.0650   -1.9020 S   0  0  0  0  0  0  0  0  0  0  0  0
    9.3630   14.2880   -3.2520 N   0  0  0  0  0  0  0  0  0  0  0  0
    9.2410   14.9950   -3.9260 H   0  0  0  0  0  0  0  0  0  0  0  0
   10.3640   13.2400   -3.4630 C   0  0  0  0  0  0  0  0  0  0  0  0
   11.5780   13.5060   -2.5720 C   0  0  2  0  0  0  0  0  0  0  0  0
   11.4020   12.8240   -1.1920 C   0  0  0  0  0  0  0  0  0  0  0  0
   12.3160   13.6840   -0.2860 C   0  0  0  0  0  0  0  0  0  0  0  0
   12.4680   15.0110   -1.0540 C   0  0  0  0  0  0  0  0  0  0  0  0
   11.6710   14.9120   -2.2470 O   0  0  0  0  0  0  0  0  0  0  0  0
    9.7140   15.3970    2.4460 C   0  0  0  0  0  0  0  0  0  0  0  0
   10.5500   13.1870    3.0460 C   0  0  0  0  0  0  0  0  0  0  0  0
    9.5340   13.9510    2.5990 N   0  0  0  0  0  0  0  0  0  0  0  0
    8.6680   13.5370    2.3750 H   0  0  0  0  0  0  0  0  0  0  0  0
   11.6160   13.6980    3.3220 O   0  0  0  0  0  0  0  0  0  0  0  0
   11.7070   11.0520    3.5450 C   0  0  0  0  0  0  0  0  0  0  0  0
   10.3640   11.7000    3.2040 C   0  0  0  0  0  0  0  0  0  0  0  0
    9.8310   11.1120    1.8950 C   0  0  0  0  0  0  0  0  0  0  0  0
    9.3660   11.4280    4.3300 C   0  0  0  0  0  0  0  0  0  0  0  0
  1 17  1  0  0  0  0
  2  3  1  0  0  0  0
  2  1  1  0  0  0  0
  4  1  2  0  0  0  0
  5  2  1  0  0  0  0
  6  5  1  0  0  0  0
  7  8  2  0  0  0  0
  7  5  1  0  0  0  0
  9  7  1  0  0  0  0
 10  9  1  0  0  0  0
 11  9  1  0  0  0  0
 12 11  1  6  0  0  0
 12 16  1  0  0  0  0
 12 13  1  0  0  0  0
 13 14  1  0  0  0  0
 15 14  1  0  0  0  0
 16 15  1  0  0  0  0
 17 19  1  0  0  0  0
 18 23  1  0  0  0  0
 18 21  2  0  0  0  0
 19 18  1  0  0  0  0
 20 19  1  0  0  0  0
 23 22  1  0  0  0  0
 23 25  1  0  0  0  0
 24 23  1  0  0  0  0
M  END
>  <MODEL>
1

>  <REMARK>
 VINA RESULT:      -6.1      0.000      0.000
  Name = ZINC29574719
                            x       y       z     vdW  Elec       q    Type
                         _______ _______ _______ _____ _____    ______ ____

>  <TORSDO>
F 8

>  <vina_score>
-6.1

$$$$
ZINC04474059
 OpenBabel01081722543D

 33 35  0  0  1  0  0  0  0  0999 V2000
   11.4260   12.8460    2.7600 C   0  0  0  0  0  0  0  0  0  0  0  0
   10.1230   12.7340    2.2150 C   0  0  0  0  0  0  0  0  0  0  0  0
    9.0960   12.4270    3.0170 C   0  0  0  0  0  0  0  0  0  0  0  0
    7.8400   12.3150    2.5610 O   0  0  0  0  0  0  0  0  0  0  0  0
    7.6230   12.1360    1.2480 C   0  0  0  0  0  0  0  0  0  0  0  0
    6.4110   11.6510    0.8330 N   0  0  0  0  0  0  0  0  0  0  0  0
    6.2380   11.5150   -0.1270 H   0  0  0  0  0  0  0  0  0  0  0  0
    5.7130   11.4390    1.4930 H   0  0  0  0  0  0  0  0  0  0  0  0
    8.5740   12.4230    0.3210 C   0  0  0  0  0  0  0  0  0  0  0  0
    8.3010   12.2250   -1.0420 C   0  0  0  0  0  0  0  0  0  0  0  0
    7.1820   11.9000   -1.3980 O   0  0  0  0  0  0  0  0  0  0  0  0
    9.9140   12.9510    0.7440 C   0  0  1  0  0  0  0  0  0  0  0  0
   10.0380   14.4140    0.4030 C   0  0  0  0  0  0  0  0  0  0  0  0
    9.3380   15.5340    0.7920 C   0  0  0  0  0  0  0  0  0  0  0  0
    9.6930   16.7770    0.3000 C   0  0  0  0  0  0  0  0  0  0  0  0
   10.7500   16.8910   -0.5850 C   0  0  0  0  0  0  0  0  0  0  0  0
   11.4530   15.7720   -0.9770 C   0  0  0  0  0  0  0  0  0  0  0  0
   11.1030   14.5160   -0.4850 C   0  0  0  0  0  0  0  0  0  0  0  0
   11.6520   13.2560   -0.7280 N   0  0  0  0  0  0  0  0  0  0  0  0
   12.4150   13.0960   -1.3270 H   0  0  0  0  0  0  0  0  0  0  0  0
   11.0140   12.2850   -0.0480 C   0  0  0  0  0  0  0  0  0  0  0  0
   11.2750   11.1010   -0.0670 O   0  0  0  0  0  0  0  0  0  0  0  0
   11.9200   13.9450    2.9310 O   0  0  0  0  0  0  0  0  0  0  0  0
    9.2790   12.3950   -1.9580 O   0  0  0  0  0  0  0  0  0  0  0  0
    8.9590   13.1740   -3.1120 C   0  0  0  0  0  0  0  0  0  0  0  0
   12.1190   11.7370    3.0880 O   0  0  0  0  0  0  0  0  0  0  0  0
   13.4340   11.9250    3.6160 C   0  0  0  0  0  0  0  0  0  0  0  0
   13.9090   10.6290    4.2760 C   0  0  0  0  0  0  0  0  0  0  0  0
   15.3110   12.3030    5.2630 C   0  0  0  0  0  0  0  0  0  0  0  0
   14.9410   10.9240    5.2200 O   0  0  0  0  0  0  0  0  0  0  0  0
    9.3590   12.2070    4.4850 C   0  0  0  0  0  0  0  0  0  0  0  0
    9.1690   10.8260    4.8010 O   0  0  0  0  0  0  0  0  0  0  0  0
   10.3620   10.1530    5.2090 C   0  0  0  0  0  0  0  0  0  0  0  0
  1 23  2  0  0  0  0
  1 26  1  0  0  0  0
  2  1  1  0  0  0  0
  2  3  2  0  0  0  0
  3 31  1  0  0  0  0
  4  3  1  0  0  0  0
  5  4  1  0  0  0  0
  6  5  1  0  0  0  0
  6  8  1  0  0  0  0
  7  6  1  0  0  0  0
  9 12  1  0  0  0  0
  9  5  2  0  0  0  0
 10  9  1  0  0  0  0
 11 10  2  0  0  0  0
 12 21  1  6  0  0  0
 12  2  1  0  0  0  0
 13 12  1  0  0  0  0
 13 14  1  0  0  0  0
 15 14  2  0  0  0  0
 16 15  1  0  0  0  0
 17 16  2  0  0  0  0
 17 18  1  0  0  0  0
 18 13  2  0  0  0  0
 19 18  1  0  0  0  0
 19 21  1  0  0  0  0
 20 19  1  0  0  0  0
 22 21  2  0  0  0  0
 24 10  1  0  0  0  0
 25 24  1  0  0  0  0
 26 27  1  0  0  0  0
 27 28  1  0  0  0  0
 28 30  1  0  0  0  0
 30 29  1  0  0  0  0
 31 32  1  0  0  0  0
 32 33  1  0  0  0  0
M  END
>  <MODEL>
1

>  <REMARK>
 VINA RESULT:      -6.1      0.000      0.000
  Name = ZINC04474059
                            x       y       z     vdW  Elec       q    Type
                         _______ _______ _______ _____ _____    ______ ____

>  <TORSDO>
F 7

>  <vina_score>
-6.1

$$$$
ZINC03121134
 OpenBabel01081722563D

 19 19  0  0  0  0  0  0  0  0999 V2000
    8.2460   13.4630    1.1210 N   0  0  0  0  0  0  0  0  0  0  0  0
    7.7360   13.7140    1.9680 H   0  0  0  0  0  0  0  0  0  0  0  0
    7.8500   11.8860    0.6860 P   0  0  1  0  0  0  0  0  0  0  0  0
    9.0240   11.0080    0.8870 O   0  0  0  0  0  0  0  0  0  0  0  0
    6.6310   11.3680    1.6010 O   0  0  0  0  0  0  0  0  0  0  0  0
    5.9210   10.1550    1.3390 C   0  0  0  0  0  0  0  0  0  0  0  0
    7.4020   11.8500   -0.8910 N   0  0  0  0  0  0  0  0  0  0  0  0
    7.8000   12.8290   -1.7270 C   0  0  0  0  0  0  0  0  0  0  0  0
    7.1000   13.8080   -1.8920 O   0  0  0  0  0  0  0  0  0  0  0  0
    9.1740   13.5960   -3.5220 C   0  0  0  0  0  0  0  0  0  0  0  0
    8.9740   12.7240   -2.3780 O   0  0  0  0  0  0  0  0  0  0  0  0
    9.5860   13.5840    1.3560 N   0  0  0  0  0  0  0  0  0  0  0  0
    9.9660   13.2800    2.2120 H   0  0  0  0  0  0  0  0  0  0  0  0
   10.4190   14.1370    0.3790 C   0  0  0  0  0  0  0  0  0  0  0  0
   11.5320   13.4350   -0.0650 C   0  0  0  0  0  0  0  0  0  0  0  0
   12.3530   13.9850   -1.0300 C   0  0  0  0  0  0  0  0  0  0  0  0
   12.0670   15.2320   -1.5540 C   0  0  0  0  0  0  0  0  0  0  0  0
   10.9590   15.9330   -1.1140 C   0  0  0  0  0  0  0  0  0  0  0  0
   10.1350   15.3900   -0.1490 C   0  0  0  0  0  0  0  0  0  0  0  0
  1 12  1  0  0  0  0
  1  2  1  0  0  0  0
  3  7  1  6  0  0  0
  3  4  2  0  0  0  0
  3  1  1  0  0  0  0
  3  5  1  0  0  0  0
  6  5  1  0  0  0  0
  8  7  1  0  0  0  0
  9  8  2  0  0  0  0
 10 11  1  0  0  0  0
 11  8  1  0  0  0  0
 12 13  1  0  0  0  0
 14 12  1  0  0  0  0
 15 14  1  0  0  0  0
 16 15  2  0  0  0  0
 17 18  2  0  0  0  0
 17 16  1  0  0  0  0
 18 19  1  0  0  0  0
 19 14  2  0  0  0  0
M  END
>  <MODEL>
1

>  <REMARK>
 VINA RESULT:      -6.1      0.000      0.000
  Name = ZINC03121134
                            x       y       z     vdW  Elec       q    Type
                         _______ _______ _______ _____ _____    ______ ____

>  <TORSDO>
F 7

>  <vina_score>
-6.1

$$$$
ZINC22205845
 OpenBabel01081723433D

 27 27  0  0  1  0  0  0  0  0999 V2000
    9.3780   13.0250   -4.0490 C   0  0  0  0  0  0  0  0  0  0  0  0
    9.7870   13.4350   -2.6980 N   0  0  0  0  0  0  0  0  0  0  0  0
    9.5720   14.4270   -2.5940 H   0  0  0  0  0  0  0  0  0  0  0  0
   11.2340   13.2640   -2.5110 C   0  0  0  0  0  0  0  0  0  0  0  0
   11.8790   14.6270   -2.2560 C   0  0  1  0  0  0  0  0  0  0  0  0
   10.8780   15.6460   -2.3060 O   0  0  0  0  0  0  0  0  0  0  0  0
   11.2950   16.4980   -2.5120 H   0  0  0  0  0  0  0  0  0  0  0  0
   12.5390   14.6290   -0.8750 C   0  0  0  0  0  0  0  0  0  0  0  0
   12.5710   13.2960   -0.3600 O   0  0  0  0  0  0  0  0  0  0  0  0
   11.8930   13.0630    0.7940 C   0  0  0  0  0  0  0  0  0  0  0  0
   11.0050   14.0110    1.2810 C   0  0  0  0  0  0  0  0  0  0  0  0
   10.3110   13.7700    2.4500 C   0  0  0  0  0  0  0  0  0  0  0  0
   10.5090   12.5890    3.1420 C   0  0  0  0  0  0  0  0  0  0  0  0
    9.5640   12.2630    4.7470 Br  0  0  0  0  0  0  0  0  0  0  0  0
   11.3990   11.6430    2.6610 C   0  0  0  0  0  0  0  0  0  0  0  0
   12.0900   11.8790    1.4880 C   0  0  0  0  0  0  0  0  0  0  0  0
    9.0330   12.7000   -1.6740 C   0  0  0  0  0  0  0  0  0  0  0  0
    7.5390   12.7580   -2.0000 C   0  0  2  0  0  0  0  0  0  0  0  0
    7.0000   13.9990   -1.5440 O   0  0  0  0  0  0  0  0  0  0  0  0
    6.6610   13.8920   -0.6400 H   0  0  0  0  0  0  0  0  0  0  0  0
    6.8190   11.6010   -1.3030 C   0  0  0  0  0  0  0  0  0  0  0  0
    7.6710   11.0690   -0.2370 N   0  0  0  0  0  0  0  0  0  0  0  0
    8.5430   11.5990   -0.2630 H   0  0  0  0  0  0  0  0  0  0  0  0
    7.1440   11.0930    1.3330 S   0  0  0  0  0  0  0  0  0  0  0  0
    7.3080   12.5180    1.8420 O   0  0  0  0  0  0  0  0  0  0  0  0
    8.0490   10.2890    2.0780 O   0  0  0  0  0  0  0  0  0  0  0  0
    5.7480   10.8340    1.2970 O   0  0  0  0  0  0  0  0  0  0  0  0
  1  2  1  0  0  0  0
  2  3  1  0  0  0  0
  2  4  1  0  0  0  0
  2 17  1  0  0  0  0
  5  4  1  1  0  0  0
  5  8  1  0  0  0  0
  6  5  1  0  0  0  0
  7  6  1  0  0  0  0
  8  9  1  0  0  0  0
  9 10  1  0  0  0  0
 10 11  2  0  0  0  0
 10 16  1  0  0  0  0
 11 12  1  0  0  0  0
 12 13  2  0  0  0  0
 13 14  1  0  0  0  0
 15 13  1  0  0  0  0
 16 15  2  0  0  0  0
 18 17  1  1  0  0  0
 18 19  1  0  0  0  0
 18 21  1  0  0  0  0
 19 20  1  0  0  0  0
 21 22  1  0  0  0  0
 22 24  1  0  0  0  0
 23 22  1  0  0  0  0
 24 25  2  0  0  0  0
 24 26  1  0  0  0  0
 27 24  2  0  0  0  0
M  END
>  <MODEL>
1

>  <REMARK>
 VINA RESULT:      -6.1      0.000      0.000
  Name = ZINC22205845
                            x       y       z     vdW  Elec       q    Type
                         _______ _______ _______ _____ _____    ______ ____

>  <TORSDO>
F 12

>  <vina_score>
-6.1

$$$$
ZINC06088021
 OpenBabel01081722363D

 25 26  0  0  1  0  0  0  0  0999 V2000
    7.9230   13.1520    0.6580 N   0  0  0  0  0  0  0  0  0  0  0  0
    6.9100   13.2100    0.7700 H   0  0  0  0  0  0  0  0  0  0  0  0
    8.3110   14.0830    0.5090 H   0  0  0  0  0  0  0  0  0  0  0  0
    8.5070   12.5710    1.8820 C   0  0  0  0  0  0  0  0  0  0  0  0
    9.8350   11.8970    1.5320 C   0  0  0  0  0  0  0  0  0  0  0  0
   10.9750   12.8000    1.9260 C   0  0  0  0  0  0  0  0  0  0  0  0
   10.9880   13.9550    1.5600 O   0  0  0  0  0  0  0  0  0  0  0  0
   13.0210   13.1530    3.2970 C   0  0  0  0  0  0  0  0  0  0  0  0
   14.0440   12.6580    4.0760 C   0  0  0  0  0  0  0  0  0  0  0  0
   14.1420   11.2970    4.3140 C   0  0  0  0  0  0  0  0  0  0  0  0
   15.4380   10.6810    5.2910 Cl  0  0  0  0  0  0  0  0  0  0  0  0
   13.2090   10.4240    3.7760 C   0  0  0  0  0  0  0  0  0  0  0  0
   12.1780   10.9060    3.0000 C   0  0  0  0  0  0  0  0  0  0  0  0
   12.0730   12.2790    2.7550 C   0  0  0  0  0  0  0  0  0  0  0  0
    8.2280   12.3030   -0.5090 C   0  0  1  0  0  0  0  0  0  0  0  0
    7.1070   11.3190   -0.7240 C   0  0  0  0  0  0  0  0  0  0  0  0
    6.1250   11.6010   -1.5950 O   0  0  0  0  0  0  0  0  0  0  0  0
    7.0910   10.2770   -0.1120 O   0  0  0  0  0  0  0  0  0  0  0  0
    8.3750   13.1870   -1.7490 C   0  0  0  0  0  0  0  0  0  0  0  0
    9.7130   13.8810   -1.7160 C   0  0  0  0  0  0  0  0  0  0  0  0
   10.9060   13.3400   -2.0300 C   0  0  0  0  0  0  0  0  0  0  0  0
   11.8440   14.2830   -1.8670 N   0  0  0  0  0  0  0  0  0  0  0  0
   11.2790   15.3910   -1.4710 C   0  0  0  0  0  0  0  0  0  0  0  0
    9.9490   15.1820   -1.3610 N   0  0  0  0  0  0  0  0  0  0  0  0
    9.2750   15.8410   -1.0780 H   0  0  0  0  0  0  0  0  0  0  0  0
  1  2  1  0  0  0  0
  1  4  1  0  0  0  0
  3  1  1  0  0  0  0
  5  4  1  0  0  0  0
  5  6  1  0  0  0  0
  6 14  1  0  0  0  0
  7  6  2  0  0  0  0
  8  9  2  0  0  0  0
  9 10  1  0  0  0  0
 10 11  1  0  0  0  0
 12 10  2  0  0  0  0
 13 12  1  0  0  0  0
 14 13  2  0  0  0  0
 14  8  1  0  0  0  0
 15 19  1  6  0  0  0
 15  1  1  0  0  0  0
 16 15  1  0  0  0  0
 16 18  1  0  0  0  0
 17 16  2  0  0  0  0
 19 20  1  0  0  0  0
 20 24  1  0  0  0  0
 21 22  1  0  0  0  0
 21 20  2  0  0  0  0
 22 23  2  0  0  0  0
 23 24  1  0  0  0  0
 24 25  1  0  0  0  0
M  END
>  <MODEL>
1

>  <REMARK>
 VINA RESULT:      -6.1      0.000      0.000
  Name = ZINC06088021
                            x       y       z     vdW  Elec       q    Type
                         _______ _______ _______ _____ _____    ______ ____

>  <TORSDO>
F 8

>  <vina_score>
-6.1

$$$$
ZINC30924904
 OpenBabel01081722323D

 35 36  0  0  0  0  0  0  0  0999 V2000
    9.1180   14.4260   -3.1640 C   0  0  0  0  0  0  0  0  0  0  0  0
   11.3270   14.6240   -2.1530 C   0  0  0  0  0  0  0  0  0  0  0  0
   10.0670   15.0910   -2.2680 N   0  0  0  0  0  0  0  0  0  0  0  0
    9.7860   15.8800   -1.7490 H   0  0  0  0  0  0  0  0  0  0  0  0
   11.6740   13.6540   -2.7920 O   0  0  0  0  0  0  0  0  0  0  0  0
   12.3030   15.3090   -1.2320 C   0  0  0  0  0  0  0  0  0  0  0  0
   12.6860   14.3890   -0.1570 N   0  0  0  0  0  0  0  0  0  0  0  0
   13.3180   13.7020   -0.5690 H   0  0  0  0  0  0  0  0  0  0  0  0
   11.5240   13.5390    0.6610 S   0  0  0  0  0  0  0  0  0  0  0  0
   10.9440   12.6410   -0.2750 O   0  0  0  0  0  0  0  0  0  0  0  0
   10.7540   14.4920    1.3800 O   0  0  0  0  0  0  0  0  0  0  0  0
   14.3550   10.1530    4.7760 C   0  0  0  0  0  0  0  0  0  0  0  0
   13.6470   10.9990    3.7480 C   0  0  0  0  0  0  0  0  0  0  0  0
   13.7390   12.3780    3.8040 C   0  0  0  0  0  0  0  0  0  0  0  0
   13.0920   13.1530    2.8630 C   0  0  0  0  0  0  0  0  0  0  0  0
   12.3510   12.5500    1.8630 C   0  0  0  0  0  0  0  0  0  0  0  0
   12.2540   11.1720    1.8090 C   0  0  0  0  0  0  0  0  0  0  0  0
   12.9060   10.3970    2.7490 C   0  0  0  0  0  0  0  0  0  0  0  0
    8.5080   13.2410   -2.4590 C   0  0  0  0  0  0  0  0  0  0  0  0
    8.1910   13.3260   -1.1520 N   0  0  0  0  0  0  0  0  0  0  0  0
    8.4180   14.1360   -0.6410 H   0  0  0  0  0  0  0  0  0  0  0  0
    8.3050   12.2130   -3.0690 O   0  0  0  0  0  0  0  0  0  0  0  0
    7.5370   12.2620   -0.5220 C   0  0  0  0  0  0  0  0  0  0  0  0
    6.5840   11.5220   -1.2120 C   0  0  0  0  0  0  0  0  0  0  0  0
    5.9430   10.4690   -0.5910 C   0  0  0  0  0  0  0  0  0  0  0  0
    6.2390   10.1530    0.7220 C   0  0  0  0  0  0  0  0  0  0  0  0
    7.1850   10.8910    1.4180 C   0  0  0  0  0  0  0  0  0  0  0  0
    7.8350   11.9470    0.7960 C   0  0  0  0  0  0  0  0  0  0  0  0
    7.4740   10.5800    2.7090 O   0  0  0  0  0  0  0  0  0  0  0  0
    8.8480   10.3510    3.0300 C   0  0  0  0  0  0  0  0  0  0  0  0
    9.2780   11.3080    4.1110 C   0  0  0  0  0  0  0  0  0  0  0  0
    9.0190   12.6260    3.9870 N   0  0  0  0  0  0  0  0  0  0  0  0
    9.3000   13.2510    4.6930 H   0  0  0  0  0  0  0  0  0  0  0  0
    8.5490   12.9620    3.1910 H   0  0  0  0  0  0  0  0  0  0  0  0
    9.8570   10.8940    5.0930 O   0  0  0  0  0  0  0  0  0  0  0  0
  1 19  1  0  0  0  0
  1  3  1  0  0  0  0
  2  6  1  0  0  0  0
  3  2  1  0  0  0  0
  3  4  1  0  0  0  0
  5  2  2  0  0  0  0
  6  7  1  0  0  0  0
  7  9  1  0  0  0  0
  8  7  1  0  0  0  0
  9 11  2  0  0  0  0
  9 16  1  0  0  0  0
 10  9  2  0  0  0  0
 13 14  1  0  0  0  0
 13 12  1  0  0  0  0
 15 14  2  0  0  0  0
 16 15  1  0  0  0  0
 17 16  2  0  0  0  0
 17 18  1  0  0  0  0
 18 13  2  0  0  0  0
 19 20  1  0  0  0  0
 20 21  1  0  0  0  0
 20 23  1  0  0  0  0
 22 19  2  0  0  0  0
 23 28  2  0  0  0  0
 24 25  2  0  0  0  0
 24 23  1  0  0  0  0
 25 26  1  0  0  0  0
 26 27  2  0  0  0  0
 27 29  1  0  0  0  0
 28 27  1  0  0  0  0
 29 30  1  0  0  0  0
 30 31  1  0  0  0  0
 31 35  2  0  0  0  0
 32 31  1  0  0  0  0
 32 33  1  0  0  0  0
 34 32  1  0  0  0  0
M  END
>  <MODEL>
1

>  <REMARK>
 VINA RESULT:      -6.1      0.000      0.000
  Name = ZINC30924904
                            x       y       z     vdW  Elec       q    Type
                         _______ _______ _______ _____ _____    ______ ____

>  <TORSDO>
F 10

>  <vina_score>
-6.1

$$$$
ZINC00481078
 OpenBabel01081722363D

 24 24  0  0  0  0  0  0  0  0999 V2000
    8.9670   12.4750    1.3230 C   0  0  0  0  0  0  0  0  0  0  0  0
    8.9100   13.0190    0.0530 C   0  0  0  0  0  0  0  0  0  0  0  0
    7.9690   12.5740   -0.8180 N   0  0  0  0  0  0  0  0  0  0  0  0
    7.0880   11.6210   -0.4730 C   0  0  0  0  0  0  0  0  0  0  0  0
    7.0930   11.0490    0.7420 N   0  0  0  0  0  0  0  0  0  0  0  0
    6.4360   10.3470    0.9550 H   0  0  0  0  0  0  0  0  0  0  0  0
    6.2610   11.2620   -1.2900 O   0  0  0  0  0  0  0  0  0  0  0  0
    7.9930   11.4290    1.6730 C   0  0  0  0  0  0  0  0  0  0  0  0
    8.0000   10.9170    2.7770 O   0  0  0  0  0  0  0  0  0  0  0  0
   12.0310   12.6370    3.3530 C   0  0  0  0  0  0  0  0  0  0  0  0
   11.1530   12.2890    2.3920 N   0  0  0  0  0  0  0  0  0  0  0  0
   11.3750   11.5670    1.7600 H   0  0  0  0  0  0  0  0  0  0  0  0
    9.9710   12.9290    2.2960 C   0  0  0  0  0  0  0  0  0  0  0  0
    9.7360   13.8830    3.0130 O   0  0  0  0  0  0  0  0  0  0  0  0
   11.7580   13.5280    4.1320 O   0  0  0  0  0  0  0  0  0  0  0  0
   13.2120   11.9980    3.4490 O   0  0  0  0  0  0  0  0  0  0  0  0
   14.4060   10.1530    4.4990 C   0  0  0  0  0  0  0  0  0  0  0  0
   13.1700   10.5680    3.7000 C   0  0  0  0  0  0  0  0  0  0  0  0
    7.9090   13.1510   -2.1630 C   0  0  0  0  0  0  0  0  0  0  0  0
    8.9030   14.3090   -2.2670 C   0  0  0  0  0  0  0  0  0  0  0  0
    9.8890   13.9990   -3.3230 N   0  0  0  0  0  0  0  0  0  0  0  0
    9.9770   14.8060   -3.9400 H   0  0  0  0  0  0  0  0  0  0  0  0
    9.4340   12.8370   -4.1140 C   0  0  0  0  0  0  0  0  0  0  0  0
   11.2060   13.7130   -2.7170 C   0  0  0  0  0  0  0  0  0  0  0  0
  1  8  1  0  0  0  0
  1 13  1  0  0  0  0
  2  1  2  0  0  0  0
  3  4  1  0  0  0  0
  3  2  1  0  0  0  0
  4  5  1  0  0  0  0
  5  6  1  0  0  0  0
  5  8  1  0  0  0  0
  7  4  2  0  0  0  0
  8  9  2  0  0  0  0
 10 16  1  0  0  0  0
 10 15  2  0  0  0  0
 11 10  1  0  0  0  0
 12 11  1  0  0  0  0
 13 11  1  0  0  0  0
 13 14  2  0  0  0  0
 16 18  1  0  0  0  0
 18 17  1  0  0  0  0
 19  3  1  0  0  0  0
 20 19  1  0  0  0  0
 21 24  1  0  0  0  0
 21 20  1  0  0  0  0
 22 21  1  0  0  0  0
 23 21  1  0  0  0  0
M  END
>  <MODEL>
1

>  <REMARK>
 VINA RESULT:      -6.1      0.000      0.000
  Name = ZINC00481078
                            x       y       z     vdW  Elec       q    Type
                         _______ _______ _______ _____ _____    ______ ____

>  <TORSDO>
F 6

>  <vina_score>
-6.1

$$$$
ZINC08739346
 OpenBabel01081722373D

 23 24  0  0  0  0  0  0  0  0999 V2000
    9.8290   12.5270    2.8340 C   0  0  0  0  0  0  0  0  0  0  0  0
    9.1000   12.5390    1.6800 C   0  0  0  0  0  0  0  0  0  0  0  0
    7.8050   11.7730    1.5960 C   0  0  0  0  0  0  0  0  0  0  0  0
    9.5560   13.2650    0.5780 C   0  0  0  0  0  0  0  0  0  0  0  0
   10.7820   13.9500    0.7560 C   0  0  0  0  0  0  0  0  0  0  0  0
   11.3260   14.6750   -0.2100 N   0  0  0  0  0  0  0  0  0  0  0  0
   10.7540   14.7930   -1.3860 C   0  0  0  0  0  0  0  0  0  0  0  0
   11.3510   15.5430   -2.3350 O   0  0  0  0  0  0  0  0  0  0  0  0
    9.5740   14.1780   -1.6730 N   0  0  0  0  0  0  0  0  0  0  0  0
    8.9370   13.4230   -0.7570 C   0  0  0  0  0  0  0  0  0  0  0  0
    7.8790   12.8810   -1.0220 O   0  0  0  0  0  0  0  0  0  0  0  0
   11.2290   13.5560    2.4280 S   0  0  0  0  0  0  0  0  0  0  0  0
    9.5350   11.8400    4.0920 C   0  0  0  0  0  0  0  0  0  0  0  0
    8.6190   12.2230    4.7950 O   0  0  0  0  0  0  0  0  0  0  0  0
   10.2810   10.7830    4.4730 O   0  0  0  0  0  0  0  0  0  0  0  0
   12.5580   10.2880    3.8290 C   0  0  0  0  0  0  0  0  0  0  0  0
   11.0770   10.1540    3.4660 C   0  0  0  0  0  0  0  0  0  0  0  0
    8.9820   14.3460   -3.0020 C   0  0  0  0  0  0  0  0  0  0  0  0
    9.5920   13.3250   -3.9650 C   0  0  0  0  0  0  0  0  0  0  0  0
    8.6560   12.2000   -4.1310 N   0  0  0  0  0  0  0  0  0  0  0  0
    8.5250   12.0100   -5.1250 H   0  0  0  0  0  0  0  0  0  0  0  0
    9.0360   11.3710   -3.6750 H   0  0  0  0  0  0  0  0  0  0  0  0
    7.7590   12.4400   -3.7100 H   0  0  0  0  0  0  0  0  0  0  0  0
  1 13  1  0  0  0  0
  2  1  2  0  0  0  0
  3  2  1  0  0  0  0
  4  5  2  0  0  0  0
  4  2  1  0  0  0  0
  5 12  1  0  0  0  0
  6  5  1  0  0  0  0
  7  6  1  0  0  0  0
  8  7  2  0  0  0  0
  9  7  1  0  0  0  0
  9 10  1  0  0  0  0
 10  4  1  0  0  0  0
 11 10  2  0  0  0  0
 12  1  1  0  0  0  0
 13 15  1  0  0  0  0
 13 14  2  0  0  0  0
 17 16  1  0  0  0  0
 17 15  1  0  0  0  0
 18  9  1  0  0  0  0
 19 18  1  0  0  0  0
 20 19  1  0  0  0  0
 20 23  1  0  0  0  0
 20 22  1  0  0  0  0
 21 20  1  0  0  0  0
M  END
>  <MODEL>
1

>  <REMARK>
 VINA RESULT:      -6.1      0.000      0.000
  Name = ZINC08739346
                            x       y       z     vdW  Elec       q    Type
                         _______ _______ _______ _____ _____    ______ ____

>  <TORSDO>
F 6

>  <vina_score>
-6.1

$$$$
ZINC29918169
 OpenBabel01081722393D

 28 29  0  0  0  0  0  0  0  0999 V2000
    9.2450   13.9310   -1.2580 N   0  0  0  0  0  0  0  0  0  0  0  0
    9.0620   13.2560   -0.0850 C   0  0  0  0  0  0  0  0  0  0  0  0
    8.0640   12.2670   -0.0180 C   0  0  0  0  0  0  0  0  0  0  0  0
    7.2660   12.0150   -1.2250 C   0  0  0  0  0  0  0  0  0  0  0  0
    7.5260   12.7370   -2.3350 N   0  0  0  0  0  0  0  0  0  0  0  0
    7.0010   12.5790   -3.1520 H   0  0  0  0  0  0  0  0  0  0  0  0
    6.3890   11.1710   -1.2250 O   0  0  0  0  0  0  0  0  0  0  0  0
    8.4930   13.6690   -2.3390 C   0  0  0  0  0  0  0  0  0  0  0  0
    8.6960   14.2990   -3.3590 O   0  0  0  0  0  0  0  0  0  0  0  0
    9.8320   13.5350    1.0010 N   0  0  0  0  0  0  0  0  0  0  0  0
   10.8090   13.6140    0.9050 H   0  0  0  0  0  0  0  0  0  0  0  0
    9.4130   13.6580    1.8830 H   0  0  0  0  0  0  0  0  0  0  0  0
    7.8330   11.5460    1.1720 C   0  0  0  0  0  0  0  0  0  0  0  0
    7.0440   11.9670    1.9940 O   0  0  0  0  0  0  0  0  0  0  0  0
    8.5650   10.2520    1.4230 C   0  0  0  0  0  0  0  0  0  0  0  0
    9.0330   10.1540    3.1690 S   0  0  0  0  0  0  0  0  0  0  0  0
   10.7880   10.2230    3.0190 C   0  0  0  0  0  0  0  0  0  0  0  0
   11.4730   10.2190    1.9010 N   0  0  0  0  0  0  0  0  0  0  0  0
   12.7290   10.2840    2.1730 N   0  0  0  0  0  0  0  0  0  0  0  0
   12.8940   10.3220    3.4630 C   0  0  0  0  0  0  0  0  0  0  0  0
   11.6730   10.2850    4.0300 O   0  0  0  0  0  0  0  0  0  0  0  0
   14.2130   10.3950    4.1890 C   0  0  0  0  0  0  0  0  0  0  0  0
   14.5160   12.1020    4.7230 S   0  0  0  0  0  0  0  0  0  0  0  0
   13.4420   13.0940    3.6500 C   0  0  0  0  0  0  0  0  0  0  0  0
   10.2820   14.9630   -1.3370 C   0  0  0  0  0  0  0  0  0  0  0  0
   11.8630   13.5720   -2.6830 C   0  0  0  0  0  0  0  0  0  0  0  0
   11.6610   14.3000   -1.3530 C   0  0  0  0  0  0  0  0  0  0  0  0
   12.7430   15.3700   -1.1900 C   0  0  0  0  0  0  0  0  0  0  0  0
  1  2  1  0  0  0  0
  2  3  2  0  0  0  0
  2 10  1  0  0  0  0
  3 13  1  0  0  0  0
  4  7  2  0  0  0  0
  4  3  1  0  0  0  0
  5  4  1  0  0  0  0
  6  5  1  0  0  0  0
  8  5  1  0  0  0  0
  8  1  1  0  0  0  0
  9  8  2  0  0  0  0
 10 12  1  0  0  0  0
 11 10  1  0  0  0  0
 13 15  1  0  0  0  0
 13 14  2  0  0  0  0
 15 16  1  0  0  0  0
 17 16  1  0  0  0  0
 17 21  1  0  0  0  0
 18 19  1  0  0  0  0
 18 17  2  0  0  0  0
 19 20  2  0  0  0  0
 20 21  1  0  0  0  0
 20 22  1  0  0  0  0
 22 23  1  0  0  0  0
 24 23  1  0  0  0  0
 25  1  1  0  0  0  0
 26 27  1  0  0  0  0
 27 25  1  0  0  0  0
 27 28  1  0  0  0  0
M  END
>  <MODEL>
1

>  <REMARK>
 VINA RESULT:      -6.1      0.000      0.000
  Name = ZINC29918169
                            x       y       z     vdW  Elec       q    Type
                         _______ _______ _______ _____ _____    ______ ____

>  <TORSDO>
F 9

>  <vina_score>
-6.1

$$$$
ZINC12398420
 OpenBabel01081722403D

 27 28  0  0  0  0  0  0  0  0999 V2000
    9.8410   10.9460    2.2160 C   0  0  0  0  0  0  0  0  0  0  0  0
   11.1080   10.6210    1.9220 N   0  0  0  0  0  0  0  0  0  0  0  0
   11.7770   10.7440    3.0520 C   0  0  0  0  0  0  0  0  0  0  0  0
   10.8930   11.1370    3.9820 O   0  0  0  0  0  0  0  0  0  0  0  0
    9.7940   11.2460    3.4810 N   0  0  0  0  0  0  0  0  0  0  0  0
   13.2240   10.4950    3.2550 C   0  0  0  0  0  0  0  0  0  0  0  0
   13.7680   10.6490    4.4780 N   0  0  0  0  0  0  0  0  0  0  0  0
   13.2050   10.9260    5.2370 H   0  0  0  0  0  0  0  0  0  0  0  0
   13.9190   10.1540    2.3190 O   0  0  0  0  0  0  0  0  0  0  0  0
   15.1990   10.4030    4.6790 C   0  0  0  0  0  0  0  0  0  0  0  0
   15.7270   11.3340    5.7730 C   0  0  0  0  0  0  0  0  0  0  0  0
   15.7100   12.7200    5.2720 N   0  0  0  0  0  0  0  0  0  0  0  0
   16.4890   13.2370    5.6780 H   0  0  0  0  0  0  0  0  0  0  0  0
   15.7980   12.7150    4.2560 H   0  0  0  0  0  0  0  0  0  0  0  0
   14.8310   13.1660    5.5360 H   0  0  0  0  0  0  0  0  0  0  0  0
    8.6810   10.9620    1.2540 C   0  0  0  0  0  0  0  0  0  0  0  0
    8.1480   12.3900    1.1210 C   0  0  0  0  0  0  0  0  0  0  0  0
    9.3070   14.8840    2.5510 C   0  0  0  0  0  0  0  0  0  0  0  0
    9.7170   14.3450    1.2050 C   0  0  0  0  0  0  0  0  0  0  0  0
   10.6660   14.8670    0.3920 C   0  0  0  0  0  0  0  0  0  0  0  0
   10.7350   14.0700   -0.7560 C   0  0  0  0  0  0  0  0  0  0  0  0
    9.8620   13.1020   -0.6340 N   0  0  0  0  0  0  0  0  0  0  0  0
    9.2040   13.2580    0.5930 N   0  0  0  0  0  0  0  0  0  0  0  0
   11.6580   14.2860   -1.9260 C   0  0  0  0  0  0  0  0  0  0  0  0
   11.5830   13.1860   -2.7870 F   0  0  0  0  0  0  0  0  0  0  0  0
   12.9700   14.4290   -1.4650 F   0  0  0  0  0  0  0  0  0  0  0  0
   11.2770   15.4430   -2.6140 F   0  0  0  0  0  0  0  0  0  0  0  0
  1  5  2  0  0  0  0
  2  1  1  0  0  0  0
  2  3  2  0  0  0  0
  3  6  1  0  0  0  0
  3  4  1  0  0  0  0
  5  4  1  0  0  0  0
  6  7  1  0  0  0  0
  7 10  1  0  0  0  0
  7  8  1  0  0  0  0
  9  6  2  0  0  0  0
 10 11  1  0  0  0  0
 12 15  1  0  0  0  0
 12 13  1  0  0  0  0
 12 11  1  0  0  0  0
 14 12  1  0  0  0  0
 16  1  1  0  0  0  0
 17 16  1  0  0  0  0
 19 18  1  0  0  0  0
 20 19  2  0  0  0  0
 21 22  2  0  0  0  0
 21 20  1  0  0  0  0
 22 23  1  0  0  0  0
 23 17  1  0  0  0  0
 23 19  1  0  0  0  0
 24 26  1  0  0  0  0
 24 21  1  0  0  0  0
 25 24  1  0  0  0  0
 27 24  1  0  0  0  0
M  END
>  <MODEL>
1

>  <REMARK>
 VINA RESULT:      -6.1      0.000      0.000
  Name = ZINC12398420
                            x       y       z     vdW  Elec       q    Type
                         _______ _______ _______ _____ _____    ______ ____

>  <TORSDO>
F 8

>  <vina_score>
-6.1

$$$$
ZINC31852179
 OpenBabel01081722483D

 26 28  0  0  0  0  0  0  0  0999 V2000
    9.0500   12.8490    2.7780 C   0  0  0  0  0  0  0  0  0  0  0  0
    8.2560   12.6740    3.6780 O   0  0  0  0  0  0  0  0  0  0  0  0
   12.5760   12.2520    3.5460 C   0  0  0  0  0  0  0  0  0  0  0  0
   11.4510   13.0060    3.6950 C   0  0  0  0  0  0  0  0  0  0  0  0
   10.4360   12.3910    2.9220 C   0  0  0  0  0  0  0  0  0  0  0  0
   10.9990   11.2690    2.3340 C   0  0  0  0  0  0  0  0  0  0  0  0
   12.2850   11.1970    2.7080 N   0  0  0  0  0  0  0  0  0  0  0  0
   13.2310   10.1570    2.2960 C   0  0  0  0  0  0  0  0  0  0  0  0
   15.7230   11.8670    5.6240 C   0  0  0  0  0  0  0  0  0  0  0  0
   14.3840   11.6500    5.0700 N   0  0  0  0  0  0  0  0  0  0  0  0
   13.8530   10.8700    5.3540 H   0  0  0  0  0  0  0  0  0  0  0  0
   13.8770   12.5190    4.1720 C   0  0  0  0  0  0  0  0  0  0  0  0
   14.4970   13.5230    3.8820 O   0  0  0  0  0  0  0  0  0  0  0  0
    8.6120   13.5350    1.5090 C   0  0  0  0  0  0  0  0  0  0  0  0
    9.7420   14.9050    1.1410 S   0  0  0  0  0  0  0  0  0  0  0  0
   10.7750   14.2730   -0.1380 C   0  0  0  0  0  0  0  0  0  0  0  0
   11.9720   13.7600    0.0200 N   0  0  0  0  0  0  0  0  0  0  0  0
   12.4510   13.3840   -1.2410 N   0  0  0  0  0  0  0  0  0  0  0  0
   11.5320   13.6750   -2.1280 C   0  0  0  0  0  0  0  0  0  0  0  0
   10.4700   14.2290   -1.4690 N   0  0  0  0  0  0  0  0  0  0  0  0
   11.6180   13.4570   -3.4970 N   0  0  0  0  0  0  0  0  0  0  0  0
   12.4330   13.7110   -3.9860 H   0  0  0  0  0  0  0  0  0  0  0  0
   10.8620   13.0480   -3.9790 H   0  0  0  0  0  0  0  0  0  0  0  0
    9.2250   14.6990   -2.0840 C   0  0  0  0  0  0  0  0  0  0  0  0
    8.7190   13.9490   -3.3170 C   0  0  0  0  0  0  0  0  0  0  0  0
    7.9980   13.7920   -1.9770 C   0  0  0  0  0  0  0  0  0  0  0  0
  1  5  1  0  0  0  0
  1  2  2  0  0  0  0
  3  4  2  0  0  0  0
  3 12  1  0  0  0  0
  5  4  1  0  0  0  0
  6  7  1  0  0  0  0
  6  5  2  0  0  0  0
  7  3  1  0  0  0  0
  8  7  1  0  0  0  0
 10 11  1  0  0  0  0
 10  9  1  0  0  0  0
 12 10  1  0  0  0  0
 13 12  2  0  0  0  0
 14  1  1  0  0  0  0
 15 14  1  0  0  0  0
 16 17  2  0  0  0  0
 16 15  1  0  0  0  0
 18 17  1  0  0  0  0
 19 20  1  0  0  0  0
 19 18  2  0  0  0  0
 20 16  1  0  0  0  0
 21 19  1  0  0  0  0
 22 21  1  0  0  0  0
 23 21  1  0  0  0  0
 24 26  1  0  0  0  0
 24 20  1  0  0  0  0
 25 24  1  0  0  0  0
 25 26  1  0  0  0  0
M  END
>  <MODEL>
1

>  <REMARK>
 VINA RESULT:      -6.0      0.000      0.000
  Name = ZINC31852179
                            x       y       z     vdW  Elec       q    Type
                         _______ _______ _______ _____ _____    ______ ____

>  <TORSDO>
F 7

>  <vina_score>
-6.0

$$$$
ZINC31576049
 OpenBabel01081722493D

 29 30  0  0  1  0  0  0  0  0999 V2000
   10.4970   13.2870    3.3970 C   0  0  0  0  0  0  0  0  0  0  0  0
    9.4660   14.0500    2.8630 C   0  0  0  0  0  0  0  0  0  0  0  0
    9.6130   14.6330    1.6210 C   0  0  0  0  0  0  0  0  0  0  0  0
   10.7800   14.4490    0.9020 C   0  0  0  0  0  0  0  0  0  0  0  0
   11.8080   13.6890    1.4300 C   0  0  0  0  0  0  0  0  0  0  0  0
   11.6700   13.1080    2.6760 C   0  0  0  0  0  0  0  0  0  0  0  0
   10.9600   15.1900   -0.6870 S   0  0  0  0  0  0  0  0  0  0  0  0
   10.2600   16.4250   -0.6410 O   0  0  0  0  0  0  0  0  0  0  0  0
   12.3390   15.1070   -1.0180 O   0  0  0  0  0  0  0  0  0  0  0  0
   10.1550   14.2290   -1.7690 N   0  0  0  0  0  0  0  0  0  0  0  0
    8.7590   14.5110   -2.1390 C   0  0  0  0  0  0  0  0  0  0  0  0
    8.6620   14.5240   -3.6730 C   0  0  0  0  0  0  0  0  0  0  0  0
    9.2230   13.3140   -4.1890 O   0  0  0  0  0  0  0  0  0  0  0  0
   10.6140   13.1470   -3.9030 C   0  0  0  0  0  0  0  0  0  0  0  0
   10.8120   13.0670   -2.3860 C   0  0  0  0  0  0  0  0  0  0  0  0
   12.7710   12.2960    3.2400 N   0  0  0  0  0  0  0  0  0  0  0  0
   12.8750   11.1200    2.9400 O   0  0  0  0  0  0  0  0  0  0  0  0
   13.5730   12.8040    4.0040 O   0  0  0  0  0  0  0  0  0  0  0  0
   10.3540   12.7010    4.6580 N   0  0  0  0  0  0  0  0  0  0  0  0
   10.4480   13.2510    5.4690 H   0  0  0  0  0  0  0  0  0  0  0  0
   10.0660   11.2700    4.7720 C   0  0  0  0  0  0  0  0  0  0  0  0
    8.6640   10.9860    4.2280 C   0  0  2  0  0  0  0  0  0  0  0  0
    7.9440   10.1810    5.1630 O   0  0  0  0  0  0  0  0  0  0  0  0
    8.1490   10.4720    6.0650 H   0  0  0  0  0  0  0  0  0  0  0  0
    8.7750   10.2440    2.8940 C   0  0  0  0  0  0  0  0  0  0  0  0
    8.7080   11.1630    0.6560 C   0  0  0  0  0  0  0  0  0  0  0  0
    7.9470   10.9210    1.8880 N   0  0  0  0  0  0  0  0  0  0  0  0
    7.6680   11.8250    2.2670 H   0  0  0  0  0  0  0  0  0  0  0  0
    6.7250   10.1530    1.6090 C   0  0  0  0  0  0  0  0  0  0  0  0
  1 19  1  0  0  0  0
  2  1  1  0  0  0  0
  3  2  2  0  0  0  0
  4  5  2  0  0  0  0
  4  3  1  0  0  0  0
  5  6  1  0  0  0  0
  6 16  1  0  0  0  0
  6  1  2  0  0  0  0
  7  8  2  0  0  0  0
  7  4  1  0  0  0  0
  9  7  2  0  0  0  0
 10  7  1  0  0  0  0
 11 10  1  0  0  0  0
 12 11  1  0  0  0  0
 13 14  1  0  0  0  0
 13 12  1  0  0  0  0
 14 15  1  0  0  0  0
 15 10  1  0  0  0  0
 16 18  2  0  0  0  0
 17 16  2  0  0  0  0
 19 21  1  0  0  0  0
 19 20  1  0  0  0  0
 22 25  1  6  0  0  0
 22 21  1  0  0  0  0
 22 23  1  0  0  0  0
 23 24  1  0  0  0  0
 26 27  1  0  0  0  0
 27 28  1  0  0  0  0
 27 25  1  0  0  0  0
 29 27  1  0  0  0  0
M  END
>  <MODEL>
1

>  <REMARK>
 VINA RESULT:      -6.0      0.000      0.000
  Name = ZINC31576049
                            x       y       z     vdW  Elec       q    Type
                         _______ _______ _______ _____ _____    ______ ____

>  <TORSDO>
F 9

>  <vina_score>
-6.0

$$$$
ZINC16562397
 OpenBabel01081722493D

 30 31  0  0  1  0  0  0  0  0999 V2000
   11.1030   11.5720    3.0630 C   0  0  1  0  0  0  0  0  0  0  0  0
   12.3660   10.8840    3.5860 C   0  0  0  0  0  0  0  0  0  0  0  0
    9.9620   11.2010    3.9250 N   0  0  0  0  0  0  0  0  0  0  0  0
   10.3190   10.8380    4.8090 H   0  0  0  0  0  0  0  0  0  0  0  0
    9.1270   12.3890    4.1970 C   0  0  0  0  0  0  0  0  0  0  0  0
    9.1520   10.1540    3.2690 C   0  0  0  0  0  0  0  0  0  0  0  0
    7.6090   11.7010   -0.4040 C   0  0  0  0  0  0  0  0  0  0  0  0
    8.9800   11.6380   -0.1980 C   0  0  0  0  0  0  0  0  0  0  0  0
    9.4760   11.1370    0.9900 C   0  0  0  0  0  0  0  0  0  0  0  0
    8.6080   10.7000    1.9740 C   0  0  0  0  0  0  0  0  0  0  0  0
    7.2420   10.7560    1.7680 C   0  0  0  0  0  0  0  0  0  0  0  0
    6.7400   11.2610    0.5840 C   0  0  0  0  0  0  0  0  0  0  0  0
    7.1190   12.1940   -1.5710 O   0  0  0  0  0  0  0  0  0  0  0  0
    7.6710   14.5100   -1.9850 C   0  0  0  0  0  0  0  0  0  0  0  0
    7.9780   13.0510   -2.3260 C   0  0  0  0  0  0  0  0  0  0  0  0
   11.2890   13.0680    3.1130 C   0  0  0  0  0  0  0  0  0  0  0  0
   11.5270   13.6150    4.1710 O   0  0  0  0  0  0  0  0  0  0  0  0
   11.1850   13.8310    1.9300 C   0  0  0  0  0  0  0  0  0  0  0  0
   10.3120   14.9300    1.8520 C   0  0  0  0  0  0  0  0  0  0  0  0
   10.2500   15.6410    0.6880 N   0  0  0  0  0  0  0  0  0  0  0  0
    9.3470   16.7920    0.5970 C   0  0  0  0  0  0  0  0  0  0  0  0
   10.9940   15.3040   -0.3760 C   0  0  0  0  0  0  0  0  0  0  0  0
   11.8420   14.2630   -0.3620 N   0  0  0  0  0  0  0  0  0  0  0  0
   12.6250   13.9500   -1.5590 C   0  0  0  0  0  0  0  0  0  0  0  0
   10.8990   15.9670   -1.3910 O   0  0  0  0  0  0  0  0  0  0  0  0
   11.9800   13.4990    0.7410 C   0  0  0  0  0  0  0  0  0  0  0  0
   12.7480   12.5550    0.7520 O   0  0  0  0  0  0  0  0  0  0  0  0
    9.5460   15.2820    2.9190 N   0  0  0  0  0  0  0  0  0  0  0  0
    8.5700   15.3620    2.8190 H   0  0  0  0  0  0  0  0  0  0  0  0
    9.9680   15.4570    3.7920 H   0  0  0  0  0  0  0  0  0  0  0  0
  1 16  1  1  0  0  0
  1  2  1  0  0  0  0
  1  3  1  0  0  0  0
  3  5  1  0  0  0  0
  3  4  1  0  0  0  0
  6  3  1  0  0  0  0
  7  8  2  0  0  0  0
  7 12  1  0  0  0  0
  8  9  1  0  0  0  0
  9 10  2  0  0  0  0
 10  6  1  0  0  0  0
 11 10  1  0  0  0  0
 12 11  2  0  0  0  0
 13  7  1  0  0  0  0
 15 14  1  0  0  0  0
 15 13  1  0  0  0  0
 16 17  2  0  0  0  0
 18 16  1  0  0  0  0
 19 18  2  0  0  0  0
 19 28  1  0  0  0  0
 20 19  1  0  0  0  0
 21 20  1  0  0  0  0
 22 23  1  0  0  0  0
 22 20  1  0  0  0  0
 23 26  1  0  0  0  0
 24 23  1  0  0  0  0
 25 22  2  0  0  0  0
 26 27  2  0  0  0  0
 26 18  1  0  0  0  0
 28 30  1  0  0  0  0
 29 28  1  0  0  0  0
M  END
>  <MODEL>
1

>  <REMARK>
 VINA RESULT:      -6.0      0.000      0.000
  Name = ZINC16562397
                            x       y       z     vdW  Elec       q    Type
                         _______ _______ _______ _____ _____    ______ ____

>  <TORSDO>
F 8

>  <vina_score>
-6.0

$$$$
ZINC06382444
 OpenBabel01081722503D

 22 23  0  0  1  0  0  0  0  0999 V2000
    9.6270   15.2070    2.1730 C   0  0  0  0  0  0  0  0  0  0  0  0
    9.4610   15.5090    0.7490 N   0  0  0  0  0  0  0  0  0  0  0  0
    8.7490   16.1240    0.4570 H   0  0  0  0  0  0  0  0  0  0  0  0
   10.2800   14.9430   -0.1610 C   0  0  0  0  0  0  0  0  0  0  0  0
   11.4620   14.4640    0.1850 N   0  0  0  0  0  0  0  0  0  0  0  0
   12.2810   13.8370   -0.6520 C   0  0  0  0  0  0  0  0  0  0  0  0
   11.8800   13.3630   -1.8250 N   0  0  0  0  0  0  0  0  0  0  0  0
   10.6100   13.6110   -2.1460 C   0  0  0  0  0  0  0  0  0  0  0  0
    9.6950   12.9060   -2.7440 N   0  0  0  0  0  0  0  0  0  0  0  0
    8.4720   13.4000   -2.5180 C   0  0  0  0  0  0  0  0  0  0  0  0
    8.4820   14.5070   -1.8300 N   0  0  0  0  0  0  0  0  0  0  0  0
    9.8860   14.8390   -1.6090 C   0  0  1  0  0  0  0  0  0  0  0  0
    8.6750   14.0770    2.5700 C   0  0  2  0  0  0  0  0  0  0  0  0
    7.5840   14.6130    3.3200 O   0  0  0  0  0  0  0  0  0  0  0  0
    6.7860   14.0870    3.1500 H   0  0  0  0  0  0  0  0  0  0  0  0
    9.4270   13.0530    3.4230 C   0  0  0  0  0  0  0  0  0  0  0  0
   10.7160   12.7450    2.7690 N   0  0  0  0  0  0  0  0  0  0  0  0
   10.8350   13.3620    1.9660 H   0  0  0  0  0  0  0  0  0  0  0  0
   13.1660   12.9990    2.9750 C   0  0  0  0  0  0  0  0  0  0  0  0
   11.8280   12.9700    3.7150 C   0  0  0  0  0  0  0  0  0  0  0  0
   10.7240   11.3420    2.3030 C   0  0  0  0  0  0  0  0  0  0  0  0
   10.1080   11.2840    0.9040 C   0  0  0  0  0  0  0  0  0  0  0  0
  2  1  1  0  0  0  0
  3  2  1  0  0  0  0
  4  5  2  0  0  0  0
  4  2  1  0  0  0  0
  6  5  1  0  0  0  0
  7  6  2  0  0  0  0
  8  7  1  0  0  0  0
  9 10  1  0  0  0  0
  9  8  2  0  0  0  0
 10 11  2  0  0  0  0
 11 12  1  0  0  0  0
 12  8  1  1  0  0  0
 12  4  1  0  0  0  0
 13  1  1  1  0  0  0
 13 14  1  0  0  0  0
 13 16  1  0  0  0  0
 15 14  1  0  0  0  0
 17 16  1  0  0  0  0
 17 20  1  0  0  0  0
 18 17  1  0  0  0  0
 19 20  1  0  0  0  0
 21 17  1  0  0  0  0
 22 21  1  0  0  0  0
M  END
>  <MODEL>
1

>  <REMARK>
 VINA RESULT:      -6.0      0.000      0.000
  Name = ZINC06382444
                            x       y       z     vdW  Elec       q    Type
                         _______ _______ _______ _____ _____    ______ ____

>  <TORSDO>
F 8

>  <vina_score>
-6.0

$$$$
ZINC31392821
 OpenBabel01081722513D

 33 35  0  0  1  0  0  0  0  0999 V2000
   12.3530   13.3870   -0.0680 C   0  0  2  0  0  0  0  0  0  0  0  0
   11.7810   14.8090   -0.2310 C   0  0  2  0  0  0  0  0  0  0  0  0
   10.2930   14.5810   -0.5950 C   0  0  2  0  0  0  0  0  0  0  0  0
   10.3090   13.1250   -1.1270 C   0  0  1  0  0  0  0  0  0  0  0  0
   11.2680   12.4650   -0.2730 O   0  0  0  0  0  0  0  0  0  0  0  0
    8.9860   12.5110   -0.9870 N   0  0  0  0  0  0  0  0  0  0  0  0
    7.9540   12.6080   -1.8720 C   0  0  0  0  0  0  0  0  0  0  0  0
    6.9280   11.9400   -1.4340 N   0  0  0  0  0  0  0  0  0  0  0  0
    7.2350   11.3720   -0.2420 C   0  0  0  0  0  0  0  0  0  0  0  0
    6.5430   10.5640    0.6750 C   0  0  0  0  0  0  0  0  0  0  0  0
    7.1720   10.1780    1.7800 N   0  0  0  0  0  0  0  0  0  0  0  0
    8.4180   10.5410    2.0200 C   0  0  0  0  0  0  0  0  0  0  0  0
    9.1060   11.2990    1.1900 N   0  0  0  0  0  0  0  0  0  0  0  0
    8.5590   11.7330    0.0590 C   0  0  0  0  0  0  0  0  0  0  0  0
    5.2360   10.1780    0.4320 N   0  0  0  0  0  0  0  0  0  0  0  0
    5.0500    9.3120    0.0010 H   0  0  0  0  0  0  0  0  0  0  0  0
    4.4920   10.7680    0.6900 H   0  0  0  0  0  0  0  0  0  0  0  0
   12.4540   15.5010   -1.2840 O   0  0  0  0  0  0  0  0  0  0  0  0
   13.4010   15.5570   -1.0810 H   0  0  0  0  0  0  0  0  0  0  0  0
    9.8730   15.4910   -1.6140 O   0  0  0  0  0  0  0  0  0  0  0  0
    8.9070   15.5690   -1.6000 H   0  0  0  0  0  0  0  0  0  0  0  0
   12.9240   13.2140    1.3410 C   0  0  0  0  0  0  0  0  0  0  0  0
   11.1610   13.5180    2.9740 C   0  0  0  0  0  0  0  0  0  0  0  0
   11.9330   12.5420    2.1920 N   0  0  0  0  0  0  0  0  0  0  0  0
   11.2830   12.0440    1.5820 H   0  0  0  0  0  0  0  0  0  0  0  0
   12.5750   11.5540    3.0680 C   0  0  0  0  0  0  0  0  0  0  0  0
   13.6030   12.2540    3.9590 C   0  0  0  0  0  0  0  0  0  0  0  0
   14.5790   11.2200    4.5220 C   0  0  0  0  0  0  0  0  0  0  0  0
   15.3440   11.8180    5.6260 N   0  0  0  0  0  0  0  0  0  0  0  0
   16.2740   11.4010    5.6510 H   0  0  0  0  0  0  0  0  0  0  0  0
   15.4710   13.2560    5.4540 N   0  0  0  0  0  0  0  0  0  0  0  0
   16.3320   13.5760    5.8960 H   0  0  0  0  0  0  0  0  0  0  0  0
   15.4960   13.4780    4.4590 H   0  0  0  0  0  0  0  0  0  0  0  0
  1 22  1  1  0  0  0
  2 18  1  6  0  0  0
  2  1  1  0  0  0  0
  3 20  1  6  0  0  0
  3  2  1  0  0  0  0
  4  6  1  1  0  0  0
  4  3  1  0  0  0  0
  4  5  1  0  0  0  0
  5  1  1  0  0  0  0
  6 14  1  0  0  0  0
  7  8  2  0  0  0  0
  7  6  1  0  0  0  0
  8  9  1  0  0  0  0
  9 14  2  0  0  0  0
  9 10  1  0  0  0  0
 10 11  2  0  0  0  0
 11 12  1  0  0  0  0
 13 12  2  0  0  0  0
 14 13  1  0  0  0  0
 15 10  1  0  0  0  0
 15 17  1  0  0  0  0
 16 15  1  0  0  0  0
 18 19  1  0  0  0  0
 20 21  1  0  0  0  0
 22 24  1  0  0  0  0
 24 23  1  0  0  0  0
 24 26  1  0  0  0  0
 25 24  1  0  0  0  0
 26 27  1  0  0  0  0
 27 28  1  0  0  0  0
 28 29  1  0  0  0  0
 29 30  1  0  0  0  0
 31 29  1  0  0  0  0
 31 32  1  0  0  0  0
 33 31  1  0  0  0  0
M  END
>  <MODEL>
1

>  <REMARK>
 VINA RESULT:      -6.0      0.000      0.000
  Name = ZINC31392821
                            x       y       z     vdW  Elec       q    Type
                         _______ _______ _______ _____ _____    ______ ____

>  <TORSDO>
F 11

>  <vina_score>
-6.0

$$$$
ZINC10329109
 OpenBabel01081722513D

 27 29  0  0  0  0  0  0  0  0999 V2000
   11.7410   11.7090    2.8640 N   0  0  0  0  0  0  0  0  0  0  0  0
   10.6070   11.2190    2.3240 C   0  0  0  0  0  0  0  0  0  0  0  0
   10.0430   11.8550    1.2020 C   0  0  0  0  0  0  0  0  0  0  0  0
   10.6750   12.9820    0.6770 C   0  0  0  0  0  0  0  0  0  0  0  0
   11.8370   13.4370    1.2770 N   0  0  0  0  0  0  0  0  0  0  0  0
   12.5200   14.6180    0.7440 C   0  0  0  0  0  0  0  0  0  0  0  0
    9.9540   13.4020   -0.3680 N   0  0  0  0  0  0  0  0  0  0  0  0
    8.9220   12.6180   -0.5390 C   0  0  0  0  0  0  0  0  0  0  0  0
    7.9150   12.6780   -1.4830 N   0  0  0  0  0  0  0  0  0  0  0  0
    6.7860   11.8710   -1.2670 N   0  0  0  0  0  0  0  0  0  0  0  0
    6.7550   10.9490   -0.3950 C   0  0  0  0  0  0  0  0  0  0  0  0
    5.4810   10.1560   -0.2490 C   0  0  0  0  0  0  0  0  0  0  0  0
    7.9100   10.5960    0.5010 C   0  0  0  0  0  0  0  0  0  0  0  0
    8.9320   11.6380    0.4160 N   0  0  0  0  0  0  0  0  0  0  0  0
   10.0740   10.2320    2.8020 O   0  0  0  0  0  0  0  0  0  0  0  0
   12.3400   12.7960    2.3490 C   0  0  0  0  0  0  0  0  0  0  0  0
   13.3610   13.2110    2.8630 O   0  0  0  0  0  0  0  0  0  0  0  0
   13.4870   10.1540    3.5840 C   0  0  0  0  0  0  0  0  0  0  0  0
   12.3280   11.0470    4.0320 C   0  0  0  0  0  0  0  0  0  0  0  0
    8.0220   13.5430   -2.6600 C   0  0  0  0  0  0  0  0  0  0  0  0
    9.2160   13.1300   -3.4820 C   0  0  0  0  0  0  0  0  0  0  0  0
   10.4440   13.5790   -3.1570 N   0  0  0  0  0  0  0  0  0  0  0  0
   10.5630   14.1750   -2.3830 H   0  0  0  0  0  0  0  0  0  0  0  0
    9.0710   12.3950   -4.4350 O   0  0  0  0  0  0  0  0  0  0  0  0
   11.5270   13.2040   -3.9020 N   0  0  0  0  0  0  0  0  0  0  0  0
   12.3680   13.6370   -3.5210 H   0  0  0  0  0  0  0  0  0  0  0  0
   11.6240   12.1900   -3.8730 H   0  0  0  0  0  0  0  0  0  0  0  0
  1 19  1  0  0  0  0
  2 15  2  0  0  0  0
  2  1  1  0  0  0  0
  3  2  1  0  0  0  0
  4  3  2  0  0  0  0
  4  5  1  0  0  0  0
  5 16  1  0  0  0  0
  6  5  1  0  0  0  0
  7  4  1  0  0  0  0
  8  7  2  0  0  0  0
  8 14  1  0  0  0  0
  9 10  1  0  0  0  0
  9  8  1  0  0  0  0
 10 11  2  0  0  0  0
 11 12  1  0  0  0  0
 11 13  1  0  0  0  0
 14 13  1  0  0  0  0
 14  3  1  0  0  0  0
 16 17  2  0  0  0  0
 16  1  1  0  0  0  0
 18 19  1  0  0  0  0
 20  9  1  0  0  0  0
 21 22  1  0  0  0  0
 21 20  1  0  0  0  0
 22 23  1  0  0  0  0
 24 21  2  0  0  0  0
 25 27  1  0  0  0  0
 25 26  1  0  0  0  0
 25 22  1  0  0  0  0
M  END
>  <MODEL>
1

>  <REMARK>
 VINA RESULT:      -6.0      0.000      0.000
  Name = ZINC10329109
                            x       y       z     vdW  Elec       q    Type
                         _______ _______ _______ _____ _____    ______ ____

>  <TORSDO>
F 4

>  <vina_score>
-6.0

$$$$
ZINC05499507
 OpenBabel01081722523D

 25 26  0  0  1  0  0  0  0  0999 V2000
   10.0180   14.2490    2.0100 C   0  0  0  0  0  0  0  0  0  0  0  0
   10.5170   13.8780    0.6830 N   0  0  0  0  0  0  0  0  0  0  0  0
   11.7310   13.3230    0.4050 C   0  0  0  0  0  0  0  0  0  0  0  0
   11.8440   13.1240   -0.8760 N   0  0  0  0  0  0  0  0  0  0  0  0
   10.7140   13.5370   -1.4990 C   0  0  0  0  0  0  0  0  0  0  0  0
   10.2770   13.5680   -2.8340 C   0  0  0  0  0  0  0  0  0  0  0  0
    9.0680   14.0580   -3.0920 N   0  0  0  0  0  0  0  0  0  0  0  0
    8.2910   14.5070   -2.1240 C   0  0  0  0  0  0  0  0  0  0  0  0
    8.6590   14.4970   -0.8610 N   0  0  0  0  0  0  0  0  0  0  0  0
    9.8500   14.0260   -0.5050 C   0  0  0  0  0  0  0  0  0  0  0  0
   11.0850   13.1010   -3.8550 N   0  0  0  0  0  0  0  0  0  0  0  0
   11.5840   12.2590   -3.7420 H   0  0  0  0  0  0  0  0  0  0  0  0
   11.1640   13.6090   -4.6940 H   0  0  0  0  0  0  0  0  0  0  0  0
    8.6980   13.5230    2.2800 C   0  0  2  0  0  0  0  0  0  0  0  0
    7.8130   14.3930    2.9890 O   0  0  0  0  0  0  0  0  0  0  0  0
    6.9970   14.5090    2.4800 H   0  0  0  0  0  0  0  0  0  0  0  0
    8.9660   12.2720    3.1190 C   0  0  0  0  0  0  0  0  0  0  0  0
    8.5130   11.0880    2.3590 N   0  0  0  0  0  0  0  0  0  0  0  0
    7.9660   10.4870    2.9750 H   0  0  0  0  0  0  0  0  0  0  0  0
   10.8250   10.4790    2.8660 C   0  0  0  0  0  0  0  0  0  0  0  0
    9.6800   10.3310    1.8610 C   0  0  0  0  0  0  0  0  0  0  0  0
    7.6640   11.5100    1.2250 C   0  0  0  0  0  0  0  0  0  0  0  0
    6.5770   10.4570    1.0030 C   0  0  0  0  0  0  0  0  0  0  0  0
    5.3710   10.8740    1.6460 O   0  0  0  0  0  0  0  0  0  0  0  0
    4.8910   11.4860    1.0670 H   0  0  0  0  0  0  0  0  0  0  0  0
  2  1  1  0  0  0  0
  3  2  1  0  0  0  0
  4  3  2  0  0  0  0
  5  4  1  0  0  0  0
  5 10  2  0  0  0  0
  6  5  1  0  0  0  0
  7  6  2  0  0  0  0
  7  8  1  0  0  0  0
  8  9  2  0  0  0  0
  9 10  1  0  0  0  0
 10  2  1  0  0  0  0
 11 12  1  0  0  0  0
 11  6  1  0  0  0  0
 13 11  1  0  0  0  0
 14  1  1  1  0  0  0
 14 15  1  0  0  0  0
 14 17  1  0  0  0  0
 16 15  1  0  0  0  0
 18 19  1  0  0  0  0
 18 17  1  0  0  0  0
 21 18  1  0  0  0  0
 21 20  1  0  0  0  0
 22 18  1  0  0  0  0
 23 22  1  0  0  0  0
 23 24  1  0  0  0  0
 25 24  1  0  0  0  0
M  END
>  <MODEL>
1

>  <REMARK>
 VINA RESULT:      -6.0      0.000      0.000
  Name = ZINC05499507
                            x       y       z     vdW  Elec       q    Type
                         _______ _______ _______ _____ _____    ______ ____

>  <TORSDO>
F 10

>  <vina_score>
-6.0

$$$$
ZINC05258154
 OpenBabel01081722333D

 25 25  0  0  1  0  0  0  0  0999 V2000
    8.2850   11.6390    2.6830 C   0  0  0  0  0  0  0  0  0  0  0  0
    8.7750   13.1570    0.7940 N   0  0  0  0  0  0  0  0  0  0  0  0
    8.1180   13.7880    1.1690 H   0  0  0  0  0  0  0  0  0  0  0  0
    8.9750   11.9630    1.3840 C   0  0  0  0  0  0  0  0  0  0  0  0
    9.7120   11.1480    0.8690 O   0  0  0  0  0  0  0  0  0  0  0  0
    9.3060   12.9760   -4.0910 C   0  0  0  0  0  0  0  0  0  0  0  0
    9.7790   13.4270   -2.7330 C   0  0  0  0  0  0  0  0  0  0  0  0
   10.9310   14.1840   -2.6190 C   0  0  0  0  0  0  0  0  0  0  0  0
   11.3680   14.6010   -1.3750 C   0  0  0  0  0  0  0  0  0  0  0  0
   12.6240   15.4250   -1.2560 C   0  0  0  0  0  0  0  0  0  0  0  0
   10.6550   14.2620   -0.2420 C   0  0  0  0  0  0  0  0  0  0  0  0
    9.4980   13.5020   -0.3530 C   0  0  0  0  0  0  0  0  0  0  0  0
    9.0650   13.0810   -1.6030 C   0  0  0  0  0  0  0  0  0  0  0  0
    9.2760   11.7860    3.8400 C   0  0  2  0  0  0  0  0  0  0  0  0
   10.6510   11.7720    3.3030 N   0  0  0  0  0  0  0  0  0  0  0  0
   11.1920   11.0590    3.7930 H   0  0  0  0  0  0  0  0  0  0  0  0
   10.6200   11.5620    2.3050 H   0  0  0  0  0  0  0  0  0  0  0  0
   11.2930   13.0840    3.5050 C   0  0  0  0  0  0  0  0  0  0  0  0
   12.5990   13.1310    2.7110 C   0  0  1  0  0  0  0  0  0  0  0  0
   13.7810   12.9060    3.6570 C   0  0  0  0  0  0  0  0  0  0  0  0
   12.5870   12.1090    1.7130 O   0  0  0  0  0  0  0  0  0  0  0  0
   11.7050   11.7070    1.6720 H   0  0  0  0  0  0  0  0  0  0  0  0
    9.1010   10.6390    4.8010 C   0  0  0  0  0  0  0  0  0  0  0  0
   10.1600   10.1540    5.4680 O   0  0  0  0  0  0  0  0  0  0  0  0
    8.0060   10.1540    4.9710 O   0  0  0  0  0  0  0  0  0  0  0  0
  2  3  1  0  0  0  0
  2  4  1  0  0  0  0
  4  1  1  0  0  0  0
  5  4  2  0  0  0  0
  6  7  1  0  0  0  0
  7  8  2  0  0  0  0
  7 13  1  0  0  0  0
  8  9  1  0  0  0  0
  9 10  1  0  0  0  0
  9 11  2  0  0  0  0
 12 11  1  0  0  0  0
 12  2  1  0  0  0  0
 13 12  2  0  0  0  0
 14  1  1  6  0  0  0
 14 23  1  0  0  0  0
 15 18  1  0  0  0  0
 15 16  1  0  0  0  0
 15 14  1  0  0  0  0
 17 15  1  0  0  0  0
 19 21  1  6  0  0  0
 19 18  1  0  0  0  0
 19 20  1  0  0  0  0
 22 21  1  0  0  0  0
 23 25  2  0  0  0  0
 23 24  1  0  0  0  0
M  END
>  <MODEL>
1

>  <REMARK>
 VINA RESULT:      -6.0      0.000      0.000
  Name = ZINC05258154
                            x       y       z     vdW  Elec       q    Type
                         _______ _______ _______ _____ _____    ______ ____

>  <TORSDO>
F 8

>  <vina_score>
-6.0

$$$$
ZINC05266223
 OpenBabel01081722363D

 26 27  0  0  0  0  0  0  0  0999 V2000
   12.6320   12.2530    3.3640 N   0  0  0  0  0  0  0  0  0  0  0  0
   12.8170   13.0410    2.2530 C   0  0  0  0  0  0  0  0  0  0  0  0
   11.6660   13.1320    1.5620 C   0  0  0  0  0  0  0  0  0  0  0  0
   10.6680   12.3330    2.2830 C   0  0  0  0  0  0  0  0  0  0  0  0
    9.3210   12.0420    2.0680 C   0  0  0  0  0  0  0  0  0  0  0  0
    8.6480   11.2470    2.9520 C   0  0  0  0  0  0  0  0  0  0  0  0
    9.2950   10.7250    4.0640 C   0  0  0  0  0  0  0  0  0  0  0  0
   10.6260   10.9990    4.2960 C   0  0  0  0  0  0  0  0  0  0  0  0
   11.3290   11.8060    3.4080 C   0  0  0  0  0  0  0  0  0  0  0  0
   11.4580   13.8550    0.3720 N   0  0  0  0  0  0  0  0  0  0  0  0
   11.4650   14.8400    0.3850 H   0  0  0  0  0  0  0  0  0  0  0  0
   11.2480   13.1990   -0.7870 C   0  0  0  0  0  0  0  0  0  0  0  0
   11.0490   13.8900   -1.9270 N   0  0  0  0  0  0  0  0  0  0  0  0
   11.2390   11.9830   -0.8040 O   0  0  0  0  0  0  0  0  0  0  0  0
   11.0600   15.3560   -1.9050 C   0  0  0  0  0  0  0  0  0  0  0  0
   10.2290   15.8530   -0.7210 C   0  0  0  0  0  0  0  0  0  0  0  0
    8.8460   15.5800   -0.9590 O   0  0  0  0  0  0  0  0  0  0  0  0
    8.7550   15.0640   -1.7750 H   0  0  0  0  0  0  0  0  0  0  0  0
   10.8210   13.1770   -3.1860 C   0  0  0  0  0  0  0  0  0  0  0  0
    9.3210   13.1280   -3.4790 C   0  0  0  0  0  0  0  0  0  0  0  0
    9.0740   12.2160   -4.5520 O   0  0  0  0  0  0  0  0  0  0  0  0
    8.1180   12.0970   -4.6610 H   0  0  0  0  0  0  0  0  0  0  0  0
   13.6640   11.9350    4.3520 C   0  0  0  0  0  0  0  0  0  0  0  0
   14.0760   10.4690    4.2060 C   0  0  0  0  0  0  0  0  0  0  0  0
   15.7320   11.3000    5.7260 C   0  0  0  0  0  0  0  0  0  0  0  0
   15.0740   10.1550    5.1800 O   0  0  0  0  0  0  0  0  0  0  0  0
  1  9  1  0  0  0  0
  1 23  1  0  0  0  0
  2  1  1  0  0  0  0
  3  2  2  0  0  0  0
  3  4  1  0  0  0  0
  4  9  1  0  0  0  0
  5  4  2  0  0  0  0
  5  6  1  0  0  0  0
  6  7  2  0  0  0  0
  7  8  1  0  0  0  0
  9  8  2  0  0  0  0
 10 11  1  0  0  0  0
 10  3  1  0  0  0  0
 12 10  1  0  0  0  0
 13 15  1  0  0  0  0
 13 12  1  0  0  0  0
 14 12  2  0  0  0  0
 15 16  1  0  0  0  0
 17 16  1  0  0  0  0
 18 17  1  0  0  0  0
 19 13  1  0  0  0  0
 20 19  1  0  0  0  0
 21 20  1  0  0  0  0
 22 21  1  0  0  0  0
 24 23  1  0  0  0  0
 24 26  1  0  0  0  0
 26 25  1  0  0  0  0
M  END
>  <MODEL>
1

>  <REMARK>
 VINA RESULT:      -6.0      0.000      0.000
  Name = ZINC05266223
                            x       y       z     vdW  Elec       q    Type
                         _______ _______ _______ _____ _____    ______ ____

>  <TORSDO>
F 10

>  <vina_score>
-6.0

$$$$
ZINC06382443
 OpenBabel01081722393D

 22 23  0  0  1  0  0  0  0  0999 V2000
    9.5860   15.5080    1.8450 C   0  0  0  0  0  0  0  0  0  0  0  0
    9.3860   15.5420    0.3940 N   0  0  0  0  0  0  0  0  0  0  0  0
    8.6240   16.0380    0.0150 H   0  0  0  0  0  0  0  0  0  0  0  0
   10.2420   14.8940   -0.4200 C   0  0  0  0  0  0  0  0  0  0  0  0
   11.4160   15.4120   -0.7350 N   0  0  0  0  0  0  0  0  0  0  0  0
   12.2740   14.8500   -1.5780 C   0  0  0  0  0  0  0  0  0  0  0  0
   11.9160   13.8930   -2.4270 N   0  0  0  0  0  0  0  0  0  0  0  0
   10.6540   13.4780   -2.3320 C   0  0  0  0  0  0  0  0  0  0  0  0
    9.7460   13.1340   -3.2180 N   0  0  0  0  0  0  0  0  0  0  0  0
    8.5140   13.1450   -2.6930 C   0  0  0  0  0  0  0  0  0  0  0  0
    8.4990   13.4190   -1.4190 N   0  0  0  0  0  0  0  0  0  0  0  0
    9.8950   13.5550   -1.0130 C   0  0  2  0  0  0  0  0  0  0  0  0
    9.1250   14.1560    2.3920 C   0  0  2  0  0  0  0  0  0  0  0  0
    7.9520   14.3400    3.1880 O   0  0  0  0  0  0  0  0  0  0  0  0
    7.7100   13.4980    3.6070 H   0  0  0  0  0  0  0  0  0  0  0  0
   10.2350   13.5480    3.2530 C   0  0  0  0  0  0  0  0  0  0  0  0
   10.9270   12.5060    2.4660 N   0  0  0  0  0  0  0  0  0  0  0  0
   10.3910   12.3180    1.6200 H   0  0  0  0  0  0  0  0  0  0  0  0
   13.1660   12.9740    3.3320 C   0  0  0  0  0  0  0  0  0  0  0  0
   12.2760   12.9740    2.0860 C   0  0  0  0  0  0  0  0  0  0  0  0
   11.0290   11.2600    3.2570 C   0  0  0  0  0  0  0  0  0  0  0  0
    9.9290   11.2070    4.3180 C   0  0  0  0  0  0  0  0  0  0  0  0
  2  1  1  0  0  0  0
  3  2  1  0  0  0  0
  4  2  1  0  0  0  0
  5  4  2  0  0  0  0
  6  5  1  0  0  0  0
  7  8  1  0  0  0  0
  7  6  2  0  0  0  0
  9 10  1  0  0  0  0
  9  8  2  0  0  0  0
 10 11  2  0  0  0  0
 11 12  1  0  0  0  0
 12  8  1  6  0  0  0
 12  4  1  0  0  0  0
 13  1  1  1  0  0  0
 13 14  1  0  0  0  0
 13 16  1  0  0  0  0
 14 15  1  0  0  0  0
 17 16  1  0  0  0  0
 17 21  1  0  0  0  0
 18 17  1  0  0  0  0
 20 17  1  0  0  0  0
 20 19  1  0  0  0  0
 21 22  1  0  0  0  0
M  END
>  <MODEL>
1

>  <REMARK>
 VINA RESULT:      -6.0      0.000      0.000
  Name = ZINC06382443
                            x       y       z     vdW  Elec       q    Type
                         _______ _______ _______ _____ _____    ______ ____

>  <TORSDO>
F 8

>  <vina_score>
-6.0

$$$$
ZINC01843099
 OpenBabel01081722413D

 31 33  0  0  1  0  0  0  0  0999 V2000
    7.7430   11.4460    1.2230 C   0  0  0  0  0  0  0  0  0  0  0  0
    8.9470   10.9240    1.0860 N   0  0  0  0  0  0  0  0  0  0  0  0
   10.0170   11.5380    1.6160 C   0  0  0  0  0  0  0  0  0  0  0  0
   11.3070   11.0060    1.4930 C   0  0  0  0  0  0  0  0  0  0  0  0
   12.3730   11.6770    2.0510 C   0  0  0  0  0  0  0  0  0  0  0  0
   12.1790   12.8790    2.7450 C   0  0  0  0  0  0  0  0  0  0  0  0
   10.9300   13.4120    2.8810 C   0  0  0  0  0  0  0  0  0  0  0  0
    9.8290   12.7530    2.3190 C   0  0  0  0  0  0  0  0  0  0  0  0
    8.5130   13.2650    2.4330 C   0  0  0  0  0  0  0  0  0  0  0  0
    7.5220   12.5840    1.8750 N   0  0  0  0  0  0  0  0  0  0  0  0
    8.2700   14.4440    3.1070 N   0  0  0  0  0  0  0  0  0  0  0  0
    8.9290   14.7890    3.7500 H   0  0  0  0  0  0  0  0  0  0  0  0
    7.4350   14.9400    2.9430 H   0  0  0  0  0  0  0  0  0  0  0  0
    5.6570   10.1640    1.5260 C   0  0  0  0  0  0  0  0  0  0  0  0
    6.6650   10.7840    0.6630 N   0  0  0  0  0  0  0  0  0  0  0  0
    6.5310   10.7030   -0.7950 C   0  0  0  0  0  0  0  0  0  0  0  0
    6.6290   12.1070   -1.3950 C   0  0  0  0  0  0  0  0  0  0  0  0
    7.6560   12.1050   -2.5290 C   0  0  0  0  0  0  0  0  0  0  0  0
    8.8520   12.8390   -2.1040 N   0  0  0  0  0  0  0  0  0  0  0  0
    8.9760   13.0710   -1.1560 H   0  0  0  0  0  0  0  0  0  0  0  0
    9.7810   13.1960   -3.0120 C   0  0  0  0  0  0  0  0  0  0  0  0
    9.6290   12.9090   -4.1810 O   0  0  0  0  0  0  0  0  0  0  0  0
   11.0110   13.9500   -2.5760 C   0  0  1  0  0  0  0  0  0  0  0  0
   10.6040   15.1680   -1.7260 C   0  0  0  0  0  0  0  0  0  0  0  0
   11.3240   14.9450   -0.3740 C   0  0  0  0  0  0  0  0  0  0  0  0
   12.4560   13.9620   -0.7670 C   0  0  0  0  0  0  0  0  0  0  0  0
   11.8330   13.1090   -1.7520 O   0  0  0  0  0  0  0  0  0  0  0  0
   13.6260   11.1650    1.9290 O   0  0  0  0  0  0  0  0  0  0  0  0
   14.0070   10.1540    2.8640 C   0  0  0  0  0  0  0  0  0  0  0  0
   13.2470   13.5200    3.2910 O   0  0  0  0  0  0  0  0  0  0  0  0
   13.8810   12.8910    4.4060 C   0  0  0  0  0  0  0  0  0  0  0  0
  1 10  1  0  0  0  0
  2  1  2  0  0  0  0
  2  3  1  0  0  0  0
  3  8  1  0  0  0  0
  4  3  2  0  0  0  0
  4  5  1  0  0  0  0
  5  6  2  0  0  0  0
  6  7  1  0  0  0  0
  6 30  1  0  0  0  0
  8  9  1  0  0  0  0
  8  7  2  0  0  0  0
  9 11  1  0  0  0  0
 10  9  2  0  0  0  0
 11 12  1  0  0  0  0
 13 11  1  0  0  0  0
 15  1  1  0  0  0  0
 15 14  1  0  0  0  0
 16 15  1  0  0  0  0
 17 16  1  0  0  0  0
 18 19  1  0  0  0  0
 18 17  1  0  0  0  0
 19 20  1  0  0  0  0
 21 19  1  0  0  0  0
 22 21  2  0  0  0  0
 23 21  1  1  0  0  0
 23 27  1  0  0  0  0
 23 24  1  0  0  0  0
 24 25  1  0  0  0  0
 26 25  1  0  0  0  0
 27 26  1  0  0  0  0
 28  5  1  0  0  0  0
 28 29  1  0  0  0  0
 30 31  1  0  0  0  0
M  END
>  <MODEL>
1

>  <REMARK>
 VINA RESULT:      -6.0      0.000      0.000
  Name = ZINC01843099
                            x       y       z     vdW  Elec       q    Type
                         _______ _______ _______ _____ _____    ______ ____

>  <TORSDO>
F 9

>  <vina_score>
-6.0

$$$$
ZINC00531613
 OpenBabel01081722433D

 25 26  0  0  0  0  0  0  0  0999 V2000
   10.3630   13.4180    0.7330 C   0  0  0  0  0  0  0  0  0  0  0  0
   10.4800   14.7200    0.6080 N   0  0  0  0  0  0  0  0  0  0  0  0
    9.7010   15.1430   -0.3220 N   0  0  0  0  0  0  0  0  0  0  0  0
    9.0440   14.1360   -0.8530 C   0  0  0  0  0  0  0  0  0  0  0  0
    9.4370   13.0050   -0.1960 N   0  0  0  0  0  0  0  0  0  0  0  0
   12.4590   10.9470    3.4870 C   0  0  0  0  0  0  0  0  0  0  0  0
   13.1630   11.7520    2.6030 C   0  0  0  0  0  0  0  0  0  0  0  0
   12.4860   12.5550    1.7080 C   0  0  0  0  0  0  0  0  0  0  0  0
   11.0900   12.5580    1.6910 C   0  0  0  0  0  0  0  0  0  0  0  0
   10.3820   11.7520    2.5850 C   0  0  0  0  0  0  0  0  0  0  0  0
   11.0670   10.9450    3.4740 C   0  0  0  0  0  0  0  0  0  0  0  0
   14.5340   10.3900    4.5070 C   0  0  0  0  0  0  0  0  0  0  0  0
   13.1310   10.1580    4.3670 O   0  0  0  0  0  0  0  0  0  0  0  0
   10.3800   10.1540    4.3420 O   0  0  0  0  0  0  0  0  0  0  0  0
    8.9710   10.3720    4.4420 C   0  0  0  0  0  0  0  0  0  0  0  0
    9.0060   11.7280   -0.4210 N   0  0  0  0  0  0  0  0  0  0  0  0
    9.6180   10.9690   -0.2750 H   0  0  0  0  0  0  0  0  0  0  0  0
    8.0860   11.5650   -0.7290 H   0  0  0  0  0  0  0  0  0  0  0  0
    7.8710   14.2300   -2.1640 S   0  0  0  0  0  0  0  0  0  0  0  0
    8.9810   14.5350   -3.5600 C   0  0  0  0  0  0  0  0  0  0  0  0
    9.7060   13.2630   -3.9130 C   0  0  0  0  0  0  0  0  0  0  0  0
   11.0130   13.1270   -3.6130 N   0  0  0  0  0  0  0  0  0  0  0  0
   11.4870   12.2940   -3.8440 H   0  0  0  0  0  0  0  0  0  0  0  0
   11.4940   13.8590   -3.1650 H   0  0  0  0  0  0  0  0  0  0  0  0
    9.1130   12.3590   -4.4650 O   0  0  0  0  0  0  0  0  0  0  0  0
  1  9  1  0  0  0  0
  2  1  2  0  0  0  0
  3  2  1  0  0  0  0
  4  3  2  0  0  0  0
  4  5  1  0  0  0  0
  5  1  1  0  0  0  0
  6 13  1  0  0  0  0
  7  6  2  0  0  0  0
  8  7  1  0  0  0  0
  9  8  2  0  0  0  0
  9 10  1  0  0  0  0
 10 11  2  0  0  0  0
 11  6  1  0  0  0  0
 11 14  1  0  0  0  0
 13 12  1  0  0  0  0
 14 15  1  0  0  0  0
 16 17  1  0  0  0  0
 16  5  1  0  0  0  0
 18 16  1  0  0  0  0
 19  4  1  0  0  0  0
 20 19  1  0  0  0  0
 21 22  1  0  0  0  0
 21 20  1  0  0  0  0
 22 24  1  0  0  0  0
 23 22  1  0  0  0  0
 25 21  2  0  0  0  0
M  END
>  <MODEL>
1

>  <REMARK>
 VINA RESULT:      -5.9      0.000      0.000
  Name = ZINC00531613
                            x       y       z     vdW  Elec       q    Type
                         _______ _______ _______ _____ _____    ______ ____

>  <TORSDO>
F 7

>  <vina_score>
-5.9

$$$$
ZINC23644902
 OpenBabel01081722543D

 30 31  0  0  0  0  0  0  0  0999 V2000
   10.4330   14.4210   -0.8530 N   0  0  0  0  0  0  0  0  0  0  0  0
   10.2540   13.5520    0.1990 C   0  0  0  0  0  0  0  0  0  0  0  0
   10.0010   14.0600    1.4560 C   0  0  0  0  0  0  0  0  0  0  0  0
    9.9280   15.4550    1.6240 C   0  0  0  0  0  0  0  0  0  0  0  0
   10.1150   16.2630    0.5610 N   0  0  0  0  0  0  0  0  0  0  0  0
   10.0720   17.2390    0.6790 H   0  0  0  0  0  0  0  0  0  0  0  0
    9.7010   15.9300    2.7230 O   0  0  0  0  0  0  0  0  0  0  0  0
   10.3600   15.7500   -0.6570 C   0  0  0  0  0  0  0  0  0  0  0  0
   10.5210   16.5010   -1.6000 O   0  0  0  0  0  0  0  0  0  0  0  0
   10.3270   12.1940   -0.0010 N   0  0  0  0  0  0  0  0  0  0  0  0
    9.5060   11.6730   -0.1490 H   0  0  0  0  0  0  0  0  0  0  0  0
   11.2020   11.7420    0.0040 H   0  0  0  0  0  0  0  0  0  0  0  0
    9.8130   13.1950    2.5560 N   0  0  0  0  0  0  0  0  0  0  0  0
    8.5770   12.7460    2.8570 C   0  0  0  0  0  0  0  0  0  0  0  0
    7.6390   13.0180    2.1360 O   0  0  0  0  0  0  0  0  0  0  0  0
    8.3600   11.9050    4.0890 C   0  0  0  0  0  0  0  0  0  0  0  0
    8.3420   10.1540    3.6290 S   0  0  0  0  0  0  0  0  0  0  0  0
    7.2350   10.2090    2.2590 C   0  0  0  0  0  0  0  0  0  0  0  0
    5.9100   10.2750    2.2350 N   0  0  0  0  0  0  0  0  0  0  0  0
    5.2670   10.3060    1.1510 N   0  0  0  0  0  0  0  0  0  0  0  0
    5.8660   10.2770   -0.0230 C   0  0  0  0  0  0  0  0  0  0  0  0
    7.5750   10.2000    0.5020 S   0  0  0  0  0  0  0  0  0  0  0  0
   10.9600   12.7840    3.3680 C   0  0  0  0  0  0  0  0  0  0  0  0
   11.5960   11.5340    2.7560 C   0  0  0  0  0  0  0  0  0  0  0  0
   12.7570   11.9060    2.0110 O   0  0  0  0  0  0  0  0  0  0  0  0
   13.3150   13.1650    2.3910 C   0  0  0  0  0  0  0  0  0  0  0  0
   10.7020   13.8950   -2.1930 C   0  0  0  0  0  0  0  0  0  0  0  0
    8.2850   14.2870   -2.6950 C   0  0  0  0  0  0  0  0  0  0  0  0
    9.4260   13.2690   -2.7620 C   0  0  0  0  0  0  0  0  0  0  0  0
    9.6620   12.8620   -4.2170 C   0  0  0  0  0  0  0  0  0  0  0  0
  1  8  1  0  0  0  0
  1  2  1  0  0  0  0
  2  3  2  0  0  0  0
  3  4  1  0  0  0  0
  3 13  1  0  0  0  0
  4  7  2  0  0  0  0
  5  6  1  0  0  0  0
  5  4  1  0  0  0  0
  8  5  1  0  0  0  0
  9  8  2  0  0  0  0
 10 12  1  0  0  0  0
 10  2  1  0  0  0  0
 11 10  1  0  0  0  0
 13 14  1  0  0  0  0
 13 23  1  0  0  0  0
 14 16  1  0  0  0  0
 15 14  2  0  0  0  0
 17 16  1  0  0  0  0
 18 17  1  0  0  0  0
 19 18  2  0  0  0  0
 20 19  1  0  0  0  0
 21 22  1  0  0  0  0
 21 20  2  0  0  0  0
 22 18  1  0  0  0  0
 24 23  1  0  0  0  0
 25 26  1  0  0  0  0
 25 24  1  0  0  0  0
 27  1  1  0  0  0  0
 29 28  1  0  0  0  0
 29 27  1  0  0  0  0
 30 29  1  0  0  0  0
M  END
>  <MODEL>
1

>  <REMARK>
 VINA RESULT:      -5.9      0.000      0.000
  Name = ZINC23644902
                            x       y       z     vdW  Elec       q    Type
                         _______ _______ _______ _____ _____    ______ ____

>  <TORSDO>
F 10

>  <vina_score>
-5.9

$$$$
ZINC20423296
 OpenBabel01081722543D

 21 21  0  0  1  0  0  0  0  0999 V2000
    9.8400   13.6680   -0.1500 C   0  0  1  0  0  0  0  0  0  0  0  0
   11.1210   13.2510    3.3810 C   0  0  0  0  0  0  0  0  0  0  0  0
   10.0110   12.7140    4.0180 C   0  0  0  0  0  0  0  0  0  0  0  0
    8.8500   12.4860    3.3060 C   0  0  0  0  0  0  0  0  0  0  0  0
    8.7920   12.7960    1.9550 C   0  0  0  0  0  0  0  0  0  0  0  0
    9.9010   13.3330    1.3190 C   0  0  0  0  0  0  0  0  0  0  0  0
   11.0650   13.5560    2.0300 C   0  0  0  0  0  0  0  0  0  0  0  0
   13.4190   12.7270    3.6960 C   0  0  0  0  0  0  0  0  0  0  0  0
   12.2650   13.4750    4.0820 O   0  0  0  0  0  0  0  0  0  0  0  0
    7.6490   12.5720    1.2550 O   0  0  0  0  0  0  0  0  0  0  0  0
    7.2050   11.2180    1.1530 C   0  0  0  0  0  0  0  0  0  0  0  0
    8.9810   14.8430   -0.3470 N   0  0  0  0  0  0  0  0  0  0  0  0
    8.9720   15.0940   -1.3370 H   0  0  0  0  0  0  0  0  0  0  0  0
    8.0330   14.6280   -0.0420 H   0  0  0  0  0  0  0  0  0  0  0  0
    9.3450   15.6250    0.1980 H   0  0  0  0  0  0  0  0  0  0  0  0
   11.2480   13.9710   -0.6630 C   0  0  0  0  0  0  0  0  0  0  0  0
   11.1800   14.3530   -2.1430 C   0  0  0  0  0  0  0  0  0  0  0  0
   10.8590   13.1100   -2.9760 C   0  0  0  0  0  0  0  0  0  0  0  0
    9.5460   13.3100   -3.6900 C   0  0  0  0  0  0  0  0  0  0  0  0
    8.7890   14.3820   -3.4110 O   0  0  0  0  0  0  0  0  0  0  0  0
    9.1760   12.5050   -4.5110 O   0  0  0  0  0  0  0  0  0  0  0  0
  1 16  1  1  0  0  0
  1  6  1  0  0  0  0
  2  3  1  0  0  0  0
  2  9  1  0  0  0  0
  4  3  2  0  0  0  0
  5  4  1  0  0  0  0
  6  5  2  0  0  0  0
  6  7  1  0  0  0  0
  7  2  2  0  0  0  0
  8  9  1  0  0  0  0
 10  5  1  0  0  0  0
 11 10  1  0  0  0  0
 12  1  1  0  0  0  0
 12 14  1  0  0  0  0
 12 15  1  0  0  0  0
 13 12  1  0  0  0  0
 17 16  1  0  0  0  0
 18 17  1  0  0  0  0
 19 20  1  0  0  0  0
 19 18  1  0  0  0  0
 21 19  2  0  0  0  0
M  END
>  <MODEL>
1

>  <REMARK>
 VINA RESULT:      -5.9      0.000      0.000
  Name = ZINC20423296
                            x       y       z     vdW  Elec       q    Type
                         _______ _______ _______ _____ _____    ______ ____

>  <TORSDO>
F 8

>  <vina_score>
-5.9

$$$$
ZINC31599770
 OpenBabel01081722563D

 21 21  0  0  0  0  0  0  0  0999 V2000
   11.3200   12.3200    3.2160 N   0  0  0  0  0  0  0  0  0  0  0  0
   11.5000   11.3850    3.4690 H   0  0  0  0  0  0  0  0  0  0  0  0
   10.1910   12.8680    3.5260 C   0  0  0  0  0  0  0  0  0  0  0  0
    9.9920   14.2030    3.2930 N   0  0  0  0  0  0  0  0  0  0  0  0
    9.4230   14.4930    2.5430 H   0  0  0  0  0  0  0  0  0  0  0  0
   10.4170   14.8730    3.8750 H   0  0  0  0  0  0  0  0  0  0  0  0
   12.3330   13.0880    2.4870 C   0  0  0  0  0  0  0  0  0  0  0  0
   12.2910   12.7110    1.0050 C   0  0  0  0  0  0  0  0  0  0  0  0
   11.9350   14.1890    0.0150 S   0  0  0  0  0  0  0  0  0  0  0  0
    8.8540   14.1430   -3.3960 C   0  0  0  0  0  0  0  0  0  0  0  0
    9.9810   13.1100   -3.4420 C   0  0  0  0  0  0  0  0  0  0  0  0
   11.1160   13.5510   -2.5160 C   0  0  0  0  0  0  0  0  0  0  0  0
   10.5890   13.6660   -1.0840 C   0  0  0  0  0  0  0  0  0  0  0  0
    9.4620   14.6990   -1.0370 C   0  0  0  0  0  0  0  0  0  0  0  0
    8.3280   14.2590   -1.9640 C   0  0  0  0  0  0  0  0  0  0  0  0
    9.0940   12.0380    4.1430 C   0  0  0  0  0  0  0  0  0  0  0  0
    8.7220   10.6280    3.0630 S   0  0  0  0  0  0  0  0  0  0  0  0
    7.6460   11.4520    1.5250 S   0  0  0  0  0  0  0  0  0  0  0  0
    7.6320   12.9580    1.7420 O   0  0  0  0  0  0  0  0  0  0  0  0
    6.3060   11.0060    1.6820 O   0  0  0  0  0  0  0  0  0  0  0  0
    8.3920   11.2200    0.3370 O   0  0  0  0  0  0  0  0  0  0  0  0
  1  2  1  0  0  0  0
  1  3  1  0  0  0  0
  3 16  1  0  0  0  0
  4  3  2  0  0  0  0
  4  6  1  0  0  0  0
  5  4  1  0  0  0  0
  7  1  1  0  0  0  0
  8  7  1  0  0  0  0
  9  8  1  0  0  0  0
 10 15  1  0  0  0  0
 11 10  1  0  0  0  0
 11 12  1  0  0  0  0
 12 13  1  0  0  0  0
 13 14  1  0  0  0  0
 13  9  1  0  0  0  0
 15 14  1  0  0  0  0
 17 16  1  0  0  0  0
 18 20  2  0  0  0  0
 18 19  1  0  0  0  0
 18 17  1  0  0  0  0
 21 18  2  0  0  0  0
M  END
>  <MODEL>
1

>  <REMARK>
 VINA RESULT:      -5.9      0.000      0.000
  Name = ZINC31599770
                            x       y       z     vdW  Elec       q    Type
                         _______ _______ _______ _____ _____    ______ ____

>  <TORSDO>
F 8

>  <vina_score>
-5.9

$$$$
ZINC31561356
 OpenBabel01081722563D

 21 21  0  0  0  0  0  0  0  0999 V2000
    9.3200   15.3920    2.4500 C   0  0  0  0  0  0  0  0  0  0  0  0
    8.3070   14.5160    3.0520 N   0  0  0  0  0  0  0  0  0  0  0  0
    8.3370   14.6320    4.0640 H   0  0  0  0  0  0  0  0  0  0  0  0
    7.3880   14.7710    2.6900 H   0  0  0  0  0  0  0  0  0  0  0  0
    8.5730   13.1060    2.7350 C   0  0  0  0  0  0  0  0  0  0  0  0
    9.2680   12.4380    3.9220 C   0  0  0  0  0  0  0  0  0  0  0  0
   10.3620   11.1230    3.3210 S   0  0  0  0  0  0  0  0  0  0  0  0
   12.2370   12.0820    3.0860 P   0  0  0  0  0  0  0  0  0  0  0  0
   12.5830   12.2060    1.5180 O   0  0  0  0  0  0  0  0  0  0  0  0
   13.3790   11.2160    3.8210 O   0  0  0  0  0  0  0  0  0  0  0  0
   12.1790   13.4340    3.6870 O   0  0  0  0  0  0  0  0  0  0  0  0
    9.9280   14.7020    1.2260 C   0  0  0  0  0  0  0  0  0  0  0  0
    9.9420   15.6750    0.0460 C   0  0  0  0  0  0  0  0  0  0  0  0
   10.6520   12.9820   -3.1430 C   0  0  0  0  0  0  0  0  0  0  0  0
   11.8050   13.9300   -2.8000 C   0  0  0  0  0  0  0  0  0  0  0  0
   11.4720   14.6750   -1.5330 C   0  0  0  0  0  0  0  0  0  0  0  0
   10.2010   14.9360   -1.1930 N   0  0  0  0  0  0  0  0  0  0  0  0
    9.1570   14.5450   -1.9390 C   0  0  0  0  0  0  0  0  0  0  0  0
    8.0320   14.8010   -1.5690 O   0  0  0  0  0  0  0  0  0  0  0  0
   12.3690   15.0430   -0.8070 O   0  0  0  0  0  0  0  0  0  0  0  0
    9.3580   13.7990   -3.2320 C   0  0  0  0  0  0  0  0  0  0  0  0
  1  2  1  0  0  0  0
  2  3  1  0  0  0  0
  4  2  1  0  0  0  0
  5  2  1  0  0  0  0
  5  6  1  0  0  0  0
  7  6  1  0  0  0  0
  8  7  1  0  0  0  0
  8 11  1  0  0  0  0
  8 10  1  0  0  0  0
  9  8  2  0  0  0  0
 12  1  1  0  0  0  0
 13 12  1  0  0  0  0
 14 15  1  0  0  0  0
 15 16  1  0  0  0  0
 16 17  1  0  0  0  0
 16 20  2  0  0  0  0
 17 13  1  0  0  0  0
 18 19  2  0  0  0  0
 18 17  1  0  0  0  0
 21 14  1  0  0  0  0
 21 18  1  0  0  0  0
M  END
>  <MODEL>
1

>  <REMARK>
 VINA RESULT:      -5.9      0.000      0.000
  Name = ZINC31561356
                            x       y       z     vdW  Elec       q    Type
                         _______ _______ _______ _____ _____    ______ ____

>  <TORSDO>
F 8

>  <vina_score>
-5.9

$$$$
ZINC19844186
 OpenBabel01081722573D

 23 24  0  0  0  0  0  0  0  0999 V2000
    8.4890   12.8240    0.4970 N   0  0  0  0  0  0  0  0  0  0  0  0
    9.1740   13.5900    1.5480 C   0  0  0  0  0  0  0  0  0  0  0  0
    8.5560   13.2500    2.9080 C   0  0  0  0  0  0  0  0  0  0  0  0
    8.5850   11.7900    3.0840 N   0  0  0  0  0  0  0  0  0  0  0  0
    8.0400   10.9490    2.0070 C   0  0  0  0  0  0  0  0  0  0  0  0
    8.6790   11.3790    0.6830 C   0  0  0  0  0  0  0  0  0  0  0  0
   10.4520   14.4280   -2.1670 C   0  0  0  0  0  0  0  0  0  0  0  0
    9.7430   14.0250   -3.2910 C   0  0  0  0  0  0  0  0  0  0  0  0
    8.6290   13.2190   -3.1540 C   0  0  0  0  0  0  0  0  0  0  0  0
    8.2100   12.8210   -1.9000 C   0  0  0  0  0  0  0  0  0  0  0  0
    8.9120   13.2260   -0.7710 C   0  0  0  0  0  0  0  0  0  0  0  0
   10.0350   14.0310   -0.9070 C   0  0  0  0  0  0  0  0  0  0  0  0
   12.4670   15.2460   -1.2070 C   0  0  0  0  0  0  0  0  0  0  0  0
   11.5510   15.2160   -2.3030 O   0  0  0  0  0  0  0  0  0  0  0  0
    9.2160   11.1110    4.4560 S   0  0  0  0  0  0  0  0  0  0  0  0
    8.2000   10.2390    4.9290 O   0  0  0  0  0  0  0  0  0  0  0  0
    9.6470   12.2150    5.2400 O   0  0  0  0  0  0  0  0  0  0  0  0
   10.6470   10.1530    3.8870 C   0  0  0  0  0  0  0  0  0  0  0  0
   11.4750   11.0010    2.9190 C   0  0  0  0  0  0  0  0  0  0  0  0
   11.9160   12.2280    3.5950 N   0  0  0  0  0  0  0  0  0  0  0  0
   12.4250   12.8160    2.9350 H   0  0  0  0  0  0  0  0  0  0  0  0
   11.1030   12.7350    3.9440 H   0  0  0  0  0  0  0  0  0  0  0  0
   12.5260   11.9860    4.3750 H   0  0  0  0  0  0  0  0  0  0  0  0
  1  6  1  0  0  0  0
  1  2  1  0  0  0  0
  2  3  1  0  0  0  0
  3  4  1  0  0  0  0
  4 15  1  0  0  0  0
  5  4  1  0  0  0  0
  6  5  1  0  0  0  0
  7 12  2  0  0  0  0
  8  9  2  0  0  0  0
  8  7  1  0  0  0  0
  9 10  1  0  0  0  0
 10 11  2  0  0  0  0
 11  1  1  0  0  0  0
 12 11  1  0  0  0  0
 14  7  1  0  0  0  0
 14 13  1  0  0  0  0
 15 16  2  0  0  0  0
 15 17  2  0  0  0  0
 18 15  1  0  0  0  0
 19 20  1  0  0  0  0
 19 18  1  0  0  0  0
 20 22  1  0  0  0  0
 20 23  1  0  0  0  0
 21 20  1  0  0  0  0
M  END
>  <MODEL>
1

>  <REMARK>
 VINA RESULT:      -5.9      0.000      0.000
  Name = ZINC19844186
                            x       y       z     vdW  Elec       q    Type
                         _______ _______ _______ _____ _____    ______ ____

>  <TORSDO>
F 6

>  <vina_score>
-5.9

$$$$
ZINC06178420
 OpenBabel01081722353D

 27 27  0  0  1  0  0  0  0  0999 V2000
    8.4220   12.4470   -0.1760 C   0  0  0  0  0  0  0  0  0  0  0  0
    7.2430   12.0100   -0.5140 N   0  0  0  0  0  0  0  0  0  0  0  0
    6.8390   12.0520   -1.8550 N   0  0  0  0  0  0  0  0  0  0  0  0
    6.7800   12.9150   -2.3250 H   0  0  0  0  0  0  0  0  0  0  0  0
    6.6140   11.2180   -2.3270 H   0  0  0  0  0  0  0  0  0  0  0  0
    9.8060   11.8390    1.6810 N   0  0  0  0  0  0  0  0  0  0  0  0
    8.7950   12.5270    1.2350 C   0  0  0  0  0  0  0  0  0  0  0  0
    9.1300   12.1000    4.0560 C   0  0  0  0  0  0  0  0  0  0  0  0
   10.1640   11.9170    3.0330 N   0  0  0  0  0  0  0  0  0  0  0  0
   11.5030   11.8190    3.4080 C   0  0  0  0  0  0  0  0  0  0  0  0
   12.2670   12.9680    3.5780 C   0  0  0  0  0  0  0  0  0  0  0  0
   13.5910   12.8660    3.9530 C   0  0  0  0  0  0  0  0  0  0  0  0
   14.1620   11.6220    4.1480 C   0  0  0  0  0  0  0  0  0  0  0  0
   13.4090   10.4760    3.9740 C   0  0  0  0  0  0  0  0  0  0  0  0
   12.0820   10.5690    3.6040 C   0  0  0  0  0  0  0  0  0  0  0  0
    9.4020   12.8690   -1.2400 C   0  0  2  0  0  0  0  0  0  0  0  0
   10.6960   12.3480   -0.9290 O   0  0  0  0  0  0  0  0  0  0  0  0
   11.1580   12.9620   -0.3380 H   0  0  0  0  0  0  0  0  0  0  0  0
    9.4680   14.3970   -1.2970 C   0  0  2  0  0  0  0  0  0  0  0  0
    8.1620   14.9200   -1.5470 O   0  0  0  0  0  0  0  0  0  0  0  0
    8.0360   15.0340   -2.5020 H   0  0  0  0  0  0  0  0  0  0  0  0
   10.4140   14.8250   -2.4200 C   0  0  2  0  0  0  0  0  0  0  0  0
   10.7320   13.6940   -3.2320 O   0  0  0  0  0  0  0  0  0  0  0  0
   11.0260   12.9630   -2.6680 H   0  0  0  0  0  0  0  0  0  0  0  0
   11.6990   15.3950   -1.8140 C   0  0  0  0  0  0  0  0  0  0  0  0
   12.6310   14.3350   -1.5910 O   0  0  0  0  0  0  0  0  0  0  0  0
   13.5160   14.7060   -1.4530 H   0  0  0  0  0  0  0  0  0  0  0  0
  1  7  1  0  0  0  0
  2  1  2  0  0  0  0
  3  2  1  0  0  0  0
  4  3  1  0  0  0  0
  5  3  1  0  0  0  0
  6  9  1  0  0  0  0
  7  6  2  0  0  0  0
  9 10  1  0  0  0  0
  9  8  1  0  0  0  0
 10 11  2  0  0  0  0
 10 15  1  0  0  0  0
 11 12  1  0  0  0  0
 12 13  2  0  0  0  0
 14 13  1  0  0  0  0
 15 14  2  0  0  0  0
 16 17  1  1  0  0  0
 16  1  1  0  0  0  0
 17 18  1  0  0  0  0
 19 20  1  6  0  0  0
 19 16  1  0  0  0  0
 21 20  1  0  0  0  0
 22 23  1  6  0  0  0
 22 25  1  0  0  0  0
 22 19  1  0  0  0  0
 23 24  1  0  0  0  0
 25 26  1  0  0  0  0
 26 27  1  0  0  0  0
M  END
>  <MODEL>
1

>  <REMARK>
 VINA RESULT:      -5.9      0.000      0.000
  Name = ZINC06178420
                            x       y       z     vdW  Elec       q    Type
                         _______ _______ _______ _____ _____    ______ ____

>  <TORSDO>
F 12

>  <vina_score>
-5.9

$$$$
ZINC17669880
 OpenBabel01081722333D

 25 26  0  0  0  0  0  0  0  0999 V2000
    8.5050   12.7710    0.9030 C   0  0  0  0  0  0  0  0  0  0  0  0
    9.0360   13.3160   -0.3980 C   0  0  0  0  0  0  0  0  0  0  0  0
    9.7730   14.4130   -0.4010 N   0  0  0  0  0  0  0  0  0  0  0  0
   10.2470   14.8950   -1.5470 C   0  0  0  0  0  0  0  0  0  0  0  0
    9.9710   14.2770   -2.6900 N   0  0  0  0  0  0  0  0  0  0  0  0
    9.2260   13.1770   -2.6850 C   0  0  0  0  0  0  0  0  0  0  0  0
    8.7590   12.6990   -1.5330 N   0  0  0  0  0  0  0  0  0  0  0  0
   11.0210   16.0380   -1.5490 N   0  0  0  0  0  0  0  0  0  0  0  0
   11.4150   16.3670   -0.7090 H   0  0  0  0  0  0  0  0  0  0  0  0
   11.1780   16.5240   -2.3900 H   0  0  0  0  0  0  0  0  0  0  0  0
    8.9360   12.5320   -3.8690 N   0  0  0  0  0  0  0  0  0  0  0  0
    8.9100   11.5480   -3.9000 H   0  0  0  0  0  0  0  0  0  0  0  0
    8.7530   13.0550   -4.6820 H   0  0  0  0  0  0  0  0  0  0  0  0
    9.2430   11.1500    1.2230 S   0  0  0  0  0  0  0  0  0  0  0  0
   11.7240   13.2710    3.3890 C   0  0  0  0  0  0  0  0  0  0  0  0
   12.7870   12.3890    3.6130 C   0  0  0  0  0  0  0  0  0  0  0  0
   12.7070   11.0920    3.0580 C   0  0  0  0  0  0  0  0  0  0  0  0
   11.6310   10.7650    2.3530 N   0  0  0  0  0  0  0  0  0  0  0  0
   10.6490   11.6350    2.1690 C   0  0  0  0  0  0  0  0  0  0  0  0
   10.6910   12.8630    2.6750 N   0  0  0  0  0  0  0  0  0  0  0  0
   13.7260   10.1830    3.2480 N   0  0  0  0  0  0  0  0  0  0  0  0
   14.0590    9.6510    2.4890 H   0  0  0  0  0  0  0  0  0  0  0  0
   14.1210   10.0650    4.1430 H   0  0  0  0  0  0  0  0  0  0  0  0
   13.9260   12.7900    4.3820 C   0  0  0  0  0  0  0  0  0  0  0  0
   14.8300   13.1090    4.9920 N   0  0  0  0  0  0  0  0  0  0  0  0
  1 14  1  0  0  0  0
  2  1  1  0  0  0  0
  3  2  1  0  0  0  0
  4  3  2  0  0  0  0
  5  6  2  0  0  0  0
  5  4  1  0  0  0  0
  6  7  1  0  0  0  0
  7  2  2  0  0  0  0
  8  4  1  0  0  0  0
  8  9  1  0  0  0  0
 10  8  1  0  0  0  0
 11  6  1  0  0  0  0
 12 11  1  0  0  0  0
 13 11  1  0  0  0  0
 14 19  1  0  0  0  0
 15 16  1  0  0  0  0
 16 24  1  0  0  0  0
 17 21  1  0  0  0  0
 17 16  2  0  0  0  0
 18 17  1  0  0  0  0
 19 18  2  0  0  0  0
 19 20  1  0  0  0  0
 20 15  2  0  0  0  0
 21 23  1  0  0  0  0
 22 21  1  0  0  0  0
 24 25  3  0  0  0  0
M  END
>  <MODEL>
1

>  <REMARK>
 VINA RESULT:      -5.9      0.000      0.000
  Name = ZINC17669880
                            x       y       z     vdW  Elec       q    Type
                         _______ _______ _______ _____ _____    ______ ____

>  <TORSDO>
F 7

>  <vina_score>
-5.9

$$$$
ZINC02861235
 OpenBabel01081722423D

 29 30  0  0  1  0  0  0  0  0999 V2000
    7.5450   11.9990   -0.3360 C   0  0  0  0  0  0  0  0  0  0  0  0
    8.1280   13.3320   -0.0900 N   0  0  0  0  0  0  0  0  0  0  0  0
    7.4010   13.9520    0.2690 H   0  0  0  0  0  0  0  0  0  0  0  0
    8.8830   13.2480    0.5910 H   0  0  0  0  0  0  0  0  0  0  0  0
    8.6630   13.8960   -1.3430 C   0  0  1  0  0  0  0  0  0  0  0  0
   10.1400   14.1510   -1.1790 C   0  0  0  0  0  0  0  0  0  0  0  0
   10.9880   13.1100   -0.8460 C   0  0  0  0  0  0  0  0  0  0  0  0
   12.3420   13.3440   -0.6960 C   0  0  0  0  0  0  0  0  0  0  0  0
   12.8480   14.6160   -0.8800 C   0  0  0  0  0  0  0  0  0  0  0  0
   12.0010   15.6570   -1.2130 C   0  0  0  0  0  0  0  0  0  0  0  0
   10.6470   15.4230   -1.3630 C   0  0  0  0  0  0  0  0  0  0  0  0
    8.4400   12.9050   -2.4860 C   0  0  0  0  0  0  0  0  0  0  0  0
    8.9590   13.4940   -3.7720 C   0  0  0  0  0  0  0  0  0  0  0  0
    8.7150   14.7800   -4.0670 O   0  0  0  0  0  0  0  0  0  0  0  0
    9.5960   12.8090   -4.5360 O   0  0  0  0  0  0  0  0  0  0  0  0
    8.3480   10.9500    0.4350 C   0  0  0  0  0  0  0  0  0  0  0  0
    8.3900   11.3280    1.9170 C   0  0  1  0  0  0  0  0  0  0  0  0
   12.3630   12.4880    2.9810 C   0  0  0  0  0  0  0  0  0  0  0  0
   12.1270   11.2320    2.4410 C   0  0  0  0  0  0  0  0  0  0  0  0
   10.8420   10.8600    2.0980 C   0  0  0  0  0  0  0  0  0  0  0  0
    9.7920   11.7370    2.2930 C   0  0  0  0  0  0  0  0  0  0  0  0
   10.0250   12.9920    2.8260 C   0  0  0  0  0  0  0  0  0  0  0  0
   11.3070   13.3660    3.1750 C   0  0  0  0  0  0  0  0  0  0  0  0
   13.6260   12.8580    3.3190 O   0  0  0  0  0  0  0  0  0  0  0  0
   13.8940   13.0640    4.7070 C   0  0  0  0  0  0  0  0  0  0  0  0
   15.3460   11.1010    5.2380 C   0  0  0  0  0  0  0  0  0  0  0  0
   15.3220   12.6160    5.0230 C   0  0  0  0  0  0  0  0  0  0  0  0
    7.4960   12.4160    2.1570 O   0  0  0  0  0  0  0  0  0  0  0  0
    6.8000   12.4180    1.4820 H   0  0  0  0  0  0  0  0  0  0  0  0
  1  2  1  0  0  0  0
  1 16  1  0  0  0  0
  2  3  1  0  0  0  0
  2  4  1  0  0  0  0
  5 12  1  6  0  0  0
  5  6  1  0  0  0  0
  5  2  1  0  0  0  0
  6  7  2  0  0  0  0
  7  8  1  0  0  0  0
  9  8  2  0  0  0  0
 10  9  1  0  0  0  0
 11 10  2  0  0  0  0
 11  6  1  0  0  0  0
 13 12  1  0  0  0  0
 14 13  1  0  0  0  0
 15 13  2  0  0  0  0
 17 16  1  6  0  0  0
 17 28  1  0  0  0  0
 17 21  1  0  0  0  0
 18 23  1  0  0  0  0
 18 24  1  0  0  0  0
 19 18  2  0  0  0  0
 20 21  2  0  0  0  0
 20 19  1  0  0  0  0
 21 22  1  0  0  0  0
 22 23  2  0  0  0  0
 24 25  1  0  0  0  0
 25 27  1  0  0  0  0
 27 26  1  0  0  0  0
 29 28  1  0  0  0  0
M  END
>  <MODEL>
1

>  <REMARK>
 VINA RESULT:      -5.8      0.000      0.000
  Name = ZINC02861235
                            x       y       z     vdW  Elec       q    Type
                         _______ _______ _______ _____ _____    ______ ____

>  <TORSDO>
F 12

>  <vina_score>
-5.8

$$$$
ZINC29918098
 OpenBabel01081722423D

 22 23  0  0  0  0  0  0  0  0999 V2000
    7.8630   11.6410    1.4320 C   0  0  0  0  0  0  0  0  0  0  0  0
    9.1340   11.2520    1.3690 N   0  0  0  0  0  0  0  0  0  0  0  0
   10.0840   12.0050    1.8950 C   0  0  0  0  0  0  0  0  0  0  0  0
    9.7780   13.1510    2.4760 N   0  0  0  0  0  0  0  0  0  0  0  0
    8.5100   13.5500    2.5380 C   0  0  0  0  0  0  0  0  0  0  0  0
    7.5510   12.7940    2.0150 N   0  0  0  0  0  0  0  0  0  0  0  0
    5.9270   10.1540    1.7630 C   0  0  0  0  0  0  0  0  0  0  0  0
    6.8710   10.8520    0.8870 N   0  0  0  0  0  0  0  0  0  0  0  0
    6.7620   10.7120   -0.5670 C   0  0  0  0  0  0  0  0  0  0  0  0
    8.1910   14.7470    3.1460 N   0  0  0  0  0  0  0  0  0  0  0  0
    8.3380   15.5960    2.6700 H   0  0  0  0  0  0  0  0  0  0  0  0
    7.8150   14.7520    4.0560 H   0  0  0  0  0  0  0  0  0  0  0  0
   11.5220   11.5570    1.8270 C   0  0  0  0  0  0  0  0  0  0  0  0
   12.5950   13.0000    1.6240 S   0  0  0  0  0  0  0  0  0  0  0  0
   12.0880   13.5350    0.0230 C   0  0  0  0  0  0  0  0  0  0  0  0
   12.2280   14.7400   -0.4760 N   0  0  0  0  0  0  0  0  0  0  0  0
   11.7480   14.7640   -1.6690 N   0  0  0  0  0  0  0  0  0  0  0  0
   11.2770   13.5900   -1.9740 C   0  0  0  0  0  0  0  0  0  0  0  0
   11.4830   12.7820   -0.9150 O   0  0  0  0  0  0  0  0  0  0  0  0
   10.6280   13.2020   -3.2770 C   0  0  0  0  0  0  0  0  0  0  0  0
    9.0580   14.0910   -3.4600 S   0  0  0  0  0  0  0  0  0  0  0  0
    8.2310   13.8560   -1.8630 C   0  0  0  0  0  0  0  0  0  0  0  0
  1  6  1  0  0  0  0
  2  1  2  0  0  0  0
  2  3  1  0  0  0  0
  3  4  2  0  0  0  0
  4  5  1  0  0  0  0
  5 10  1  0  0  0  0
  6  5  2  0  0  0  0
  8  1  1  0  0  0  0
  8  7  1  0  0  0  0
  9  8  1  0  0  0  0
 10 12  1  0  0  0  0
 11 10  1  0  0  0  0
 13  3  1  0  0  0  0
 14 13  1  0  0  0  0
 15 14  1  0  0  0  0
 16 15  2  0  0  0  0
 17 16  1  0  0  0  0
 18 17  2  0  0  0  0
 18 19  1  0  0  0  0
 19 15  1  0  0  0  0
 20 18  1  0  0  0  0
 21 20  1  0  0  0  0
 21 22  1  0  0  0  0
M  END
>  <MODEL>
1

>  <REMARK>
 VINA RESULT:      -5.8      0.000      0.000
  Name = ZINC29918098
                            x       y       z     vdW  Elec       q    Type
                         _______ _______ _______ _____ _____    ______ ____

>  <TORSDO>
F 7

>  <vina_score>
-5.8

$$$$
ZINC22150898
 OpenBabel01081722443D

 23 24  0  0  0  0  0  0  0  0999 V2000
    8.9940   13.5170    1.9420 C   0  0  0  0  0  0  0  0  0  0  0  0
    8.2020   13.0450    0.9430 N   0  0  0  0  0  0  0  0  0  0  0  0
    8.9100   13.2060   -0.2400 C   0  0  0  0  0  0  0  0  0  0  0  0
   10.1270   13.7810    0.1080 C   0  0  0  0  0  0  0  0  0  0  0  0
   11.0460   14.0570   -0.8920 N   0  0  0  0  0  0  0  0  0  0  0  0
   12.3360   14.6630   -0.5540 C   0  0  0  0  0  0  0  0  0  0  0  0
   10.7560   13.7640   -2.1730 C   0  0  0  0  0  0  0  0  0  0  0  0
    9.5800   13.2120   -2.5200 N   0  0  0  0  0  0  0  0  0  0  0  0
    9.3100   12.9170   -3.9300 C   0  0  0  0  0  0  0  0  0  0  0  0
   11.5750   14.0080   -3.0380 O   0  0  0  0  0  0  0  0  0  0  0  0
    8.6470   12.9210   -1.5910 C   0  0  0  0  0  0  0  0  0  0  0  0
    7.5870   12.4160   -1.9190 O   0  0  0  0  0  0  0  0  0  0  0  0
   10.1290   13.9490    1.4320 N   0  0  0  0  0  0  0  0  0  0  0  0
    8.6620   13.5390    3.2780 N   0  0  0  0  0  0  0  0  0  0  0  0
    8.2030   14.3230    3.6570 H   0  0  0  0  0  0  0  0  0  0  0  0
    8.9910   12.3970    4.1330 C   0  0  0  0  0  0  0  0  0  0  0  0
   10.4920   12.3940    4.4260 C   0  0  0  0  0  0  0  0  0  0  0  0
   11.0910   11.1560    3.9090 N   0  0  0  0  0  0  0  0  0  0  0  0
   11.4410   10.6220    4.7050 H   0  0  0  0  0  0  0  0  0  0  0  0
   10.4940   10.1530    1.7560 C   0  0  0  0  0  0  0  0  0  0  0  0
   10.0870   10.3340    3.2200 C   0  0  0  0  0  0  0  0  0  0  0  0
   12.2280   11.4500    3.0270 C   0  0  0  0  0  0  0  0  0  0  0  0
   12.8820   12.7640    3.4600 C   0  0  0  0  0  0  0  0  0  0  0  0
  1 14  1  0  0  0  0
  2  1  1  0  0  0  0
  3  4  2  0  0  0  0
  3  2  1  0  0  0  0
  4 13  1  0  0  0  0
  5  6  1  0  0  0  0
  5  4  1  0  0  0  0
  7  5  1  0  0  0  0
  8  7  1  0  0  0  0
  8 11  1  0  0  0  0
  9  8  1  0  0  0  0
 10  7  2  0  0  0  0
 11  3  1  0  0  0  0
 12 11  2  0  0  0  0
 13  1  2  0  0  0  0
 14 15  1  0  0  0  0
 14 16  1  0  0  0  0
 16 17  1  0  0  0  0
 18 17  1  0  0  0  0
 18 19  1  0  0  0  0
 20 21  1  0  0  0  0
 21 18  1  0  0  0  0
 22 23  1  0  0  0  0
 22 18  1  0  0  0  0
M  END
>  <MODEL>
1

>  <REMARK>
 VINA RESULT:      -5.8      0.000      0.000
  Name = ZINC22150898
                            x       y       z     vdW  Elec       q    Type
                         _______ _______ _______ _____ _____    ______ ____

>  <TORSDO>
F 6

>  <vina_score>
-5.8

$$$$
ZINC07149658
 OpenBabel01081722473D

 21 21  0  0  0  0  0  0  0  0999 V2000
    9.9900   13.8230   -0.4070 C   0  0  0  0  0  0  0  0  0  0  0  0
    8.7880   13.2900    0.0760 C   0  0  0  0  0  0  0  0  0  0  0  0
    8.8460   12.1500    0.8760 C   0  0  0  0  0  0  0  0  0  0  0  0
   10.1040   11.5910    1.1750 C   0  0  0  0  0  0  0  0  0  0  0  0
   11.2160   12.1330    0.6990 N   0  0  0  0  0  0  0  0  0  0  0  0
   11.1970   13.2040   -0.0630 C   0  0  0  0  0  0  0  0  0  0  0  0
   12.4950   13.7760   -0.5750 C   0  0  0  0  0  0  0  0  0  0  0  0
    9.9840   15.0240   -1.2620 C   0  0  0  0  0  0  0  0  0  0  0  0
    9.8450   16.1230   -0.7640 O   0  0  0  0  0  0  0  0  0  0  0  0
   10.1340   14.9030   -2.5960 O   0  0  0  0  0  0  0  0  0  0  0  0
    9.3370   13.0380   -3.9440 C   0  0  0  0  0  0  0  0  0  0  0  0
    8.9950   14.4030   -3.3450 C   0  0  0  0  0  0  0  0  0  0  0  0
    7.6470   11.5620    1.3910 C   0  0  0  0  0  0  0  0  0  0  0  0
    6.6940   11.0950    1.8000 N   0  0  0  0  0  0  0  0  0  0  0  0
   10.2010   10.1530    2.1910 S   0  0  0  0  0  0  0  0  0  0  0  0
   10.6930   10.9100    3.7590 C   0  0  0  0  0  0  0  0  0  0  0  0
    9.4790   11.4790    4.4450 C   0  0  0  0  0  0  0  0  0  0  0  0
    9.3570   12.8120    4.6020 N   0  0  0  0  0  0  0  0  0  0  0  0
    8.5630   13.1850    5.0500 H   0  0  0  0  0  0  0  0  0  0  0  0
   10.0610   13.4140    4.2690 H   0  0  0  0  0  0  0  0  0  0  0  0
    8.6110   10.7390    4.8550 O   0  0  0  0  0  0  0  0  0  0  0  0
  1  6  2  0  0  0  0
  1  2  1  0  0  0  0
  2  3  2  0  0  0  0
  3  4  1  0  0  0  0
  3 13  1  0  0  0  0
  4 15  1  0  0  0  0
  5  4  2  0  0  0  0
  6  5  1  0  0  0  0
  7  6  1  0  0  0  0
  8  9  2  0  0  0  0
  8  1  1  0  0  0  0
 10  8  1  0  0  0  0
 11 12  1  0  0  0  0
 12 10  1  0  0  0  0
 13 14  3  0  0  0  0
 15 16  1  0  0  0  0
 16 17  1  0  0  0  0
 17 18  1  0  0  0  0
 17 21  2  0  0  0  0
 18 19  1  0  0  0  0
 20 18  1  0  0  0  0
M  END
>  <MODEL>
1

>  <REMARK>
 VINA RESULT:      -5.8      0.000      0.000
  Name = ZINC07149658
                            x       y       z     vdW  Elec       q    Type
                         _______ _______ _______ _____ _____    ______ ____

>  <TORSDO>
F 7

>  <vina_score>
-5.8

$$$$
ZINC19844140
 OpenBabel01081722503D

 25 26  0  0  0  0  0  0  0  0999 V2000
   11.9470   13.5390    1.5120 N   0  0  0  0  0  0  0  0  0  0  0  0
   12.0820   13.1020    0.1160 C   0  0  0  0  0  0  0  0  0  0  0  0
   11.4350   14.1390   -0.8060 C   0  0  0  0  0  0  0  0  0  0  0  0
   10.0210   14.2980   -0.4430 N   0  0  0  0  0  0  0  0  0  0  0  0
    9.5680   13.3890   -0.5340 H   0  0  0  0  0  0  0  0  0  0  0  0
    9.8840   14.7360    0.9530 C   0  0  0  0  0  0  0  0  0  0  0  0
   10.5310   13.6990    1.8760 C   0  0  0  0  0  0  0  0  0  0  0  0
   14.0550   12.2560    4.2380 C   0  0  0  0  0  0  0  0  0  0  0  0
   13.8580   10.8890    4.0970 C   0  0  0  0  0  0  0  0  0  0  0  0
   13.0290   10.4080    3.1020 C   0  0  0  0  0  0  0  0  0  0  0  0
   12.3910   11.2840    2.2470 C   0  0  0  0  0  0  0  0  0  0  0  0
   12.5890   12.6530    2.3790 C   0  0  0  0  0  0  0  0  0  0  0  0
   13.4200   13.1380    3.3790 C   0  0  0  0  0  0  0  0  0  0  0  0
   15.7330   11.7840    5.8540 C   0  0  0  0  0  0  0  0  0  0  0  0
   14.8700   12.7280    5.2180 O   0  0  0  0  0  0  0  0  0  0  0  0
    9.3450   15.2310   -1.3550 C   0  0  0  0  0  0  0  0  0  0  0  0
    8.1480   14.5330   -2.0040 C   0  0  0  0  0  0  0  0  0  0  0  0
    8.4510   13.0410   -2.1630 C   0  0  0  0  0  0  0  0  0  0  0  0
    7.5330   12.2460   -1.2710 C   0  0  0  0  0  0  0  0  0  0  0  0
    7.7970   12.1290   -0.0120 N   0  0  0  0  0  0  0  0  0  0  0  0
    6.4120   11.6440   -1.7980 N   0  0  0  0  0  0  0  0  0  0  0  0
    6.1050   10.7780   -1.4430 H   0  0  0  0  0  0  0  0  0  0  0  0
    5.9180   12.0790   -2.5300 H   0  0  0  0  0  0  0  0  0  0  0  0
    6.9340   11.3810    0.8260 O   0  0  0  0  0  0  0  0  0  0  0  0
    7.2480   11.0480    1.6440 H   0  0  0  0  0  0  0  0  0  0  0  0
  1  7  1  0  0  0  0
  1 12  1  0  0  0  0
  2  1  1  0  0  0  0
  3  4  1  0  0  0  0
  3  2  1  0  0  0  0
  4  6  1  0  0  0  0
  5  4  1  0  0  0  0
  6  7  1  0  0  0  0
  8 15  1  0  0  0  0
  9  8  1  0  0  0  0
 10  9  2  0  0  0  0
 11 12  2  0  0  0  0
 11 10  1  0  0  0  0
 12 13  1  0  0  0  0
 13  8  2  0  0  0  0
 15 14  1  0  0  0  0
 16  4  1  0  0  0  0
 17 16  1  0  0  0  0
 18 17  1  0  0  0  0
 18 19  1  0  0  0  0
 19 20  2  0  0  0  0
 20 24  1  0  0  0  0
 21 22  1  0  0  0  0
 21 19  1  0  0  0  0
 23 21  1  0  0  0  0
 24 25  1  0  0  0  0
M  END
>  <MODEL>
1

>  <REMARK>
 VINA RESULT:      -5.8      0.000      0.000
  Name = ZINC19844140
                            x       y       z     vdW  Elec       q    Type
                         _______ _______ _______ _____ _____    ______ ____

>  <TORSDO>
F 8

>  <vina_score>
-5.8

$$$$
ZINC19483528
 OpenBabel01081722503D

 21 21  0  0  1  0  0  0  0  0999 V2000
   10.6950   14.7780    0.3980 C   0  0  0  0  0  0  0  0  0  0  0  0
    9.0210   12.3010    3.4550 C   0  0  0  0  0  0  0  0  0  0  0  0
   10.2230   12.9570    3.6720 C   0  0  0  0  0  0  0  0  0  0  0  0
   10.7630   13.7530    2.6790 C   0  0  0  0  0  0  0  0  0  0  0  0
   10.1040   13.9050    1.4740 C   0  0  0  0  0  0  0  0  0  0  0  0
    8.9050   13.2520    1.2520 C   0  0  0  0  0  0  0  0  0  0  0  0
    8.3600   12.4480    2.2400 C   0  0  0  0  0  0  0  0  0  0  0  0
    8.9460   10.1610    4.4910 C   0  0  0  0  0  0  0  0  0  0  0  0
    8.4900   11.5140    4.4290 O   0  0  0  0  0  0  0  0  0  0  0  0
    7.1810   11.8070    2.0230 O   0  0  0  0  0  0  0  0  0  0  0  0
    7.1960   10.7160    1.0990 C   0  0  0  0  0  0  0  0  0  0  0  0
   11.5200   13.7400   -0.8400 S   0  0  0  0  0  0  0  0  0  0  0  0
   10.7500   14.2290   -2.4070 C   0  0  0  0  0  0  0  0  0  0  0  0
    9.7760   13.1400   -2.8590 C   0  0  2  0  0  0  0  0  0  0  0  0
    9.7490   13.0860   -4.3260 N   0  0  0  0  0  0  0  0  0  0  0  0
    8.8780   12.6510   -4.6340 H   0  0  0  0  0  0  0  0  0  0  0  0
    9.8060   14.0320   -4.7040 H   0  0  0  0  0  0  0  0  0  0  0  0
   10.5390   12.5370   -4.6610 H   0  0  0  0  0  0  0  0  0  0  0  0
    8.3960   13.4540   -2.3420 C   0  0  0  0  0  0  0  0  0  0  0  0
    7.9310   14.7120   -2.3890 O   0  0  0  0  0  0  0  0  0  0  0  0
    7.7070   12.5710   -1.8860 O   0  0  0  0  0  0  0  0  0  0  0  0
  1  5  1  0  0  0  0
  2  3  1  0  0  0  0
  2  9  1  0  0  0  0
  4  3  2  0  0  0  0
  5  4  1  0  0  0  0
  6  5  2  0  0  0  0
  6  7  1  0  0  0  0
  7  2  2  0  0  0  0
  9  8  1  0  0  0  0
 10  7  1  0  0  0  0
 11 10  1  0  0  0  0
 12  1  1  0  0  0  0
 13 12  1  0  0  0  0
 14 15  1  6  0  0  0
 14 13  1  0  0  0  0
 14 19  1  0  0  0  0
 16 15  1  0  0  0  0
 17 15  1  0  0  0  0
 18 15  1  0  0  0  0
 19 21  1  0  0  0  0
 20 19  2  0  0  0  0
M  END
>  <MODEL>
1

>  <REMARK>
 VINA RESULT:      -5.8      0.000      0.000
  Name = ZINC19483528
                            x       y       z     vdW  Elec       q    Type
                         _______ _______ _______ _____ _____    ______ ____

>  <TORSDO>
F 8

>  <vina_score>
-5.8

$$$$
ZINC20306534
 OpenBabel01081722303D

 21 21  0  0  1  0  0  0  0  0999 V2000
   12.1470   14.6860   -0.4920 C   0  0  0  0  0  0  0  0  0  0  0  0
    9.6630   12.6350    2.3200 C   0  0  0  0  0  0  0  0  0  0  0  0
   10.8040   12.0140    1.8090 C   0  0  0  0  0  0  0  0  0  0  0  0
   11.6010   12.6820    0.9020 C   0  0  0  0  0  0  0  0  0  0  0  0
   11.2710   13.9630    0.4980 C   0  0  0  0  0  0  0  0  0  0  0  0
   10.1450   14.5870    1.0040 C   0  0  0  0  0  0  0  0  0  0  0  0
    9.3360   13.9290    1.9070 C   0  0  0  0  0  0  0  0  0  0  0  0
    8.8050   11.9270    3.2910 C   0  0  0  0  0  0  0  0  0  0  0  0
    8.6870   12.3530    4.4230 O   0  0  0  0  0  0  0  0  0  0  0  0
    7.3370   10.8830    1.7220 C   0  0  0  0  0  0  0  0  0  0  0  0
    8.1520   10.8070    2.9220 O   0  0  0  0  0  0  0  0  0  0  0  0
   11.1900   15.0570   -1.9880 S   0  0  0  0  0  0  0  0  0  0  0  0
   10.7440   13.4240   -2.6400 C   0  0  0  0  0  0  0  0  0  0  0  0
    9.2970   13.4510   -3.1370 C   0  0  1  0  0  0  0  0  0  0  0  0
    9.1280   12.4590   -4.2080 N   0  0  0  0  0  0  0  0  0  0  0  0
    9.9990   12.3720   -4.7300 H   0  0  0  0  0  0  0  0  0  0  0  0
    8.8850   11.5560   -3.7990 H   0  0  0  0  0  0  0  0  0  0  0  0
    8.3820   12.7600   -4.8350 H   0  0  0  0  0  0  0  0  0  0  0  0
    8.3680   13.1220   -1.9970 C   0  0  0  0  0  0  0  0  0  0  0  0
    7.1780   13.7370   -1.9020 O   0  0  0  0  0  0  0  0  0  0  0  0
    8.6960   12.3100   -1.1650 O   0  0  0  0  0  0  0  0  0  0  0  0
  1  5  1  0  0  0  0
  2  8  1  0  0  0  0
  3  2  2  0  0  0  0
  4  3  1  0  0  0  0
  5  4  2  0  0  0  0
  5  6  1  0  0  0  0
  6  7  2  0  0  0  0
  7  2  1  0  0  0  0
  8  9  2  0  0  0  0
 10 11  1  0  0  0  0
 11  8  1  0  0  0  0
 12  1  1  0  0  0  0
 13 12  1  0  0  0  0
 14 15  1  6  0  0  0
 14 13  1  0  0  0  0
 14 19  1  0  0  0  0
 15 17  1  0  0  0  0
 16 15  1  0  0  0  0
 18 15  1  0  0  0  0
 19 20  2  0  0  0  0
 19 21  1  0  0  0  0
M  END
>  <MODEL>
1

>  <REMARK>
 VINA RESULT:      -5.8      0.000      0.000
  Name = ZINC20306534
                            x       y       z     vdW  Elec       q    Type
                         _______ _______ _______ _____ _____    ______ ____

>  <TORSDO>
F 8

>  <vina_score>
-5.8

$$$$
ZINC00016244
 OpenBabel01081722533D

 28 29  0  0  1  0  0  0  0  0999 V2000
   11.7340   13.1920    2.4140 C   0  0  2  0  0  0  0  0  0  0  0  0
   11.3470   13.6860    1.0430 C   0  0  0  0  0  0  0  0  0  0  0  0
   11.9140   13.1160   -0.0810 C   0  0  0  0  0  0  0  0  0  0  0  0
   11.5580   13.5610   -1.3380 C   0  0  0  0  0  0  0  0  0  0  0  0
   10.6380   14.5930   -1.4720 C   0  0  0  0  0  0  0  0  0  0  0  0
   10.0730   15.1680   -0.3410 C   0  0  0  0  0  0  0  0  0  0  0  0
   10.4300   14.7120    0.9130 C   0  0  0  0  0  0  0  0  0  0  0  0
   10.2780   15.0500   -2.7430 N   0  0  0  0  0  0  0  0  0  0  0  0
   10.8400   15.7130   -3.2050 H   0  0  0  0  0  0  0  0  0  0  0  0
    8.9070   14.4750   -3.4720 S   0  0  0  0  0  0  0  0  0  0  0  0
    9.3540   12.8210   -4.0680 C   0  0  0  0  0  0  0  0  0  0  0  0
    8.6880   15.3480   -4.5710 O   0  0  0  0  0  0  0  0  0  0  0  0
    7.9530   14.3770   -2.4230 O   0  0  0  0  0  0  0  0  0  0  0  0
   13.1580   13.1760    2.5300 O   0  0  0  0  0  0  0  0  0  0  0  0
   13.4660   12.2590    2.5930 H   0  0  0  0  0  0  0  0  0  0  0  0
   11.1890   11.7770    2.6180 C   0  0  0  0  0  0  0  0  0  0  0  0
    9.5310   12.3810    4.4420 C   0  0  0  0  0  0  0  0  0  0  0  0
    9.8100   11.8510    3.1040 N   0  0  0  0  0  0  0  0  0  0  0  0
    8.7640   11.4180    2.2970 C   0  0  0  0  0  0  0  0  0  0  0  0
    7.8590   10.5690    2.8680 N   0  0  0  0  0  0  0  0  0  0  0  0
    7.9380   10.2730    3.8040 H   0  0  0  0  0  0  0  0  0  0  0  0
    6.8410   10.1540    2.0640 C   0  0  0  0  0  0  0  0  0  0  0  0
    6.6940   10.5420    0.7510 C   0  0  0  0  0  0  0  0  0  0  0  0
    7.6300   11.4120    0.1870 C   0  0  2  0  0  0  0  0  0  0  0  0
    8.6800   11.8590    0.9840 C   0  0  0  0  0  0  0  0  0  0  0  0
    7.5130   11.8260   -1.1370 N   0  0  0  0  0  0  0  0  0  0  0  0
    6.8540   11.3990   -1.7300 H   0  0  0  0  0  0  0  0  0  0  0  0
    8.0890   12.5470   -1.4800 H   0  0  0  0  0  0  0  0  0  0  0  0
  1  2  1  6  0  0  0
  1 14  1  0  0  0  0
  1 16  1  0  0  0  0
  3  2  2  0  0  0  0
  4  3  1  0  0  0  0
  5  4  2  0  0  0  0
  5  6  1  0  0  0  0
  6  7  2  0  0  0  0
  7  2  1  0  0  0  0
  8  5  1  0  0  0  0
  9  8  1  0  0  0  0
 10  8  1  0  0  0  0
 10 13  2  0  0  0  0
 11 10  1  0  0  0  0
 12 10  2  0  0  0  0
 14 15  1  0  0  0  0
 16 18  1  0  0  0  0
 18 17  1  0  0  0  0
 19 20  1  0  0  0  0
 19 18  1  0  0  0  0
 20 21  1  0  0  0  0
 22 20  1  0  0  0  0
 23 22  2  0  0  0  0
 24 26  1  1  0  0  0
 24 23  1  0  0  0  0
 24 25  1  0  0  0  0
 25 19  2  0  0  0  0
 27 26  1  0  0  0  0
 28 26  1  0  0  0  0
M  END
>  <MODEL>
1

>  <REMARK>
 VINA RESULT:      -5.8      0.000      0.000
  Name = ZINC00016244
                            x       y       z     vdW  Elec       q    Type
                         _______ _______ _______ _____ _____    ______ ____

>  <TORSDO>
F 8

>  <vina_score>
-5.8

$$$$
ZINC19518055
 OpenBabel01081722533D

 23 23  0  0  1  0  0  0  0  0999 V2000
   10.7150   14.2800    0.6780 N   0  0  0  0  0  0  0  0  0  0  0  0
   10.2640   15.1150    0.4150 H   0  0  0  0  0  0  0  0  0  0  0  0
   11.8310   13.8840    0.0340 C   0  0  0  0  0  0  0  0  0  0  0  0
   12.3320   12.8100    0.2920 O   0  0  0  0  0  0  0  0  0  0  0  0
    9.1720   11.9690    3.7880 C   0  0  0  0  0  0  0  0  0  0  0  0
   10.3280   12.7100    3.9820 C   0  0  0  0  0  0  0  0  0  0  0  0
   10.8400   13.4760    2.9530 C   0  0  0  0  0  0  0  0  0  0  0  0
   10.1960   13.5030    1.7230 C   0  0  0  0  0  0  0  0  0  0  0  0
    9.0390   12.7610    1.5290 C   0  0  0  0  0  0  0  0  0  0  0  0
    8.5290   11.9960    2.5580 C   0  0  0  0  0  0  0  0  0  0  0  0
    9.4900   10.1540    5.2900 C   0  0  0  0  0  0  0  0  0  0  0  0
    8.6690   11.2150    4.8010 O   0  0  0  0  0  0  0  0  0  0  0  0
   12.4550   14.7760   -1.0070 C   0  0  0  0  0  0  0  0  0  0  0  0
   11.2340   15.1450   -2.2970 S   0  0  0  0  0  0  0  0  0  0  0  0
   10.7670   13.5140   -2.9390 C   0  0  0  0  0  0  0  0  0  0  0  0
    9.2920   13.5280   -3.3450 C   0  0  2  0  0  0  0  0  0  0  0  0
    8.9390   14.8560   -3.8630 N   0  0  0  0  0  0  0  0  0  0  0  0
    9.4900   15.5670   -3.3810 H   0  0  0  0  0  0  0  0  0  0  0  0
    9.1340   14.8940   -4.8630 H   0  0  0  0  0  0  0  0  0  0  0  0
    7.9470   15.0300   -3.7030 H   0  0  0  0  0  0  0  0  0  0  0  0
    8.4380   13.2140   -2.1430 C   0  0  0  0  0  0  0  0  0  0  0  0
    7.2700   13.8510   -1.9660 O   0  0  0  0  0  0  0  0  0  0  0  0
    8.8050   12.3890   -1.3400 O   0  0  0  0  0  0  0  0  0  0  0  0
  1  8  1  0  0  0  0
  2  1  1  0  0  0  0
  3  4  2  0  0  0  0
  3  1  1  0  0  0  0
  5  6  1  0  0  0  0
  5 12  1  0  0  0  0
  7  6  2  0  0  0  0
  8  7  1  0  0  0  0
  9  8  2  0  0  0  0
  9 10  1  0  0  0  0
 10  5  2  0  0  0  0
 12 11  1  0  0  0  0
 13  3  1  0  0  0  0
 14 13  1  0  0  0  0
 15 14  1  0  0  0  0
 16 17  1  1  0  0  0
 16 15  1  0  0  0  0
 16 21  1  0  0  0  0
 17 20  1  0  0  0  0
 17 18  1  0  0  0  0
 19 17  1  0  0  0  0
 21 22  2  0  0  0  0
 21 23  1  0  0  0  0
M  END
>  <MODEL>
1

>  <REMARK>
 VINA RESULT:      -5.8      0.000      0.000
  Name = ZINC19518055
                            x       y       z     vdW  Elec       q    Type
                         _______ _______ _______ _____ _____    ______ ____

>  <TORSDO>
F 8

>  <vina_score>
-5.8

$$$$
ZINC20306535
 OpenBabel01081722323D

 21 21  0  0  1  0  0  0  0  0999 V2000
   12.1280   14.6990   -0.5460 C   0  0  0  0  0  0  0  0  0  0  0  0
    9.6550   12.6560    2.2820 C   0  0  0  0  0  0  0  0  0  0  0  0
   10.7940   12.0330    1.7670 C   0  0  0  0  0  0  0  0  0  0  0  0
   11.5870   12.6980    0.8550 C   0  0  0  0  0  0  0  0  0  0  0  0
   11.2570   13.9800    0.4510 C   0  0  0  0  0  0  0  0  0  0  0  0
   10.1330   14.6040    0.9610 C   0  0  0  0  0  0  0  0  0  0  0  0
    9.3270   13.9490    1.8690 C   0  0  0  0  0  0  0  0  0  0  0  0
    8.8010   11.9500    3.2580 C   0  0  0  0  0  0  0  0  0  0  0  0
    8.7000   12.3700    4.3930 O   0  0  0  0  0  0  0  0  0  0  0  0
    7.3080   10.9310    1.6980 C   0  0  0  0  0  0  0  0  0  0  0  0
    8.1310   10.8400    2.8900 O   0  0  0  0  0  0  0  0  0  0  0  0
   11.1650   15.0680   -2.0380 S   0  0  0  0  0  0  0  0  0  0  0  0
   10.7160   13.4350   -2.6860 C   0  0  0  0  0  0  0  0  0  0  0  0
    9.2730   13.4650   -3.1900 C   0  0  2  0  0  0  0  0  0  0  0  0
    8.9740   14.7920   -3.7420 N   0  0  0  0  0  0  0  0  0  0  0  0
    9.5430   15.4940   -3.2680 H   0  0  0  0  0  0  0  0  0  0  0  0
    9.1870   14.8020   -4.7400 H   0  0  0  0  0  0  0  0  0  0  0  0
    7.9870   15.0050   -3.6030 H   0  0  0  0  0  0  0  0  0  0  0  0
    8.3340   13.1750   -2.0460 C   0  0  0  0  0  0  0  0  0  0  0  0
    7.1770   13.8460   -1.9400 O   0  0  0  0  0  0  0  0  0  0  0  0
    8.6250   12.3370   -1.2250 O   0  0  0  0  0  0  0  0  0  0  0  0
  1  5  1  0  0  0  0
  2  8  1  0  0  0  0
  3  2  2  0  0  0  0
  4  3  1  0  0  0  0
  5  4  2  0  0  0  0
  5  6  1  0  0  0  0
  6  7  2  0  0  0  0
  7  2  1  0  0  0  0
  8  9  2  0  0  0  0
 10 11  1  0  0  0  0
 11  8  1  0  0  0  0
 12  1  1  0  0  0  0
 13 12  1  0  0  0  0
 14 15  1  1  0  0  0
 14 13  1  0  0  0  0
 14 19  1  0  0  0  0
 15 18  1  0  0  0  0
 15 16  1  0  0  0  0
 17 15  1  0  0  0  0
 19 20  2  0  0  0  0
 19 21  1  0  0  0  0
M  END
>  <MODEL>
1

>  <REMARK>
 VINA RESULT:      -5.8      0.000      0.000
  Name = ZINC20306535
                            x       y       z     vdW  Elec       q    Type
                         _______ _______ _______ _____ _____    ______ ____

>  <TORSDO>
F 8

>  <vina_score>
-5.8

$$$$
ZINC05736586
 OpenBabel01081722303D

 27 28  0  0  1  0  0  0  0  0999 V2000
    8.7880   11.9870    2.1630 N   0  0  0  0  0  0  0  0  0  0  0  0
    9.9720   11.3460    2.0800 C   0  0  0  0  0  0  0  0  0  0  0  0
   11.1450   11.9370    2.8380 C   0  0  2  0  0  0  0  0  0  0  0  0
   10.8660   13.2040    3.6230 C   0  0  0  0  0  0  0  0  0  0  0  0
    9.6100   13.6990    3.5840 N   0  0  0  0  0  0  0  0  0  0  0  0
    9.4040   14.5200    4.0850 H   0  0  0  0  0  0  0  0  0  0  0  0
   11.7380   13.7530    4.2620 O   0  0  0  0  0  0  0  0  0  0  0  0
   10.0940   10.3340    1.4230 O   0  0  0  0  0  0  0  0  0  0  0  0
    8.6370   13.1050    2.8840 C   0  0  0  0  0  0  0  0  0  0  0  0
    7.5360   13.6170    2.9040 O   0  0  0  0  0  0  0  0  0  0  0  0
   12.2440   12.2310    1.8490 C   0  0  0  0  0  0  0  0  0  0  0  0
   13.2880   11.4270    1.7640 C   0  0  0  0  0  0  0  0  0  0  0  0
   13.3260   10.1530    2.5680 C   0  0  0  0  0  0  0  0  0  0  0  0
   12.1580   13.3470    1.0260 N   0  0  0  0  0  0  0  0  0  0  0  0
   12.8060   14.0820    1.1260 H   0  0  0  0  0  0  0  0  0  0  0  0
   11.1760   13.4250    0.0810 N   0  0  0  0  0  0  0  0  0  0  0  0
   10.5070   14.7340    0.1220 C   0  0  0  0  0  0  0  0  0  0  0  0
    9.3640   14.7520   -0.8940 C   0  0  0  0  0  0  0  0  0  0  0  0
    9.9190   14.4990   -2.2410 N   0  0  0  0  0  0  0  0  0  0  0  0
   10.6160   15.2140   -2.4530 H   0  0  0  0  0  0  0  0  0  0  0  0
    8.8440   14.5630   -3.2530 C   0  0  0  0  0  0  0  0  0  0  0  0
   10.5680   13.1720   -2.2760 C   0  0  0  0  0  0  0  0  0  0  0  0
   11.7110   13.1530   -1.2590 C   0  0  0  0  0  0  0  0  0  0  0  0
    7.6330   11.4440    1.4440 C   0  0  0  0  0  0  0  0  0  0  0  0
    7.8400   11.6230   -0.0600 C   0  0  0  0  0  0  0  0  0  0  0  0
    5.8240   10.1620    0.1520 C   0  0  0  0  0  0  0  0  0  0  0  0
    6.6620   11.0020   -0.8150 C   0  0  0  0  0  0  0  0  0  0  0  0
  1  9  1  0  0  0  0
  2  1  1  0  0  0  0
  2  3  1  0  0  0  0
  3 11  1  6  0  0  0
  3  4  1  0  0  0  0
  4  7  2  0  0  0  0
  5  4  1  0  0  0  0
  5  6  1  0  0  0  0
  8  2  2  0  0  0  0
  9 10  2  0  0  0  0
  9  5  1  0  0  0  0
 12 11  2  0  0  0  0
 12 13  1  0  0  0  0
 14 15  1  0  0  0  0
 14 11  1  0  0  0  0
 16 17  1  0  0  0  0
 16 14  1  0  0  0  0
 18 17  1  0  0  0  0
 19 18  1  0  0  0  0
 20 19  1  0  0  0  0
 21 19  1  0  0  0  0
 22 19  1  0  0  0  0
 22 23  1  0  0  0  0
 23 16  1  0  0  0  0
 24  1  1  0  0  0  0
 25 24  1  0  0  0  0
 27 25  1  0  0  0  0
 27 26  1  0  0  0  0
M  END
>  <MODEL>
1

>  <REMARK>
 VINA RESULT:      -5.8      0.000      0.000
  Name = ZINC05736586
                            x       y       z     vdW  Elec       q    Type
                         _______ _______ _______ _____ _____    ______ ____

>  <TORSDO>
F 6

>  <vina_score>
-5.8

$$$$
ZINC02428102
 OpenBabel01081722343D

 34 36  0  0  0  0  0  0  0  0999 V2000
    8.2690   12.5940    0.8240 N   0  0  0  0  0  0  0  0  0  0  0  0
    7.7210   13.2870    1.2570 H   0  0  0  0  0  0  0  0  0  0  0  0
    8.7140   11.5410    1.5380 C   0  0  0  0  0  0  0  0  0  0  0  0
    9.4510   10.7260    1.0220 O   0  0  0  0  0  0  0  0  0  0  0  0
   10.8920   13.9710   -0.5400 C   0  0  0  0  0  0  0  0  0  0  0  0
   11.8740   14.4780   -1.3700 C   0  0  0  0  0  0  0  0  0  0  0  0
   11.7650   14.3440   -2.7450 C   0  0  0  0  0  0  0  0  0  0  0  0
   10.6750   13.7160   -3.3090 C   0  0  0  0  0  0  0  0  0  0  0  0
    9.6690   13.2020   -2.4960 C   0  0  0  0  0  0  0  0  0  0  0  0
    8.4940   12.5410   -2.7710 N   0  0  0  0  0  0  0  0  0  0  0  0
    8.1680   12.3170   -3.6740 H   0  0  0  0  0  0  0  0  0  0  0  0
    7.8350   12.2370   -1.5890 C   0  0  0  0  0  0  0  0  0  0  0  0
    8.5840   12.7010   -0.5270 C   0  0  0  0  0  0  0  0  0  0  0  0
    9.7760   13.3290   -1.0990 C   0  0  0  0  0  0  0  0  0  0  0  0
   10.3360   15.2070    1.4110 C   0  0  0  0  0  0  0  0  0  0  0  0
   11.0030   14.0980    0.8070 O   0  0  0  0  0  0  0  0  0  0  0  0
    6.5950   11.5590   -1.4870 C   0  0  0  0  0  0  0  0  0  0  0  0
    5.5860   12.0640   -1.9430 O   0  0  0  0  0  0  0  0  0  0  0  0
    6.5320   10.3520   -0.8840 O   0  0  0  0  0  0  0  0  0  0  0  0
    5.5820   10.2040    0.1730 C   0  0  0  0  0  0  0  0  0  0  0  0
    8.2990   11.3770    2.9770 C   0  0  0  0  0  0  0  0  0  0  0  0
    9.1360   10.2740    3.6270 C   0  0  0  0  0  0  0  0  0  0  0  0
   10.4290   10.8420    4.0640 N   0  0  0  0  0  0  0  0  0  0  0  0
   10.5290   10.7060    5.0690 H   0  0  0  0  0  0  0  0  0  0  0  0
   10.4690   12.2900    3.7710 C   0  0  0  0  0  0  0  0  0  0  0  0
   11.7650   12.8760    4.3360 C   0  0  0  0  0  0  0  0  0  0  0  0
   12.9620   12.1840    3.6800 C   0  0  0  0  0  0  0  0  0  0  0  0
   12.8680   10.6760    3.9280 C   0  0  0  0  0  0  0  0  0  0  0  0
   11.5410   10.1530    3.3740 C   0  0  0  0  0  0  0  0  0  0  0  0
   14.2400   12.7150    4.2770 C   0  0  0  0  0  0  0  0  0  0  0  0
   14.9710   11.9390    5.1030 N   0  0  0  0  0  0  0  0  0  0  0  0
   15.8050   12.2860    5.4920 H   0  0  0  0  0  0  0  0  0  0  0  0
   14.6690   11.0260    5.3150 H   0  0  0  0  0  0  0  0  0  0  0  0
   14.6100   13.8390    4.0140 O   0  0  0  0  0  0  0  0  0  0  0  0
  1  2  1  0  0  0  0
  1  3  1  0  0  0  0
  3 21  1  0  0  0  0
  4  3  2  0  0  0  0
  5 16  1  0  0  0  0
  6  5  2  0  0  0  0
  7  6  1  0  0  0  0
  8  7  2  0  0  0  0
  8  9  1  0  0  0  0
  9 14  2  0  0  0  0
 10  9  1  0  0  0  0
 10 12  1  0  0  0  0
 11 10  1  0  0  0  0
 12 17  1  0  0  0  0
 12 13  2  0  0  0  0
 13  1  1  0  0  0  0
 14  5  1  0  0  0  0
 14 13  1  0  0  0  0
 16 15  1  0  0  0  0
 17 19  1  0  0  0  0
 18 17  2  0  0  0  0
 19 20  1  0  0  0  0
 21 22  1  0  0  0  0
 22 23  1  0  0  0  0
 23 24  1  0  0  0  0
 25 23  1  0  0  0  0
 25 26  1  0  0  0  0
 27 28  1  0  0  0  0
 27 30  1  0  0  0  0
 27 26  1  0  0  0  0
 29 28  1  0  0  0  0
 29 23  1  0  0  0  0
 30 31  1  0  0  0  0
 31 33  1  0  0  0  0
 31 32  1  0  0  0  0
 34 30  2  0  0  0  0
M  END
>  <MODEL>
1

>  <REMARK>
 VINA RESULT:      -5.8      0.000      0.000
  Name = ZINC02428102
                            x       y       z     vdW  Elec       q    Type
                         _______ _______ _______ _____ _____    ______ ____

>  <TORSDO>
F 8

>  <vina_score>
-5.8

$$$$
ZINC26449470
 OpenBabel01081722373D

 27 28  0  0  0  0  0  0  0  0999 V2000
   12.4390   14.2690   -0.6820 C   0  0  0  0  0  0  0  0  0  0  0  0
   11.5480   14.1950   -1.9240 C   0  0  0  0  0  0  0  0  0  0  0  0
   10.1520   14.4420   -1.5410 N   0  0  0  0  0  0  0  0  0  0  0  0
    9.9220   13.8170   -0.7690 H   0  0  0  0  0  0  0  0  0  0  0  0
    9.2400   14.1410   -2.6520 C   0  0  0  0  0  0  0  0  0  0  0  0
    7.8130   14.0020   -2.1170 C   0  0  0  0  0  0  0  0  0  0  0  0
    7.1890   11.8000   -1.4030 C   0  0  0  0  0  0  0  0  0  0  0  0
    7.7940   13.0470   -1.0540 O   0  0  0  0  0  0  0  0  0  0  0  0
    9.9720   15.8220   -1.0730 C   0  0  0  0  0  0  0  0  0  0  0  0
    9.7030   15.8190    0.4110 C   0  0  0  0  0  0  0  0  0  0  0  0
    9.6750   16.9020    1.2080 C   0  0  0  0  0  0  0  0  0  0  0  0
    9.3900   16.4420    2.5140 C   0  0  0  0  0  0  0  0  0  0  0  0
    9.2610   15.1050    2.4370 C   0  0  0  0  0  0  0  0  0  0  0  0
    9.4460   14.7340    1.1590 O   0  0  0  0  0  0  0  0  0  0  0  0
   12.6930   12.9490   -0.1990 O   0  0  0  0  0  0  0  0  0  0  0  0
   11.9220   12.5080    0.8300 C   0  0  0  0  0  0  0  0  0  0  0  0
   12.2460   12.8460    2.1360 C   0  0  0  0  0  0  0  0  0  0  0  0
   11.4600   12.3970    3.1790 C   0  0  0  0  0  0  0  0  0  0  0  0
   10.3520   11.6100    2.9240 C   0  0  0  0  0  0  0  0  0  0  0  0
   10.0280   11.2720    1.6220 C   0  0  0  0  0  0  0  0  0  0  0  0
   10.8100   11.7190    0.5750 C   0  0  0  0  0  0  0  0  0  0  0  0
    9.3520   11.0380    4.2560 S   0  0  0  0  0  0  0  0  0  0  0  0
   10.2300   10.4180    5.1860 O   0  0  0  0  0  0  0  0  0  0  0  0
    8.2520   10.3530    3.6740 O   0  0  0  0  0  0  0  0  0  0  0  0
    8.7310   12.3740    5.0110 N   0  0  0  0  0  0  0  0  0  0  0  0
    7.7270   12.2540    5.1450 H   0  0  0  0  0  0  0  0  0  0  0  0
    9.1830   12.4930    5.9170 H   0  0  0  0  0  0  0  0  0  0  0  0
  1 15  1  0  0  0  0
  2  3  1  0  0  0  0
  2  1  1  0  0  0  0
  3  9  1  0  0  0  0
  3  4  1  0  0  0  0
  5  6  1  0  0  0  0
  5  3  1  0  0  0  0
  6  8  1  0  0  0  0
  7  8  1  0  0  0  0
  9 10  1  0  0  0  0
 10 14  1  0  0  0  0
 10 11  2  0  0  0  0
 11 12  1  0  0  0  0
 13 12  2  0  0  0  0
 14 13  1  0  0  0  0
 15 16  1  0  0  0  0
 16 17  1  0  0  0  0
 17 18  2  0  0  0  0
 19 18  1  0  0  0  0
 19 22  1  0  0  0  0
 20 19  2  0  0  0  0
 21 16  2  0  0  0  0
 21 20  1  0  0  0  0
 22 25  1  0  0  0  0
 22 23  2  0  0  0  0
 24 22  2  0  0  0  0
 25 26  1  0  0  0  0
 25 27  1  0  0  0  0
M  END
>  <MODEL>
1

>  <REMARK>
 VINA RESULT:      -5.8      0.000      0.000
  Name = ZINC26449470
                            x       y       z     vdW  Elec       q    Type
                         _______ _______ _______ _____ _____    ______ ____

>  <TORSDO>
F 11

>  <vina_score>
-5.8

$$$$
ZINC20341969
 OpenBabel01081722383D

 23 23  0  0  0  0  0  0  0  0999 V2000
   12.1010   13.1160    1.4920 C   0  0  0  0  0  0  0  0  0  0  0  0
   11.0410   13.9360    1.3590 N   0  0  0  0  0  0  0  0  0  0  0  0
   10.8000   14.5530    2.0880 H   0  0  0  0  0  0  0  0  0  0  0  0
   12.3980   12.3560    0.5940 O   0  0  0  0  0  0  0  0  0  0  0  0
   10.2870   13.9120    0.1950 C   0  0  0  0  0  0  0  0  0  0  0  0
    9.1410   13.1720   -0.0770 C   0  0  0  0  0  0  0  0  0  0  0  0
    8.5520   13.3470   -1.3830 C   0  0  0  0  0  0  0  0  0  0  0  0
    7.3060   12.6020   -1.7880 C   0  0  0  0  0  0  0  0  0  0  0  0
    9.1620   14.2030   -2.2230 C   0  0  0  0  0  0  0  0  0  0  0  0
    8.7680   14.5720   -3.6300 C   0  0  0  0  0  0  0  0  0  0  0  0
   10.5460   14.7930   -1.2720 S   0  0  0  0  0  0  0  0  0  0  0  0
    8.5580   12.2650    0.9140 C   0  0  0  0  0  0  0  0  0  0  0  0
    7.5400   12.6830    1.6940 O   0  0  0  0  0  0  0  0  0  0  0  0
    8.9930   11.1360    1.0350 O   0  0  0  0  0  0  0  0  0  0  0  0
   12.9210   13.1420    2.7570 C   0  0  0  0  0  0  0  0  0  0  0  0
   12.2020   12.4310    3.8220 N   0  0  0  0  0  0  0  0  0  0  0  0
   12.7200   12.5620    4.6910 H   0  0  0  0  0  0  0  0  0  0  0  0
   13.5110   10.3620    3.8030 C   0  0  0  0  0  0  0  0  0  0  0  0
   12.1400   10.9900    3.5450 C   0  0  0  0  0  0  0  0  0  0  0  0
   10.8560   12.9890    4.0110 C   0  0  0  0  0  0  0  0  0  0  0  0
    9.8840   11.8650    4.3740 C   0  0  0  0  0  0  0  0  0  0  0  0
    8.6010   12.4210    4.6700 O   0  0  0  0  0  0  0  0  0  0  0  0
    8.6560   13.3890    4.6510 H   0  0  0  0  0  0  0  0  0  0  0  0
  1 15  1  0  0  0  0
  2  1  1  0  0  0  0
  2  3  1  0  0  0  0
  4  1  2  0  0  0  0
  5  2  1  0  0  0  0
  6  5  2  0  0  0  0
  6 12  1  0  0  0  0
  7  6  1  0  0  0  0
  8  7  1  0  0  0  0
  9  7  2  0  0  0  0
  9 11  1  0  0  0  0
 10  9  1  0  0  0  0
 11  5  1  0  0  0  0
 12 14  2  0  0  0  0
 12 13  1  0  0  0  0
 15 16  1  0  0  0  0
 16 20  1  0  0  0  0
 16 17  1  0  0  0  0
 19 18  1  0  0  0  0
 19 16  1  0  0  0  0
 20 21  1  0  0  0  0
 21 22  1  0  0  0  0
 23 22  1  0  0  0  0
M  END
>  <MODEL>
1

>  <REMARK>
 VINA RESULT:      -5.8      0.000      0.000
  Name = ZINC20341969
                            x       y       z     vdW  Elec       q    Type
                         _______ _______ _______ _____ _____    ______ ____

>  <TORSDO>
F 8

>  <vina_score>
-5.8

$$$$
ZINC28090587
 OpenBabel01081722423D

 30 30  0  0  1  0  0  0  0  0999 V2000
   11.4920   12.5920    3.2140 N   0  0  0  0  0  0  0  0  0  0  0  0
   12.2920   12.4650    2.1390 C   0  0  0  0  0  0  0  0  0  0  0  0
   12.5960   11.3610    1.7360 O   0  0  0  0  0  0  0  0  0  0  0  0
   11.1380   13.8800    3.6840 O   0  0  0  0  0  0  0  0  0  0  0  0
   11.8810   14.2600    4.1790 H   0  0  0  0  0  0  0  0  0  0  0  0
   10.9860   11.3990    3.8970 C   0  0  0  0  0  0  0  0  0  0  0  0
    9.7370   11.7640    4.7020 C   0  0  0  0  0  0  0  0  0  0  0  0
    8.7010   12.2340    3.8000 O   0  0  0  0  0  0  0  0  0  0  0  0
    8.1370   11.3220    2.9910 C   0  0  0  0  0  0  0  0  0  0  0  0
    8.1300   10.1560    3.3080 O   0  0  0  0  0  0  0  0  0  0  0  0
    7.5120   11.7530    1.6900 C   0  0  1  0  0  0  0  0  0  0  0  0
    7.8490   13.1580    1.4270 N   0  0  0  0  0  0  0  0  0  0  0  0
    7.0530   13.7500    1.6650 H   0  0  0  0  0  0  0  0  0  0  0  0
    8.6530   13.4270    1.9950 H   0  0  0  0  0  0  0  0  0  0  0  0
    8.0760   13.2750    0.4390 H   0  0  0  0  0  0  0  0  0  0  0  0
    8.0470   10.8790    0.5540 C   0  0  2  0  0  0  0  0  0  0  0  0
    9.2210   11.5870   -0.1260 C   0  0  0  0  0  0  0  0  0  0  0  0
    5.6740   10.1550    0.2480 C   0  0  0  0  0  0  0  0  0  0  0  0
    6.9360   10.6370   -0.4710 C   0  0  0  0  0  0  0  0  0  0  0  0
   12.8180   13.6920    1.4390 C   0  0  0  0  0  0  0  0  0  0  0  0
   11.9750   13.9800    0.2250 C   0  0  0  0  0  0  0  0  0  0  0  0
   12.3260   13.4460   -1.0010 C   0  0  0  0  0  0  0  0  0  0  0  0
   11.5520   13.7020   -2.1180 C   0  0  0  0  0  0  0  0  0  0  0  0
   10.4270   14.5040   -2.0110 C   0  0  0  0  0  0  0  0  0  0  0  0
   10.0760   15.0460   -0.7780 C   0  0  0  0  0  0  0  0  0  0  0  0
   10.8540   14.7800    0.3380 C   0  0  0  0  0  0  0  0  0  0  0  0
    9.6670   14.7610   -3.1100 O   0  0  0  0  0  0  0  0  0  0  0  0
    9.0280   13.6450   -3.7320 C   0  0  0  0  0  0  0  0  0  0  0  0
    8.9730   15.8330   -0.6690 O   0  0  0  0  0  0  0  0  0  0  0  0
    8.1190   15.4590   -0.7680 H   0  0  0  0  0  0  0  0  0  0  0  0
  1  4  1  0  0  0  0
  1  6  1  0  0  0  0
  2  1  1  0  0  0  0
  3  2  2  0  0  0  0
  4  5  1  0  0  0  0
  6  7  1  0  0  0  0
  8  7  1  0  0  0  0
  9 10  2  0  0  0  0
  9  8  1  0  0  0  0
 11 12  1  6  0  0  0
 11  9  1  0  0  0  0
 12 13  1  0  0  0  0
 12 14  1  0  0  0  0
 15 12  1  0  0  0  0
 16 19  1  6  0  0  0
 16 11  1  0  0  0  0
 17 16  1  0  0  0  0
 19 18  1  0  0  0  0
 20  2  1  0  0  0  0
 21 26  1  0  0  0  0
 21 20  1  0  0  0  0
 22 21  2  0  0  0  0
 23 24  2  0  0  0  0
 23 22  1  0  0  0  0
 24 25  1  0  0  0  0
 25 29  1  0  0  0  0
 25 26  2  0  0  0  0
 27 24  1  0  0  0  0
 28 27  1  0  0  0  0
 30 29  1  0  0  0  0
M  END
>  <MODEL>
1

>  <REMARK>
 VINA RESULT:      -5.8      0.000      0.000
  Name = ZINC28090587
                            x       y       z     vdW  Elec       q    Type
                         _______ _______ _______ _____ _____    ______ ____

>  <TORSDO>
F 13

>  <vina_score>
-5.8

$$$$
ZINC12320688
 OpenBabel01081722483D

 39 42  0  0  1  0  0  0  0  0999 V2000
   10.8400   14.0250    2.0990 C   0  0  0  0  0  0  0  0  0  0  0  0
   10.0280   14.5520    1.2170 N   0  0  0  0  0  0  0  0  0  0  0  0
   10.5490   14.3930   -0.0250 C   0  0  0  0  0  0  0  0  0  0  0  0
   10.1320   14.7400   -1.3210 C   0  0  0  0  0  0  0  0  0  0  0  0
   10.9140   14.4200   -2.3460 N   0  0  0  0  0  0  0  0  0  0  0  0
   12.0590   13.7890   -2.1610 C   0  0  0  0  0  0  0  0  0  0  0  0
   12.4900   13.4440   -0.9660 N   0  0  0  0  0  0  0  0  0  0  0  0
   11.7750   13.7230    0.1180 C   0  0  0  0  0  0  0  0  0  0  0  0
   11.9360   13.5060    1.4670 N   0  0  0  0  0  0  0  0  0  0  0  0
   13.0710   12.8360    2.1080 C   0  0  2  0  0  0  0  0  0  0  0  0
   12.6830   11.3940    2.5210 C   0  0  2  0  0  0  0  0  0  0  0  0
   13.6910   11.1370    3.6750 C   0  0  1  0  0  0  0  0  0  0  0  0
   13.8200   12.5360    4.3150 C   0  0  2  0  0  0  0  0  0  0  0  0
   13.4120   13.4990    3.3360 O   0  0  0  0  0  0  0  0  0  0  0  0
   12.8880   10.4770    1.4440 O   0  0  0  0  0  0  0  0  0  0  0  0
   12.2150   10.6250    0.7610 H   0  0  0  0  0  0  0  0  0  0  0  0
   13.1630   10.1960    4.6110 O   0  0  0  0  0  0  0  0  0  0  0  0
   12.5070   10.6350    5.1760 H   0  0  0  0  0  0  0  0  0  0  0  0
   15.2740   12.7890    4.7190 C   0  0  0  0  0  0  0  0  0  0  0  0
   15.6190   11.9340    5.8110 O   0  0  0  0  0  0  0  0  0  0  0  0
   15.2010   11.0680    5.6880 H   0  0  0  0  0  0  0  0  0  0  0  0
    8.9310   15.4010   -1.5250 N   0  0  0  0  0  0  0  0  0  0  0  0
    8.7990   15.9420   -2.3370 H   0  0  0  0  0  0  0  0  0  0  0  0
    8.2100   15.3300   -0.8580 H   0  0  0  0  0  0  0  0  0  0  0  0
   10.6240   14.0020    3.4630 N   0  0  0  0  0  0  0  0  0  0  0  0
   10.7710   14.8140    3.9990 H   0  0  0  0  0  0  0  0  0  0  0  0
    7.9600   13.3840    3.3580 C   0  0  0  0  0  0  0  0  0  0  0  0
    8.9570   12.4970    4.0580 C   0  0  0  0  0  0  0  0  0  0  0  0
   10.1950   12.8210    4.0840 N   0  0  0  0  0  0  0  0  0  0  0  0
    8.4970   11.2270    4.7270 C   0  0  0  0  0  0  0  0  0  0  0  0
    8.5210   10.1550    3.7830 O   0  0  0  0  0  0  0  0  0  0  0  0
    8.0170   10.4090    2.5450 C   0  0  0  0  0  0  0  0  0  0  0  0
    8.8390   10.9290    1.5560 C   0  0  0  0  0  0  0  0  0  0  0  0
    8.3280   11.1820    0.2980 C   0  0  0  0  0  0  0  0  0  0  0  0
    6.9920   10.9270    0.0270 C   0  0  0  0  0  0  0  0  0  0  0  0
    6.1700   10.4120    1.0190 C   0  0  0  0  0  0  0  0  0  0  0  0
    6.6820   10.1540    2.2750 C   0  0  0  0  0  0  0  0  0  0  0  0
    6.4880   11.1810   -1.2100 O   0  0  0  0  0  0  0  0  0  0  0  0
    7.0030   12.3220   -1.8980 C   0  0  0  0  0  0  0  0  0  0  0  0
  1 25  1  0  0  0  0
  2  1  2  0  0  0  0
  3  8  1  0  0  0  0
  3  2  1  0  0  0  0
  4  3  2  0  0  0  0
  5  6  2  0  0  0  0
  5  4  1  0  0  0  0
  6  7  1  0  0  0  0
  7  8  2  0  0  0  0
  8  9  1  0  0  0  0
  9  1  1  0  0  0  0
 10  9  1  1  0  0  0
 10 11  1  0  0  0  0
 10 14  1  0  0  0  0
 11 15  1  6  0  0  0
 11 12  1  0  0  0  0
 12 13  1  0  0  0  0
 12 17  1  1  0  0  0
 13 19  1  6  0  0  0
 14 13  1  0  0  0  0
 16 15  1  0  0  0  0
 17 18  1  0  0  0  0
 19 20  1  0  0  0  0
 21 20  1  0  0  0  0
 22  4  1  0  0  0  0
 22 24  1  0  0  0  0
 23 22  1  0  0  0  0
 25 26  1  0  0  0  0
 25 29  1  0  0  0  0
 27 28  1  0  0  0  0
 28 29  2  0  0  0  0
 28 30  1  0  0  0  0
 31 30  1  0  0  0  0
 32 31  1  0  0  0  0
 33 32  2  0  0  0  0
 34 33  1  0  0  0  0
 35 34  2  0  0  0  0
 35 36  1  0  0  0  0
 36 37  2  0  0  0  0
 37 32  1  0  0  0  0
 38 35  1  0  0  0  0
 39 38  1  0  0  0  0
M  END
>  <MODEL>
1

>  <REMARK>
 VINA RESULT:      -5.7      0.000      0.000
  Name = ZINC12320688
                            x       y       z     vdW  Elec       q    Type
                         _______ _______ _______ _____ _____    ______ ____

>  <TORSDO>
F 12

>  <vina_score>
-5.7

$$$$
ZINC03365459
 OpenBabel01081722483D

 29 30  0  0  0  0  0  0  0  0999 V2000
    9.4250   10.8020    1.2680 C   0  0  0  0  0  0  0  0  0  0  0  0
    8.2760   10.3030    1.8840 C   0  0  0  0  0  0  0  0  0  0  0  0
    7.0320   10.6270    1.3820 C   0  0  0  0  0  0  0  0  0  0  0  0
    6.9230   11.4510    0.2750 C   0  0  0  0  0  0  0  0  0  0  0  0
    8.0580   11.9440   -0.3430 C   0  0  0  0  0  0  0  0  0  0  0  0
    9.3080   11.6270    0.1490 C   0  0  0  0  0  0  0  0  0  0  0  0
   10.9820   10.4800    3.1300 N   0  0  0  0  0  0  0  0  0  0  0  0
   10.2550   10.7240    3.7460 H   0  0  0  0  0  0  0  0  0  0  0  0
   10.7600   10.4580    1.8010 C   0  0  0  0  0  0  0  0  0  0  0  0
   11.6580   10.1550    1.0390 O   0  0  0  0  0  0  0  0  0  0  0  0
   13.1600   11.1230    3.8470 C   0  0  0  0  0  0  0  0  0  0  0  0
   12.2480   10.1530    3.6340 N   0  0  0  0  0  0  0  0  0  0  0  0
   12.4720    9.2150    3.8320 H   0  0  0  0  0  0  0  0  0  0  0  0
   12.8840   12.2780    3.6020 O   0  0  0  0  0  0  0  0  0  0  0  0
   14.5210   10.7720    4.3890 C   0  0  0  0  0  0  0  0  0  0  0  0
   15.7030   12.6230    5.3490 C   0  0  0  0  0  0  0  0  0  0  0  0
   14.7820   11.5500    5.5590 O   0  0  0  0  0  0  0  0  0  0  0  0
    7.9080   12.9860   -1.7550 S   0  0  0  0  0  0  0  0  0  0  0  0
    8.7430   12.4300   -2.7610 O   0  0  0  0  0  0  0  0  0  0  0  0
    6.5170   13.2030   -1.9530 O   0  0  0  0  0  0  0  0  0  0  0  0
    8.5630   14.4530   -1.3530 N   0  0  0  0  0  0  0  0  0  0  0  0
    9.9470   14.5820   -1.1950 C   0  0  0  0  0  0  0  0  0  0  0  0
   10.7850   14.4870   -2.2970 C   0  0  0  0  0  0  0  0  0  0  0  0
   12.1520   14.6080   -2.1370 C   0  0  0  0  0  0  0  0  0  0  0  0
   12.6880   14.8300   -0.8820 C   0  0  0  0  0  0  0  0  0  0  0  0
   11.8600   14.9320    0.2200 C   0  0  0  0  0  0  0  0  0  0  0  0
   10.4880   14.8110    0.0680 C   0  0  0  0  0  0  0  0  0  0  0  0
    9.6710   14.9090    1.1520 O   0  0  0  0  0  0  0  0  0  0  0  0
   10.1200   14.2940    2.3610 C   0  0  0  0  0  0  0  0  0  0  0  0
  1  9  1  0  0  0  0
  1  2  2  0  0  0  0
  3  2  1  0  0  0  0
  4  3  2  0  0  0  0
  5  6  2  0  0  0  0
  5  4  1  0  0  0  0
  6  1  1  0  0  0  0
  7 12  1  0  0  0  0
  7  8  1  0  0  0  0
  9  7  1  0  0  0  0
 10  9  2  0  0  0  0
 11 15  1  0  0  0  0
 12 13  1  0  0  0  0
 12 11  1  0  0  0  0
 14 11  2  0  0  0  0
 15 17  1  0  0  0  0
 16 17  1  0  0  0  0
 18 21  1  0  0  0  0
 18  5  1  0  0  0  0
 19 18  2  0  0  0  0
 20 18  2  0  0  0  0
 21 22  1  0  0  0  0
 22 27  2  0  0  0  0
 23 24  2  0  0  0  0
 23 22  1  0  0  0  0
 24 25  1  0  0  0  0
 25 26  2  0  0  0  0
 27 26  1  0  0  0  0
 27 28  1  0  0  0  0
 28 29  1  0  0  0  0
M  END
>  <MODEL>
1

>  <REMARK>
 VINA RESULT:      -5.7      0.000      0.000
  Name = ZINC03365459
                            x       y       z     vdW  Elec       q    Type
                         _______ _______ _______ _____ _____    ______ ____

>  <TORSDO>
F 8

>  <vina_score>
-5.7

$$$$
ZINC23581324
 OpenBabel01081722473D

 26 28  0  0  1  0  0  0  0  0999 V2000
   10.8910   10.7500    3.2540 N   0  0  0  0  0  0  0  0  0  0  0  0
    9.6650   11.1640    3.6290 C   0  0  0  0  0  0  0  0  0  0  0  0
    8.7740   11.6530    2.6630 C   0  0  0  0  0  0  0  0  0  0  0  0
    9.1710   11.6880    1.3390 C   0  0  0  0  0  0  0  0  0  0  0  0
   10.4640   11.2380    0.9920 C   0  0  0  0  0  0  0  0  0  0  0  0
    9.3330   11.1180    4.8030 O   0  0  0  0  0  0  0  0  0  0  0  0
   11.2760   10.7930    1.9100 N   0  0  0  0  0  0  0  0  0  0  0  0
    8.3110   12.1590    0.3640 N   0  0  0  0  0  0  0  0  0  0  0  0
    7.5210   11.0640   -0.2160 C   0  0  0  0  0  0  0  0  0  0  0  0
    6.5440   11.6360   -1.2460 C   0  0  0  0  0  0  0  0  0  0  0  0
    7.2740   12.3630   -2.2380 O   0  0  0  0  0  0  0  0  0  0  0  0
    8.0540   13.4370   -1.7080 C   0  0  1  0  0  0  0  0  0  0  0  0
    9.0480   12.8830   -0.6830 C   0  0  0  0  0  0  0  0  0  0  0  0
    8.8190   14.1220   -2.8410 C   0  0  0  0  0  0  0  0  0  0  0  0
    9.3720   13.0630   -3.7960 C   0  0  0  0  0  0  0  0  0  0  0  0
   10.8370   13.1620   -3.8420 N   0  0  0  0  0  0  0  0  0  0  0  0
   11.1500   13.1260   -4.8120 H   0  0  0  0  0  0  0  0  0  0  0  0
   11.1320   14.0440   -3.4220 H   0  0  0  0  0  0  0  0  0  0  0  0
   11.2470   12.3850   -3.3240 H   0  0  0  0  0  0  0  0  0  0  0  0
   11.8260   10.2440    4.2610 C   0  0  0  0  0  0  0  0  0  0  0  0
   13.2280   10.1540    3.6550 C   0  0  0  0  0  0  0  0  0  0  0  0
   15.0830   12.8980    5.0790 C   0  0  0  0  0  0  0  0  0  0  0  0
   15.7320   11.8060    5.6630 C   0  0  0  0  0  0  0  0  0  0  0  0
   15.1560   10.7120    5.2360 N   0  0  0  0  0  0  0  0  0  0  0  0
   14.1250   11.0750    4.3600 N   0  0  0  0  0  0  0  0  0  0  0  0
   14.0980   12.4210    4.2830 C   0  0  0  0  0  0  0  0  0  0  0  0
  1  2  1  0  0  0  0
  1 20  1  0  0  0  0
  2  6  2  0  0  0  0
  3  2  1  0  0  0  0
  4  3  2  0  0  0  0
  5  4  1  0  0  0  0
  5  7  2  0  0  0  0
  7  1  1  0  0  0  0
  8  4  1  0  0  0  0
  9  8  1  0  0  0  0
 10  9  1  0  0  0  0
 11 12  1  0  0  0  0
 11 10  1  0  0  0  0
 12 14  1  6  0  0  0
 12 13  1  0  0  0  0
 13  8  1  0  0  0  0
 15 14  1  0  0  0  0
 16 15  1  0  0  0  0
 16 18  1  0  0  0  0
 16 19  1  0  0  0  0
 17 16  1  0  0  0  0
 21 20  1  0  0  0  0
 21 25  1  0  0  0  0
 22 23  1  0  0  0  0
 24 23  2  0  0  0  0
 25 24  1  0  0  0  0
 26 25  1  0  0  0  0
 26 22  2  0  0  0  0
M  END
>  <MODEL>
1

>  <REMARK>
 VINA RESULT:      -5.7      0.000      0.000
  Name = ZINC23581324
                            x       y       z     vdW  Elec       q    Type
                         _______ _______ _______ _____ _____    ______ ____

>  <TORSDO>
F 7

>  <vina_score>
-5.7

$$$$
ZINC04748240
 OpenBabel01081722503D

 20 19  0  0  0  0  0  0  0  0999 V2000
    9.3420   12.1870   -0.3880 C   0  0  0  0  0  0  0  0  0  0  0  0
    8.3680   12.3870   -1.1930 N   0  0  0  0  0  0  0  0  0  0  0  0
    8.6100   12.9070   -2.4710 N   0  0  0  0  0  0  0  0  0  0  0  0
    8.8940   12.3090   -3.1990 H   0  0  0  0  0  0  0  0  0  0  0  0
    8.4540   14.2250   -2.7030 C   0  0  0  0  0  0  0  0  0  0  0  0
    8.0640   15.0440   -1.7050 N   0  0  0  0  0  0  0  0  0  0  0  0
    7.9500   16.0070   -1.8750 H   0  0  0  0  0  0  0  0  0  0  0  0
    7.8940   14.6780   -0.8070 H   0  0  0  0  0  0  0  0  0  0  0  0
    8.6640   14.6760   -3.8120 O   0  0  0  0  0  0  0  0  0  0  0  0
    9.0730   11.7350    1.0250 C   0  0  0  0  0  0  0  0  0  0  0  0
    8.2170   12.7820    1.7400 C   0  0  0  0  0  0  0  0  0  0  0  0
    8.8860   13.1810    3.0300 C   0  0  0  0  0  0  0  0  0  0  0  0
    8.6090   12.6080    4.0580 O   0  0  0  0  0  0  0  0  0  0  0  0
    9.3770   15.4450    2.4750 C   0  0  0  0  0  0  0  0  0  0  0  0
    9.7900   14.1730    3.0390 O   0  0  0  0  0  0  0  0  0  0  0  0
   10.7600   12.4020   -0.8520 C   0  0  0  0  0  0  0  0  0  0  0  0
   11.3380   13.6080   -0.1570 C   0  0  0  0  0  0  0  0  0  0  0  0
   12.0990   13.4650    0.7700 O   0  0  0  0  0  0  0  0  0  0  0  0
   11.0050   14.8430   -0.5670 O   0  0  0  0  0  0  0  0  0  0  0  0
   11.7950   15.4170   -1.6410 C   0  0  0  0  0  0  0  0  0  0  0  0
  1 10  1  0  0  0  0
  2  1  2  0  0  0  0
  3  2  1  0  0  0  0
  4  3  1  0  0  0  0
  5  3  1  0  0  0  0
  5  6  1  0  0  0  0
  6  8  1  0  0  0  0
  7  6  1  0  0  0  0
  9  5  2  0  0  0  0
 10 11  1  0  0  0  0
 11 12  1  0  0  0  0
 12 15  1  0  0  0  0
 12 13  2  0  0  0  0
 14 15  1  0  0  0  0
 16  1  1  0  0  0  0
 16 17  1  0  0  0  0
 17 18  2  0  0  0  0
 19 17  1  0  0  0  0
 20 19  1  0  0  0  0
M  END
>  <MODEL>
1

>  <REMARK>
 VINA RESULT:      -5.7      0.000      0.000
  Name = ZINC04748240
                            x       y       z     vdW  Elec       q    Type
                         _______ _______ _______ _____ _____    ______ ____

>  <TORSDO>
F 8

>  <vina_score>
-5.7

$$$$
ZINC20423298
 OpenBabel01081722323D

 23 23  0  0  1  0  0  0  0  0999 V2000
    8.2460   11.4230    0.3530 C   0  0  0  0  0  0  0  0  0  0  0  0
    9.5730   11.3610    0.7510 C   0  0  0  0  0  0  0  0  0  0  0  0
   10.5450   12.0390    0.0300 C   0  0  0  0  0  0  0  0  0  0  0  0
   10.1880   12.7860   -1.0820 C   0  0  0  0  0  0  0  0  0  0  0  0
    8.8610   12.8530   -1.4770 C   0  0  0  0  0  0  0  0  0  0  0  0
    7.8890   12.1710   -0.7590 C   0  0  0  0  0  0  0  0  0  0  0  0
    6.2070   10.2010    0.3100 C   0  0  0  0  0  0  0  0  0  0  0  0
    7.2940   10.7550    1.0550 O   0  0  0  0  0  0  0  0  0  0  0  0
   11.8460   11.9740    0.4170 O   0  0  0  0  0  0  0  0  0  0  0  0
   12.1830   12.5830    1.6650 C   0  0  0  0  0  0  0  0  0  0  0  0
    8.5120   13.5850   -2.5670 O   0  0  0  0  0  0  0  0  0  0  0  0
    7.5560   14.6290   -2.3680 C   0  0  0  0  0  0  0  0  0  0  0  0
   11.2440   13.5270   -1.8620 C   0  0  1  0  0  0  0  0  0  0  0  0
   11.1680   13.1410   -3.2780 N   0  0  0  0  0  0  0  0  0  0  0  0
   11.2020   13.9780   -3.8600 H   0  0  0  0  0  0  0  0  0  0  0  0
   11.9550   12.5340   -3.5080 H   0  0  0  0  0  0  0  0  0  0  0  0
   10.2930   12.6440   -3.4490 H   0  0  0  0  0  0  0  0  0  0  0  0
   11.0120   15.0330   -1.7310 C   0  0  0  0  0  0  0  0  0  0  0  0
   11.1600   15.4460   -0.2650 C   0  0  0  0  0  0  0  0  0  0  0  0
    9.8880   16.1620    0.1940 C   0  0  0  0  0  0  0  0  0  0  0  0
    9.5870   15.7850    1.6220 C   0  0  0  0  0  0  0  0  0  0  0  0
    9.5910   16.7260    2.5800 O   0  0  0  0  0  0  0  0  0  0  0  0
    9.3430   14.6360    1.9050 O   0  0  0  0  0  0  0  0  0  0  0  0
  1  2  1  0  0  0  0
  1  8  1  0  0  0  0
  3  9  1  0  0  0  0
  3  2  2  0  0  0  0
  4  3  1  0  0  0  0
  5  4  2  0  0  0  0
  5  6  1  0  0  0  0
  6  1  2  0  0  0  0
  7  8  1  0  0  0  0
  9 10  1  0  0  0  0
 11 12  1  0  0  0  0
 11  5  1  0  0  0  0
 13 14  1  6  0  0  0
 13 18  1  0  0  0  0
 13  4  1  0  0  0  0
 15 14  1  0  0  0  0
 16 14  1  0  0  0  0
 17 14  1  0  0  0  0
 18 19  1  0  0  0  0
 19 20  1  0  0  0  0
 20 21  1  0  0  0  0
 21 23  2  0  0  0  0
 21 22  1  0  0  0  0
M  END
>  <MODEL>
1

>  <REMARK>
 VINA RESULT:      -5.7      0.000      0.000
  Name = ZINC20423298
                            x       y       z     vdW  Elec       q    Type
                         _______ _______ _______ _____ _____    ______ ____

>  <TORSDO>
F 9

>  <vina_score>
-5.7

$$$$
ZINC05677695
 OpenBabel01081722553D

 19 19  0  0  1  0  0  0  0  0999 V2000
    8.8980   13.8440    0.5920 N   0  0  0  0  0  0  0  0  0  0  0  0
    9.0050   13.7160   -0.4150 H   0  0  0  0  0  0  0  0  0  0  0  0
    7.9340   14.0950    0.8110 H   0  0  0  0  0  0  0  0  0  0  0  0
   10.1450   11.7400    0.3730 C   0  0  0  0  0  0  0  0  0  0  0  0
    9.2390   12.5820    1.2750 C   0  0  2  0  0  0  0  0  0  0  0  0
    7.9520   11.7980    1.5790 C   0  0  0  0  0  0  0  0  0  0  0  0
    8.3040   10.6500    2.5700 C   0  0  0  0  0  0  0  0  0  0  0  0
    9.4710   11.5260    3.6960 S   0  0  0  0  0  0  0  0  0  0  0  0
    8.7430   12.0570    4.7930 O   0  0  0  0  0  0  0  0  0  0  0  0
   10.5940   10.6890    3.9400 O   0  0  0  0  0  0  0  0  0  0  0  0
    9.9830   12.9060    2.5930 C   0  0  0  0  0  0  0  0  0  0  0  0
    9.7960   14.9250    1.0360 C   0  0  0  0  0  0  0  0  0  0  0  0
   10.2440   15.7370   -0.1810 C   0  0  0  0  0  0  0  0  0  0  0  0
   11.4490   15.0570   -0.8340 C   0  0  0  0  0  0  0  0  0  0  0  0
   11.1940   14.8970   -2.3340 C   0  0  0  0  0  0  0  0  0  0  0  0
   10.9480   13.4210   -2.6550 C   0  0  0  0  0  0  0  0  0  0  0  0
    9.5370   13.2440   -3.1540 C   0  0  0  0  0  0  0  0  0  0  0  0
    9.3150   12.6920   -4.3570 O   0  0  0  0  0  0  0  0  0  0  0  0
    8.6050   13.5980   -2.4700 O   0  0  0  0  0  0  0  0  0  0  0  0
  1  3  1  0  0  0  0
  1 12  1  0  0  0  0
  1  5  1  0  0  0  0
  2  1  1  0  0  0  0
  5  4  1  6  0  0  0
  5  6  1  0  0  0  0
  5 11  1  0  0  0  0
  6  7  1  0  0  0  0
  7  8  1  0  0  0  0
  8 10  2  0  0  0  0
  8  9  2  0  0  0  0
 11  8  1  0  0  0  0
 13 12  1  0  0  0  0
 14 13  1  0  0  0  0
 15 14  1  0  0  0  0
 16 15  1  0  0  0  0
 17 16  1  0  0  0  0
 17 19  1  0  0  0  0
 18 17  2  0  0  0  0
M  END
>  <MODEL>
1

>  <REMARK>
 VINA RESULT:      -5.7      0.000      0.000
  Name = ZINC05677695
                            x       y       z     vdW  Elec       q    Type
                         _______ _______ _______ _____ _____    ______ ____

>  <TORSDO>
F 7

>  <vina_score>
-5.7

$$$$
ZINC20261639
 OpenBabel01081722303D

 20 20  0  0  0  0  0  0  0  0999 V2000
    9.6640   12.4050    1.6800 N   0  0  0  0  0  0  0  0  0  0  0  0
   10.9150   11.6570    1.8160 C   0  0  0  0  0  0  0  0  0  0  0  0
    9.7460   14.0310   -0.1110 C   0  0  0  0  0  0  0  0  0  0  0  0
    9.7690   15.3500   -0.5310 C   0  0  0  0  0  0  0  0  0  0  0  0
    9.7330   16.3730    0.3990 C   0  0  0  0  0  0  0  0  0  0  0  0
    9.6740   16.0820    1.7500 C   0  0  0  0  0  0  0  0  0  0  0  0
    9.6470   14.7680    2.1770 C   0  0  0  0  0  0  0  0  0  0  0  0
    9.6870   13.7380    1.2490 C   0  0  0  0  0  0  0  0  0  0  0  0
    9.7790   13.0240   -1.0250 O   0  0  0  0  0  0  0  0  0  0  0  0
    9.5280   13.0820   -3.4280 C   0  0  0  0  0  0  0  0  0  0  0  0
   10.4780   13.2780   -2.2450 C   0  0  0  0  0  0  0  0  0  0  0  0
    8.2210   11.6760    2.0380 S   0  0  0  0  0  0  0  0  0  0  0  0
    8.3790   11.1890    3.3630 O   0  0  0  0  0  0  0  0  0  0  0  0
    7.2350   12.6550    1.7390 O   0  0  0  0  0  0  0  0  0  0  0  0
    8.0980   10.2900    0.8740 C   0  0  0  0  0  0  0  0  0  0  0  0
    6.8820   10.4930   -0.0340 C   0  0  0  0  0  0  0  0  0  0  0  0
    7.1730   11.5470   -1.0130 N   0  0  0  0  0  0  0  0  0  0  0  0
    6.9960   11.1960   -1.9540 H   0  0  0  0  0  0  0  0  0  0  0  0
    6.5740   12.3530   -0.8340 H   0  0  0  0  0  0  0  0  0  0  0  0
    8.1510   11.8260   -0.9330 H   0  0  0  0  0  0  0  0  0  0  0  0
  1  2  1  0  0  0  0
  1 12  1  0  0  0  0
  3  8  1  0  0  0  0
  4  3  2  0  0  0  0
  4  5  1  0  0  0  0
  5  6  2  0  0  0  0
  6  7  1  0  0  0  0
  8  1  1  0  0  0  0
  8  7  2  0  0  0  0
  9  3  1  0  0  0  0
 10 11  1  0  0  0  0
 11  9  1  0  0  0  0
 12 13  2  0  0  0  0
 14 12  2  0  0  0  0
 15 12  1  0  0  0  0
 16 15  1  0  0  0  0
 17 20  1  0  0  0  0
 17 19  1  0  0  0  0
 17 16  1  0  0  0  0
 18 17  1  0  0  0  0
M  END
>  <MODEL>
1

>  <REMARK>
 VINA RESULT:      -5.7      0.000      0.000
  Name = ZINC20261639
                            x       y       z     vdW  Elec       q    Type
                         _______ _______ _______ _____ _____    ______ ____

>  <TORSDO>
F 7

>  <vina_score>
-5.7

$$$$
ZINC20236119
 OpenBabel01081722383D

 22 22  0  0  0  0  0  0  0  0999 V2000
    9.6210   13.1410   -1.5580 N   0  0  0  0  0  0  0  0  0  0  0  0
    9.3590   12.9720   -0.1950 C   0  0  0  0  0  0  0  0  0  0  0  0
    8.8690   11.7600    0.2740 C   0  0  0  0  0  0  0  0  0  0  0  0
    8.6160   11.5900    1.6220 C   0  0  0  0  0  0  0  0  0  0  0  0
    8.8380   12.6320    2.5070 C   0  0  0  0  0  0  0  0  0  0  0  0
    9.3240   13.8490    2.0400 C   0  0  0  0  0  0  0  0  0  0  0  0
    9.5840   14.0190    0.6900 C   0  0  0  0  0  0  0  0  0  0  0  0
    8.5830   12.4650    3.8330 O   0  0  0  0  0  0  0  0  0  0  0  0
    9.6110   11.8600    4.6210 C   0  0  0  0  0  0  0  0  0  0  0  0
    9.5440   14.8730    2.9090 O   0  0  0  0  0  0  0  0  0  0  0  0
    9.4110   16.1990    2.3950 C   0  0  0  0  0  0  0  0  0  0  0  0
   11.1770   13.3500   -2.0830 S   0  0  0  0  0  0  0  0  0  0  0  0
   11.9730   12.6170   -1.1620 O   0  0  0  0  0  0  0  0  0  0  0  0
   11.1480   12.9930   -3.4590 O   0  0  0  0  0  0  0  0  0  0  0  0
   12.6660   15.3440   -0.9480 C   0  0  0  0  0  0  0  0  0  0  0  0
   11.4930   15.1270   -1.9060 C   0  0  0  0  0  0  0  0  0  0  0  0
    8.5180   13.1310   -2.5220 C   0  0  0  0  0  0  0  0  0  0  0  0
    8.0920   14.5690   -2.8240 C   0  0  0  0  0  0  0  0  0  0  0  0
    8.7630   15.0320   -4.0470 N   0  0  0  0  0  0  0  0  0  0  0  0
    8.3890   15.9420   -4.3160 H   0  0  0  0  0  0  0  0  0  0  0  0
    9.7650   15.1120   -3.8760 H   0  0  0  0  0  0  0  0  0  0  0  0
    8.6000   14.3620   -4.7990 H   0  0  0  0  0  0  0  0  0  0  0  0
  1  2  1  0  0  0  0
  2  3  2  0  0  0  0
  2  7  1  0  0  0  0
  3  4  1  0  0  0  0
  4  5  2  0  0  0  0
  5  8  1  0  0  0  0
  6  5  1  0  0  0  0
  6 10  1  0  0  0  0
  7  6  2  0  0  0  0
  8  9  1  0  0  0  0
 11 10  1  0  0  0  0
 12 16  1  0  0  0  0
 12  1  1  0  0  0  0
 12 13  2  0  0  0  0
 14 12  2  0  0  0  0
 16 15  1  0  0  0  0
 17  1  1  0  0  0  0
 18 17  1  0  0  0  0
 19 21  1  0  0  0  0
 19 18  1  0  0  0  0
 20 19  1  0  0  0  0
 22 19  1  0  0  0  0
M  END
>  <MODEL>
1

>  <REMARK>
 VINA RESULT:      -5.7      0.000      0.000
  Name = ZINC20236119
                            x       y       z     vdW  Elec       q    Type
                         _______ _______ _______ _____ _____    ______ ____

>  <TORSDO>
F 8

>  <vina_score>
-5.7

$$$$
ZINC13282339
 OpenBabel01081722423D

 19 19  0  0  1  0  0  0  0  0999 V2000
    8.7120   13.5500    2.7820 C   0  0  2  0  0  0  0  0  0  0  0  0
    7.6750   14.4370    3.2080 O   0  0  0  0  0  0  0  0  0  0  0  0
    7.2920   14.1110    4.0370 H   0  0  0  0  0  0  0  0  0  0  0  0
    9.9270   14.3640    2.3320 C   0  0  0  0  0  0  0  0  0  0  0  0
   12.7480   12.2470    3.0830 C   0  0  0  0  0  0  0  0  0  0  0  0
   11.6580   12.9260    3.4890 C   0  0  0  0  0  0  0  0  0  0  0  0
   11.1230   13.5210    2.3770 N   0  0  0  0  0  0  0  0  0  0  0  0
   11.9030   13.1790    1.3290 C   0  0  0  0  0  0  0  0  0  0  0  0
   12.8750   12.4220    1.7580 N   0  0  0  0  0  0  0  0  0  0  0  0
   11.6910   13.5960   -0.0760 N   0  0  0  0  0  0  0  0  0  0  0  0
   11.2480   14.7040   -0.3220 O   0  0  0  0  0  0  0  0  0  0  0  0
   11.9610   12.8320   -0.9860 O   0  0  0  0  0  0  0  0  0  0  0  0
    8.2080   12.6980    1.6150 C   0  0  0  0  0  0  0  0  0  0  0  0
    8.2660   13.4930    0.3750 N   0  0  0  0  0  0  0  0  0  0  0  0
    7.4130   14.0440    0.2930 H   0  0  0  0  0  0  0  0  0  0  0  0
    9.0780   14.1100    0.4080 H   0  0  0  0  0  0  0  0  0  0  0  0
    8.3790   12.6050   -0.7970 C   0  0  0  0  0  0  0  0  0  0  0  0
    7.9600   13.3760   -2.0510 C   0  0  0  0  0  0  0  0  0  0  0  0
    9.3310   13.1560   -3.4450 Br  0  0  0  0  0  0  0  0  0  0  0  0
  1 13  1  6  0  0  0
  1  2  1  0  0  0  0
  2  3  1  0  0  0  0
  4  7  1  0  0  0  0
  4  1  1  0  0  0  0
  5  6  2  0  0  0  0
  7  6  1  0  0  0  0
  8  9  2  0  0  0  0
  8  7  1  0  0  0  0
  9  5  1  0  0  0  0
 10  8  1  0  0  0  0
 11 10  2  0  0  0  0
 12 10  2  0  0  0  0
 14 16  1  0  0  0  0
 14 13  1  0  0  0  0
 15 14  1  0  0  0  0
 17 14  1  0  0  0  0
 18 17  1  0  0  0  0
 19 18  1  0  0  0  0
M  END
>  <MODEL>
1

>  <REMARK>
 VINA RESULT:      -5.6      0.000      0.000
  Name = ZINC13282339
                            x       y       z     vdW  Elec       q    Type
                         _______ _______ _______ _____ _____    ______ ____

>  <TORSDO>
F 8

>  <vina_score>
-5.6

$$$$
ZINC21264479
 OpenBabel01081722463D

 20 20  0  0  0  0  0  0  0  0999 V2000
   10.1810   13.5070    0.8720 N   0  0  0  0  0  0  0  0  0  0  0  0
    9.4890   12.4450    0.4160 C   0  0  0  0  0  0  0  0  0  0  0  0
    9.6430   11.3560    0.9270 O   0  0  0  0  0  0  0  0  0  0  0  0
   12.9860   12.9100    3.6810 C   0  0  0  0  0  0  0  0  0  0  0  0
   11.8620   13.4980    4.0400 N   0  0  0  0  0  0  0  0  0  0  0  0
   10.9480   13.7080    3.1950 N   0  0  0  0  0  0  0  0  0  0  0  0
   11.0730   13.3540    1.9280 C   0  0  0  0  0  0  0  0  0  0  0  0
   12.6650   12.6510    1.9410 S   0  0  0  0  0  0  0  0  0  0  0  0
   14.4340   11.0490    4.4500 C   0  0  0  0  0  0  0  0  0  0  0  0
   14.1990   12.5600    4.5040 C   0  0  0  0  0  0  0  0  0  0  0  0
    8.5220   12.6100   -0.7290 C   0  0  0  0  0  0  0  0  0  0  0  0
    9.2510   12.5240   -2.0020 N   0  0  0  0  0  0  0  0  0  0  0  0
   10.2250   12.2970   -1.8040 H   0  0  0  0  0  0  0  0  0  0  0  0
    8.8250   11.8010   -2.5810 H   0  0  0  0  0  0  0  0  0  0  0  0
    9.2050   13.8040   -2.7210 C   0  0  0  0  0  0  0  0  0  0  0  0
   10.4240   14.6460   -2.3410 C   0  0  0  0  0  0  0  0  0  0  0  0
    7.9280   14.5570   -2.3430 C   0  0  0  0  0  0  0  0  0  0  0  0
    9.2160   13.5420   -4.2290 C   0  0  0  0  0  0  0  0  0  0  0  0
    9.0020   12.1510   -4.4710 O   0  0  0  0  0  0  0  0  0  0  0  0
    9.7830   11.7740   -4.9040 H   0  0  0  0  0  0  0  0  0  0  0  0
  1  7  1  0  0  0  0
  2  1  1  0  0  0  0
  2  3  2  0  0  0  0
  4  5  2  0  0  0  0
  4 10  1  0  0  0  0
  6  5  1  0  0  0  0
  7  8  1  0  0  0  0
  7  6  2  0  0  0  0
  8  4  1  0  0  0  0
  9 10  1  0  0  0  0
 11  2  1  0  0  0  0
 12 13  1  0  0  0  0
 12 11  1  0  0  0  0
 14 12  1  0  0  0  0
 15 17  1  0  0  0  0
 15 16  1  0  0  0  0
 15 12  1  0  0  0  0
 18 15  1  0  0  0  0
 19 18  1  0  0  0  0
 20 19  1  0  0  0  0
M  END
>  <MODEL>
1

>  <REMARK>
 VINA RESULT:      -5.6      0.000      0.000
  Name = ZINC21264479
                            x       y       z     vdW  Elec       q    Type
                         _______ _______ _______ _____ _____    ______ ____

>  <TORSDO>
F 7

>  <vina_score>
-5.6

$$$$
ZINC16769863
 OpenBabel01081722493D

 32 34  0  0  1  0  0  0  0  0999 V2000
    6.6780   10.8060   -1.5010 C   0  0  0  0  0  0  0  0  0  0  0  0
    7.3730   12.1140   -1.2190 C   0  0  0  0  0  0  0  0  0  0  0  0
    8.0030   12.7700   -2.2120 N   0  0  0  0  0  0  0  0  0  0  0  0
    8.0100   12.3970   -3.1240 H   0  0  0  0  0  0  0  0  0  0  0  0
    7.3650   12.5740   -0.0970 O   0  0  0  0  0  0  0  0  0  0  0  0
    8.6490   13.9860   -1.9500 N   0  0  0  0  0  0  0  0  0  0  0  0
    8.1210   14.7840   -1.7210 H   0  0  0  0  0  0  0  0  0  0  0  0
    9.9920   14.0620   -2.0100 C   0  0  0  0  0  0  0  0  0  0  0  0
   10.6440   13.0790   -2.2920 O   0  0  0  0  0  0  0  0  0  0  0  0
   10.6870   15.3700   -1.7280 C   0  0  0  0  0  0  0  0  0  0  0  0
   10.7750   15.5850   -0.2160 C   0  0  1  0  0  0  0  0  0  0  0  0
    9.7060   16.6000    0.2190 C   0  0  0  0  0  0  0  0  0  0  0  0
    9.6060   16.5630    1.7710 C   0  0  0  0  0  0  0  0  0  0  0  0
    9.7340   14.7500    2.0750 S   0  0  0  0  0  0  0  0  0  0  0  0
   10.6280   14.5250    3.1570 O   0  0  0  0  0  0  0  0  0  0  0  0
    8.4270   14.1970    2.1200 O   0  0  0  0  0  0  0  0  0  0  0  0
   10.5500   14.2360    0.5090 C   0  0  0  0  0  0  0  0  0  0  0  0
    5.7330   10.2960   -0.0400 S   0  0  0  0  0  0  0  0  0  0  0  0
    9.0500   10.2160    2.9040 C   0  0  0  0  0  0  0  0  0  0  0  0
    7.8330   10.3100    3.4050 N   0  0  0  0  0  0  0  0  0  0  0  0
    6.7480   10.3470    2.5610 N   0  0  0  0  0  0  0  0  0  0  0  0
    6.9280   10.2770    1.2560 C   0  0  0  0  0  0  0  0  0  0  0  0
    8.7080   10.1610    1.1520 S   0  0  0  0  0  0  0  0  0  0  0  0
   10.2730   10.1660    3.5640 N   0  0  0  0  0  0  0  0  0  0  0  0
   10.3940    9.5640    4.3340 H   0  0  0  0  0  0  0  0  0  0  0  0
   14.2280   12.8820    4.6340 C   0  0  0  0  0  0  0  0  0  0  0  0
   13.2650   12.3000    3.6320 C   0  0  0  0  0  0  0  0  0  0  0  0
   13.4290   12.5620    2.2840 C   0  0  0  0  0  0  0  0  0  0  0  0
   12.5480   12.0320    1.3600 C   0  0  0  0  0  0  0  0  0  0  0  0
   11.5000   11.2350    1.7810 C   0  0  0  0  0  0  0  0  0  0  0  0
   11.3320   10.9700    3.1350 C   0  0  0  0  0  0  0  0  0  0  0  0
   12.2200   11.5060    4.0590 C   0  0  0  0  0  0  0  0  0  0  0  0
  1  2  1  0  0  0  0
  1 18  1  0  0  0  0
  2  5  2  0  0  0  0
  3  6  1  0  0  0  0
  3  2  1  0  0  0  0
  4  3  1  0  0  0  0
  6  7  1  0  0  0  0
  8  6  1  0  0  0  0
  8 10  1  0  0  0  0
  9  8  2  0  0  0  0
 11 10  1  6  0  0  0
 11 12  1  0  0  0  0
 11 17  1  0  0  0  0
 12 13  1  0  0  0  0
 13 14  1  0  0  0  0
 14 16  2  0  0  0  0
 14 15  2  0  0  0  0
 17 14  1  0  0  0  0
 18 22  1  0  0  0  0
 19 20  2  0  0  0  0
 19 24  1  0  0  0  0
 21 20  1  0  0  0  0
 22 21  2  0  0  0  0
 23 22  1  0  0  0  0
 23 19  1  0  0  0  0
 24 25  1  0  0  0  0
 27 32  1  0  0  0  0
 27 26  1  0  0  0  0
 28 27  2  0  0  0  0
 29 30  2  0  0  0  0
 29 28  1  0  0  0  0
 30 31  1  0  0  0  0
 31 24  1  0  0  0  0
 31 32  2  0  0  0  0
M  END
>  <MODEL>
1

>  <REMARK>
 VINA RESULT:      -5.6      0.000      0.000
  Name = ZINC16769863
                            x       y       z     vdW  Elec       q    Type
                         _______ _______ _______ _____ _____    ______ ____

>  <TORSDO>
F 8

>  <vina_score>
-5.6

$$$$
ZINC05887406
 OpenBabel01081722523D

 33 33  0  0  1  0  0  0  0  0999 V2000
   11.5330   13.0210    2.6760 C   0  0  2  0  0  0  0  0  0  0  0  0
   11.2150   12.6980    1.2390 C   0  0  0  0  0  0  0  0  0  0  0  0
   10.9030   13.6890    0.3800 N   0  0  0  0  0  0  0  0  0  0  0  0
   10.9530   14.6280    0.6720 H   0  0  0  0  0  0  0  0  0  0  0  0
   11.2400   11.5480    0.8560 O   0  0  0  0  0  0  0  0  0  0  0  0
   10.5060   13.3820   -0.9290 C   0  0  0  0  0  0  0  0  0  0  0  0
   11.4510   13.4720   -1.8260 C   0  0  0  0  0  0  0  0  0  0  0  0
   11.3300   13.1800   -3.2760 C   0  0  0  0  0  0  0  0  0  0  0  0
    9.9980   13.5650   -3.8670 C   0  0  0  0  0  0  0  0  0  0  0  0
    8.8870   12.6120   -3.5090 C   0  0  0  0  0  0  0  0  0  0  0  0
    8.4160   12.7470   -2.1540 N   0  0  0  0  0  0  0  0  0  0  0  0
    9.1180   13.0140   -1.0750 C   0  0  0  0  0  0  0  0  0  0  0  0
    8.4990   12.9390   -0.0310 O   0  0  0  0  0  0  0  0  0  0  0  0
    6.9760   12.5670   -1.9540 C   0  0  0  0  0  0  0  0  0  0  0  0
    6.6890   11.1020   -1.6160 C   0  0  0  0  0  0  0  0  0  0  0  0
    5.5960   11.0300   -0.6990 O   0  0  0  0  0  0  0  0  0  0  0  0
    5.8900   10.3150    0.5020 C   0  0  0  0  0  0  0  0  0  0  0  0
   12.0140   11.7550    3.3880 C   0  0  0  0  0  0  0  0  0  0  0  0
   13.9800   12.9810    4.3240 C   0  0  0  0  0  0  0  0  0  0  0  0
   13.5410   11.7770    3.4900 C   0  0  0  0  0  0  0  0  0  0  0  0
   14.0260   10.4880    4.1580 C   0  0  0  0  0  0  0  0  0  0  0  0
   10.2750   13.5490    3.3700 C   0  0  2  0  0  0  0  0  0  0  0  0
    9.4510   12.3890    3.8650 C   0  0  0  0  0  0  0  0  0  0  0  0
    8.7850   11.6120    2.9860 N   0  0  0  0  0  0  0  0  0  0  0  0
    8.8960   11.7580    2.0190 H   0  0  0  0  0  0  0  0  0  0  0  0
    9.3840   12.1540    5.0520 O   0  0  0  0  0  0  0  0  0  0  0  0
    7.9250   10.5890    3.4550 O   0  0  0  0  0  0  0  0  0  0  0  0
    7.0060   10.8190    3.2460 H   0  0  0  0  0  0  0  0  0  0  0  0
    9.4530   14.3710    2.3760 C   0  0  0  0  0  0  0  0  0  0  0  0
    9.4110   15.8310    2.8330 C   0  0  0  0  0  0  0  0  0  0  0  0
    9.6480   16.7480    1.6310 C   0  0  0  0  0  0  0  0  0  0  0  0
    9.2400   16.0800    0.4350 O   0  0  0  0  0  0  0  0  0  0  0  0
    9.9450   15.4810    0.1430 H   0  0  0  0  0  0  0  0  0  0  0  0
  1  2  1  6  0  0  0
  1 22  1  0  0  0  0
  1 18  1  0  0  0  0
  3  4  1  0  0  0  0
  3  2  1  0  0  0  0
  5  2  2  0  0  0  0
  6  3  1  0  0  0  0
  7  6  2  0  0  0  0
  8  7  1  0  0  0  0
  9 10  1  0  0  0  0
  9  8  1  0  0  0  0
 10 11  1  0  0  0  0
 11 14  1  0  0  0  0
 11 12  1  0  0  0  0
 12  6  1  0  0  0  0
 12 13  2  0  0  0  0
 14 15  1  0  0  0  0
 15 16  1  0  0  0  0
 16 17  1  0  0  0  0
 18 20  1  0  0  0  0
 20 21  1  0  0  0  0
 20 19  1  0  0  0  0
 22 29  1  6  0  0  0
 22 23  1  0  0  0  0
 23 26  2  0  0  0  0
 24 27  1  0  0  0  0
 24 23  1  0  0  0  0
 25 24  1  0  0  0  0
 28 27  1  0  0  0  0
 29 30  1  0  0  0  0
 31 30  1  0  0  0  0
 32 31  1  0  0  0  0
 33 32  1  0  0  0  0
M  END
>  <MODEL>
1

>  <REMARK>
 VINA RESULT:      -5.6      0.000      0.000
  Name = ZINC05887406
                            x       y       z     vdW  Elec       q    Type
                         _______ _______ _______ _____ _____    ______ ____

>  <TORSDO>
F 14

>  <vina_score>
-5.6

$$$$
ZINC26641275
 OpenBabel01081722563D

 32 32  0  0  1  0  0  0  0  0999 V2000
    9.7220   13.6520   -1.8790 S   0  0  0  0  0  0  0  0  0  0  0  0
   10.1320   12.4570   -0.6510 C   0  0  0  0  0  0  0  0  0  0  0  0
   11.3210   11.9470   -0.4230 N   0  0  0  0  0  0  0  0  0  0  0  0
   11.2570   11.1050    0.5450 N   0  0  0  0  0  0  0  0  0  0  0  0
   10.0350   11.0270    0.9900 C   0  0  0  0  0  0  0  0  0  0  0  0
    9.2750   11.8860    0.2440 N   0  0  0  0  0  0  0  0  0  0  0  0
    9.5500   10.1540    2.1180 C   0  0  0  0  0  0  0  0  0  0  0  0
   10.2660   10.5470    3.4120 C   0  0  0  0  0  0  0  0  0  0  0  0
    9.3200   11.3210    4.2940 C   0  0  0  0  0  0  0  0  0  0  0  0
    9.5520   12.6230    4.5500 N   0  0  0  0  0  0  0  0  0  0  0  0
    8.9340   13.1300    5.1260 H   0  0  0  0  0  0  0  0  0  0  0  0
   10.3380   13.0700    4.1610 H   0  0  0  0  0  0  0  0  0  0  0  0
    8.3520   10.7710    4.7740 O   0  0  0  0  0  0  0  0  0  0  0  0
    7.8370   12.1390    0.3780 C   0  0  0  0  0  0  0  0  0  0  0  0
    7.0640   10.8520    0.0880 C   0  0  0  0  0  0  0  0  0  0  0  0
    6.1110   11.0830   -1.0860 C   0  0  0  0  0  0  0  0  0  0  0  0
    6.2590   10.4520    1.3270 C   0  0  0  0  0  0  0  0  0  0  0  0
   10.1880   15.1690   -1.0080 C   0  0  2  0  0  0  0  0  0  0  0  0
   11.4180   15.7850   -1.6780 C   0  0  0  0  0  0  0  0  0  0  0  0
   13.0800   13.2700    2.3300 N   0  0  0  0  0  0  0  0  0  0  0  0
   13.7060   13.0110    1.6160 H   0  0  0  0  0  0  0  0  0  0  0  0
   11.9360   13.9130    2.0220 C   0  0  0  0  0  0  0  0  0  0  0  0
   11.6510   14.2030    0.7370 N   0  0  0  0  0  0  0  0  0  0  0  0
   12.2770   13.9440    0.0230 H   0  0  0  0  0  0  0  0  0  0  0  0
   10.5070   14.8460    0.4290 C   0  0  0  0  0  0  0  0  0  0  0  0
    9.7350   15.1640    1.3080 O   0  0  0  0  0  0  0  0  0  0  0  0
   11.1620   14.2320    2.9030 O   0  0  0  0  0  0  0  0  0  0  0  0
   13.3900   12.9550    3.7260 C   0  0  0  0  0  0  0  0  0  0  0  0
   13.7380   11.4700    3.8490 C   0  0  0  0  0  0  0  0  0  0  0  0
   15.6580   10.1530    4.7570 C   0  0  0  0  0  0  0  0  0  0  0  0
   14.6440   11.2580    5.0640 C   0  0  0  0  0  0  0  0  0  0  0  0
   15.3860   12.5580    5.3800 C   0  0  0  0  0  0  0  0  0  0  0  0
  1  2  1  0  0  0  0
  2  3  2  0  0  0  0
  2  6  1  0  0  0  0
  3  4  1  0  0  0  0
  4  5  2  0  0  0  0
  5  7  1  0  0  0  0
  6 14  1  0  0  0  0
  6  5  1  0  0  0  0
  7  8  1  0  0  0  0
  8  9  1  0  0  0  0
  9 10  1  0  0  0  0
  9 13  2  0  0  0  0
 10 11  1  0  0  0  0
 12 10  1  0  0  0  0
 15 14  1  0  0  0  0
 15 17  1  0  0  0  0
 16 15  1  0  0  0  0
 18  1  1  6  0  0  0
 18 25  1  0  0  0  0
 19 18  1  0  0  0  0
 20 28  1  0  0  0  0
 21 20  1  0  0  0  0
 22 20  1  0  0  0  0
 22 27  2  0  0  0  0
 23 22  1  0  0  0  0
 24 23  1  0  0  0  0
 25 23  1  0  0  0  0
 25 26  2  0  0  0  0
 28 29  1  0  0  0  0
 29 31  1  0  0  0  0
 30 31  1  0  0  0  0
 31 32  1  0  0  0  0
M  END
>  <MODEL>
1

>  <REMARK>
 VINA RESULT:      -5.6      0.000      0.000
  Name = ZINC26641275
                            x       y       z     vdW  Elec       q    Type
                         _______ _______ _______ _____ _____    ______ ____

>  <TORSDO>
F 11

>  <vina_score>
-5.6

$$$$
ZINC06425106
 OpenBabel01081722573D

 22 21  0  0  1  0  0  0  0  0999 V2000
   10.9600   15.1620   -0.9090 C   0  0  1  0  0  0  0  0  0  0  0  0
   10.9540   16.1730   -1.9180 O   0  0  0  0  0  0  0  0  0  0  0  0
   10.9410   15.7570   -2.7940 H   0  0  0  0  0  0  0  0  0  0  0  0
   10.2450   15.6830    0.3390 C   0  0  2  0  0  0  0  0  0  0  0  0
    9.9120   14.4210    2.3870 N   0  0  0  0  0  0  0  0  0  0  0  0
    9.6830   14.5210    1.1170 C   0  0  0  0  0  0  0  0  0  0  0  0
   10.2000   12.4380    3.6240 C   0  0  0  0  0  0  0  0  0  0  0  0
   11.9420   12.5900    3.4020 S   0  0  0  0  0  0  0  0  0  0  0  0
    9.3890   13.3420    3.1100 N   0  0  0  0  0  0  0  0  0  0  0  0
    8.6590   10.2150    3.2110 C   0  0  0  0  0  0  0  0  0  0  0  0
    9.5420   11.0800    4.5330 S   0  0  0  0  0  0  0  0  0  0  0  0
    9.1820   16.5550   -0.0500 O   0  0  0  0  0  0  0  0  0  0  0  0
    8.3700   16.3050    0.4190 H   0  0  0  0  0  0  0  0  0  0  0  0
   10.2360   13.9180   -1.4290 C   0  0  2  0  0  0  0  0  0  0  0  0
   11.1980   12.9380   -1.8260 O   0  0  0  0  0  0  0  0  0  0  0  0
   12.0030   13.3820   -2.1350 H   0  0  0  0  0  0  0  0  0  0  0  0
    9.3690   14.2980   -2.6320 C   0  0  2  0  0  0  0  0  0  0  0  0
    8.1420   14.8680   -2.1740 O   0  0  0  0  0  0  0  0  0  0  0  0
    8.3290   15.6820   -1.6790 H   0  0  0  0  0  0  0  0  0  0  0  0
    9.0730   13.0480   -3.4630 C   0  0  0  0  0  0  0  0  0  0  0  0
    9.9520   13.0050   -4.5890 O   0  0  0  0  0  0  0  0  0  0  0  0
   10.7860   12.5810   -4.3310 H   0  0  0  0  0  0  0  0  0  0  0  0
  1  2  1  6  0  0  0
  1  4  1  0  0  0  0
  3  2  1  0  0  0  0
  4 12  1  6  0  0  0
  4  6  1  0  0  0  0
  5  9  1  0  0  0  0
  6  5  2  0  0  0  0
  7 11  1  0  0  0  0
  8  7  2  0  0  0  0
  9  7  1  0  0  0  0
 10 11  1  0  0  0  0
 12 13  1  0  0  0  0
 14 15  1  6  0  0  0
 14  1  1  0  0  0  0
 16 15  1  0  0  0  0
 17 20  1  1  0  0  0
 17 18  1  0  0  0  0
 17 14  1  0  0  0  0
 18 19  1  0  0  0  0
 21 22  1  0  0  0  0
 21 20  1  0  0  0  0
M  END
>  <MODEL>
1

>  <REMARK>
 VINA RESULT:      -5.6      0.000      0.000
  Name = ZINC06425106
                            x       y       z     vdW  Elec       q    Type
                         _______ _______ _______ _____ _____    ______ ____

>  <TORSDO>
F 12

>  <vina_score>
-5.6

$$$$
ZINC20236263
 OpenBabel01081722393D

 22 22  0  0  0  0  0  0  0  0999 V2000
    9.0100   13.0520   -0.4040 N   0  0  0  0  0  0  0  0  0  0  0  0
   11.5870   13.2210    2.8680 C   0  0  0  0  0  0  0  0  0  0  0  0
   11.9190   12.4500    1.7640 C   0  0  0  0  0  0  0  0  0  0  0  0
   11.0660   12.3930    0.6790 C   0  0  0  0  0  0  0  0  0  0  0  0
    9.8760   13.1090    0.6950 C   0  0  0  0  0  0  0  0  0  0  0  0
    9.5450   13.8800    1.8000 C   0  0  0  0  0  0  0  0  0  0  0  0
   10.3990   13.9360    2.8840 C   0  0  0  0  0  0  0  0  0  0  0  0
   12.4280   13.2750    3.9360 O   0  0  0  0  0  0  0  0  0  0  0  0
   14.6770   12.9420    4.7580 C   0  0  0  0  0  0  0  0  0  0  0  0
   13.5200   12.3530    3.9490 C   0  0  0  0  0  0  0  0  0  0  0  0
    9.1290   14.1780   -1.6110 S   0  0  0  0  0  0  0  0  0  0  0  0
    9.9050   15.2500   -1.0920 O   0  0  0  0  0  0  0  0  0  0  0  0
    7.8170   14.3650   -2.1230 O   0  0  0  0  0  0  0  0  0  0  0  0
   10.0200   13.4980   -2.8310 N   0  0  0  0  0  0  0  0  0  0  0  0
    9.3460   12.9390   -4.0060 C   0  0  0  0  0  0  0  0  0  0  0  0
   11.4810   13.4570   -2.7360 C   0  0  0  0  0  0  0  0  0  0  0  0
    8.0000   11.9940   -0.4850 C   0  0  0  0  0  0  0  0  0  0  0  0
    7.7730   11.3970    0.9050 C   0  0  0  0  0  0  0  0  0  0  0  0
    6.3630   11.0120    1.0490 N   0  0  0  0  0  0  0  0  0  0  0  0
    5.7680   11.7950    0.7790 H   0  0  0  0  0  0  0  0  0  0  0  0
    6.1660   10.2120    0.4470 H   0  0  0  0  0  0  0  0  0  0  0  0
    6.1770   10.7600    2.0190 H   0  0  0  0  0  0  0  0  0  0  0  0
  1  5  1  0  0  0  0
  2  7  1  0  0  0  0
  2  8  1  0  0  0  0
  3  2  2  0  0  0  0
  4  5  2  0  0  0  0
  4  3  1  0  0  0  0
  5  6  1  0  0  0  0
  6  7  2  0  0  0  0
  8 10  1  0  0  0  0
 10  9  1  0  0  0  0
 11 12  2  0  0  0  0
 11  1  1  0  0  0  0
 13 11  2  0  0  0  0
 14 16  1  0  0  0  0
 14 11  1  0  0  0  0
 15 14  1  0  0  0  0
 17  1  1  0  0  0  0
 17 18  1  0  0  0  0
 18 19  1  0  0  0  0
 19 22  1  0  0  0  0
 20 19  1  0  0  0  0
 21 19  1  0  0  0  0
M  END
>  <MODEL>
1

>  <REMARK>
 VINA RESULT:      -5.6      0.000      0.000
  Name = ZINC20236263
                            x       y       z     vdW  Elec       q    Type
                         _______ _______ _______ _____ _____    ______ ____

>  <TORSDO>
F 8

>  <vina_score>
-5.6

$$$$
ZINC23696717
 OpenBabel01081722313D

 29 29  0  0  0  0  0  0  0  0999 V2000
   11.3850   11.0860    3.0960 N   0  0  0  0  0  0  0  0  0  0  0  0
   11.0840   11.9560    2.0740 C   0  0  0  0  0  0  0  0  0  0  0  0
    9.8920   12.6510    2.1100 C   0  0  0  0  0  0  0  0  0  0  0  0
    9.0260   12.4580    3.2020 C   0  0  0  0  0  0  0  0  0  0  0  0
    9.3700   11.5980    4.1800 N   0  0  0  0  0  0  0  0  0  0  0  0
    8.7650   11.4620    4.9440 H   0  0  0  0  0  0  0  0  0  0  0  0
    7.9690   13.0640    3.2620 O   0  0  0  0  0  0  0  0  0  0  0  0
   10.5330   10.9240    4.1260 C   0  0  0  0  0  0  0  0  0  0  0  0
   10.8200   10.1540    5.0220 O   0  0  0  0  0  0  0  0  0  0  0  0
   11.9560   12.1260    1.0260 N   0  0  0  0  0  0  0  0  0  0  0  0
   12.3480   13.0110    0.8490 H   0  0  0  0  0  0  0  0  0  0  0  0
   12.1900   11.3600    0.4520 H   0  0  0  0  0  0  0  0  0  0  0  0
    9.5530   13.5460    1.0740 N   0  0  0  0  0  0  0  0  0  0  0  0
    8.7600   13.1390    0.0620 C   0  0  0  0  0  0  0  0  0  0  0  0
    8.2640   12.0310    0.0880 O   0  0  0  0  0  0  0  0  0  0  0  0
   10.0630   14.9200    1.0970 C   0  0  0  0  0  0  0  0  0  0  0  0
    9.4090   15.6860    2.2500 C   0  0  0  0  0  0  0  0  0  0  0  0
    8.4880   14.0580   -1.1010 C   0  0  0  0  0  0  0  0  0  0  0  0
    8.9100   13.4070   -2.3490 N   0  0  0  0  0  0  0  0  0  0  0  0
    8.2440   12.6620   -2.5540 H   0  0  0  0  0  0  0  0  0  0  0  0
    8.8870   14.3550   -3.4710 C   0  0  0  0  0  0  0  0  0  0  0  0
   10.2380   12.7970   -2.2020 C   0  0  0  0  0  0  0  0  0  0  0  0
   11.2810   13.6710   -2.9010 C   0  0  0  0  0  0  0  0  0  0  0  0
   12.2260   14.2700   -1.8580 C   0  0  0  0  0  0  0  0  0  0  0  0
   11.8910   15.7500   -1.6570 C   0  0  0  0  0  0  0  0  0  0  0  0
   12.6430   10.3360    3.0680 C   0  0  0  0  0  0  0  0  0  0  0  0
   13.7290   11.1350    3.7910 C   0  0  0  0  0  0  0  0  0  0  0  0
   15.5830   11.0020    5.4610 C   0  0  0  0  0  0  0  0  0  0  0  0
   14.5700   10.1890    4.6520 C   0  0  0  0  0  0  0  0  0  0  0  0
  1  8  1  0  0  0  0
  2  3  2  0  0  0  0
  2  1  1  0  0  0  0
  3  4  1  0  0  0  0
  4  7  2  0  0  0  0
  4  5  1  0  0  0  0
  5  6  1  0  0  0  0
  8  5  1  0  0  0  0
  8  9  2  0  0  0  0
 10  2  1  0  0  0  0
 11 10  1  0  0  0  0
 12 10  1  0  0  0  0
 13 16  1  0  0  0  0
 13  3  1  0  0  0  0
 14 15  2  0  0  0  0
 14 13  1  0  0  0  0
 16 17  1  0  0  0  0
 18 14  1  0  0  0  0
 19 22  1  0  0  0  0
 19 18  1  0  0  0  0
 20 19  1  0  0  0  0
 21 19  1  0  0  0  0
 23 22  1  0  0  0  0
 23 24  1  0  0  0  0
 24 25  1  0  0  0  0
 26  1  1  0  0  0  0
 26 27  1  0  0  0  0
 27 29  1  0  0  0  0
 29 28  1  0  0  0  0
M  END
>  <MODEL>
1

>  <REMARK>
 VINA RESULT:      -5.5      0.000      0.000
  Name = ZINC23696717
                            x       y       z     vdW  Elec       q    Type
                         _______ _______ _______ _____ _____    ______ ____

>  <TORSDO>
F 11

>  <vina_score>
-5.5

$$$$
ZINC23280832
 OpenBabel01081722433D

 29 30  0  0  0  0  0  0  0  0999 V2000
    8.6240   10.1780    2.8880 N   0  0  0  0  0  0  0  0  0  0  0  0
    9.0950    9.3980    2.5140 H   0  0  0  0  0  0  0  0  0  0  0  0
    9.1660   10.8630    3.9150 C   0  0  0  0  0  0  0  0  0  0  0  0
    8.5850   11.8230    4.3770 O   0  0  0  0  0  0  0  0  0  0  0  0
    7.3360   10.5920    2.3300 C   0  0  0  0  0  0  0  0  0  0  0  0
    8.2670   12.6490   -1.1990 C   0  0  0  0  0  0  0  0  0  0  0  0
    7.3090   11.6970   -1.3160 C   0  0  0  0  0  0  0  0  0  0  0  0
    6.9440   10.9720   -0.1970 C   0  0  0  0  0  0  0  0  0  0  0  0
    7.5550   11.2350    0.9840 C   0  0  0  0  0  0  0  0  0  0  0  0
    8.6790   12.5460    0.5350 S   0  0  0  0  0  0  0  0  0  0  0  0
    8.9280   13.7160   -2.4350 S   0  0  0  0  0  0  0  0  0  0  0  0
    8.0410   14.8210   -2.5360 O   0  0  0  0  0  0  0  0  0  0  0  0
    9.2530   12.8950   -3.5490 O   0  0  0  0  0  0  0  0  0  0  0  0
   10.3600   14.3110   -1.8530 N   0  0  0  0  0  0  0  0  0  0  0  0
   12.1570   13.5880   -0.3600 C   0  0  0  0  0  0  0  0  0  0  0  0
   11.5280   13.4330   -1.7470 C   0  0  0  0  0  0  0  0  0  0  0  0
   10.4580   15.7140   -1.4450 C   0  0  0  0  0  0  0  0  0  0  0  0
    9.8830   15.8760   -0.0360 C   0  0  0  0  0  0  0  0  0  0  0  0
   10.4920   10.4360    4.4900 C   0  0  0  0  0  0  0  0  0  0  0  0
   11.7090   10.2960    3.1560 S   0  0  0  0  0  0  0  0  0  0  0  0
   13.1480   10.8740    3.9930 C   0  0  0  0  0  0  0  0  0  0  0  0
   13.9340   10.1680    4.7730 N   0  0  0  0  0  0  0  0  0  0  0  0
   14.8870   10.9070    5.2160 N   0  0  0  0  0  0  0  0  0  0  0  0
   14.7670   12.1190    4.7500 C   0  0  0  0  0  0  0  0  0  0  0  0
   15.6880   13.2780    5.0310 C   0  0  0  0  0  0  0  0  0  0  0  0
   13.6550   12.1410    3.9550 N   0  0  0  0  0  0  0  0  0  0  0  0
   13.1550   13.2080    3.2650 N   0  0  0  0  0  0  0  0  0  0  0  0
   13.6200   14.0760    3.2960 H   0  0  0  0  0  0  0  0  0  0  0  0
   12.3300   13.1110    2.7370 H   0  0  0  0  0  0  0  0  0  0  0  0
  1  3  1  0  0  0  0
  2  1  1  0  0  0  0
  3  4  2  0  0  0  0
  3 19  1  0  0  0  0
  5  1  1  0  0  0  0
  6 10  1  0  0  0  0
  7  6  2  0  0  0  0
  7  8  1  0  0  0  0
  8  9  2  0  0  0  0
  9  5  1  0  0  0  0
 10  9  1  0  0  0  0
 11 14  1  0  0  0  0
 11  6  1  0  0  0  0
 12 11  2  0  0  0  0
 13 11  2  0  0  0  0
 14 16  1  0  0  0  0
 14 17  1  0  0  0  0
 16 15  1  0  0  0  0
 17 18  1  0  0  0  0
 20 21  1  0  0  0  0
 20 19  1  0  0  0  0
 21 22  2  0  0  0  0
 22 23  1  0  0  0  0
 24 25  1  0  0  0  0
 24 23  2  0  0  0  0
 26 21  1  0  0  0  0
 26 24  1  0  0  0  0
 27 28  1  0  0  0  0
 27 26  1  0  0  0  0
 29 27  1  0  0  0  0
M  END
>  <MODEL>
1

>  <REMARK>
 VINA RESULT:      -5.5      0.000      0.000
  Name = ZINC23280832
                            x       y       z     vdW  Elec       q    Type
                         _______ _______ _______ _____ _____    ______ ____

>  <TORSDO>
F 10

>  <vina_score>
-5.5

$$$$
ZINC24195016
 OpenBabel01081722513D

 30 31  0  0  1  0  0  0  0  0999 V2000
   10.8170   12.3410    2.2290 C   0  0  0  0  0  0  0  0  0  0  0  0
   11.1650   13.4720    1.5790 C   0  0  0  0  0  0  0  0  0  0  0  0
   10.4930   14.6420    1.7940 N   0  0  0  0  0  0  0  0  0  0  0  0
   10.7830   15.4410    1.2970 H   0  0  0  0  0  0  0  0  0  0  0  0
    9.4640   14.7630    2.6400 C   0  0  0  0  0  0  0  0  0  0  0  0
    9.0020   13.7230    3.3620 N   0  0  0  0  0  0  0  0  0  0  0  0
    8.2440   13.8350    3.9800 H   0  0  0  0  0  0  0  0  0  0  0  0
    8.9290   15.8480    2.7640 O   0  0  0  0  0  0  0  0  0  0  0  0
    9.6580   12.4130    3.2030 C   0  0  2  0  0  0  0  0  0  0  0  0
   10.1670   11.9720    4.5770 C   0  0  0  0  0  0  0  0  0  0  0  0
   11.5110   11.1280    2.0090 C   0  0  0  0  0  0  0  0  0  0  0  0
   10.9140   10.1530    1.5890 O   0  0  0  0  0  0  0  0  0  0  0  0
   12.8330   11.0510    2.2630 O   0  0  0  0  0  0  0  0  0  0  0  0
   13.8430   12.4290    3.9720 C   0  0  0  0  0  0  0  0  0  0  0  0
   13.2320   11.0680    3.6360 C   0  0  0  0  0  0  0  0  0  0  0  0
   12.3110   13.4430    0.6030 C   0  0  0  0  0  0  0  0  0  0  0  0
   12.2390   14.6070   -0.2630 O   0  0  0  0  0  0  0  0  0  0  0  0
   11.7570   14.4170   -1.5010 C   0  0  0  0  0  0  0  0  0  0  0  0
   11.8160   15.3070   -2.3160 O   0  0  0  0  0  0  0  0  0  0  0  0
   11.1440   13.0920   -1.8750 C   0  0  0  0  0  0  0  0  0  0  0  0
    9.8630   13.3190   -2.5480 N   0  0  0  0  0  0  0  0  0  0  0  0
    9.7490   13.1180   -3.9950 C   0  0  0  0  0  0  0  0  0  0  0  0
    8.5420   13.8000   -1.6730 S   0  0  0  0  0  0  0  0  0  0  0  0
    7.5930   14.2960   -2.6080 O   0  0  0  0  0  0  0  0  0  0  0  0
    9.0320   14.5850   -0.5940 O   0  0  0  0  0  0  0  0  0  0  0  0
    7.8340   12.3510   -0.9590 C   0  0  0  0  0  0  0  0  0  0  0  0
    8.2210   11.6690    0.1460 C   0  0  0  0  0  0  0  0  0  0  0  0
    7.5060   10.5480    0.5240 C   0  0  0  0  0  0  0  0  0  0  0  0
    6.4470   10.1580   -0.2260 C   0  0  0  0  0  0  0  0  0  0  0  0
    6.4290   11.3980   -1.5110 S   0  0  0  0  0  0  0  0  0  0  0  0
  1  9  1  0  0  0  0
  2  3  1  0  0  0  0
  2  1  2  0  0  0  0
  3  5  1  0  0  0  0
  4  3  1  0  0  0  0
  5  8  2  0  0  0  0
  5  6  1  0  0  0  0
  6  7  1  0  0  0  0
  9  6  1  0  0  0  0
  9 10  1  1  0  0  0
 11  1  1  0  0  0  0
 11 13  1  0  0  0  0
 12 11  2  0  0  0  0
 13 15  1  0  0  0  0
 15 14  1  0  0  0  0
 16  2  1  0  0  0  0
 17 16  1  0  0  0  0
 18 17  1  0  0  0  0
 19 18  2  0  0  0  0
 20 18  1  0  0  0  0
 21 20  1  0  0  0  0
 21 23  1  0  0  0  0
 22 21  1  0  0  0  0
 23 26  1  0  0  0  0
 23 25  2  0  0  0  0
 24 23  2  0  0  0  0
 26 27  2  0  0  0  0
 27 28  1  0  0  0  0
 29 28  2  0  0  0  0
 30 26  1  0  0  0  0
 30 29  1  0  0  0  0
M  END
>  <MODEL>
1

>  <REMARK>
 VINA RESULT:      -5.5      0.000      0.000
  Name = ZINC24195016
                            x       y       z     vdW  Elec       q    Type
                         _______ _______ _______ _____ _____    ______ ____

>  <TORSDO>
F 10

>  <vina_score>
-5.5

$$$$
ZINC20185343
 OpenBabel01081722513D

 21 22  0  0  1  0  0  0  0  0999 V2000
   11.7000   13.3760    0.0240 C   0  0  0  0  0  0  0  0  0  0  0  0
   11.1820   12.8600   -1.0740 N   0  0  0  0  0  0  0  0  0  0  0  0
   11.1960   13.5260   -2.2140 C   0  0  0  0  0  0  0  0  0  0  0  0
   11.7650   14.7540   -2.2370 C   0  0  0  0  0  0  0  0  0  0  0  0
   12.2770   14.9160   -0.5330 S   0  0  0  0  0  0  0  0  0  0  0  0
   11.7690   12.8280    1.2960 N   0  0  0  0  0  0  0  0  0  0  0  0
   10.5400   12.5530    2.0430 C   0  0  1  0  0  0  0  0  0  0  0  0
    9.6590   13.8140    2.0580 C   0  0  0  0  0  0  0  0  0  0  0  0
    8.2480   13.4120    2.5740 C   0  0  0  0  0  0  0  0  0  0  0  0
    8.0200   11.8000    1.7110 S   0  0  0  0  0  0  0  0  0  0  0  0
    7.4920   10.8540    2.6300 O   0  0  0  0  0  0  0  0  0  0  0  0
    7.3510   12.0270    0.4780 O   0  0  0  0  0  0  0  0  0  0  0  0
    9.7790   11.3860    1.3690 C   0  0  0  0  0  0  0  0  0  0  0  0
   13.0480   12.8760    3.3800 C   0  0  0  0  0  0  0  0  0  0  0  0
   13.0720   12.5240    1.8910 C   0  0  0  0  0  0  0  0  0  0  0  0
   10.5960   12.9300   -3.4610 C   0  0  0  0  0  0  0  0  0  0  0  0
    9.1180   13.3160   -3.5510 C   0  0  0  0  0  0  0  0  0  0  0  0
    8.3680   12.6290   -2.4900 N   0  0  0  0  0  0  0  0  0  0  0  0
    8.8010   11.7250   -2.2990 H   0  0  0  0  0  0  0  0  0  0  0  0
    8.3770   13.1970   -1.6450 H   0  0  0  0  0  0  0  0  0  0  0  0
    7.4040   12.4860   -2.7940 H   0  0  0  0  0  0  0  0  0  0  0  0
  1  6  1  0  0  0  0
  2  1  2  0  0  0  0
  3  2  1  0  0  0  0
  4  3  2  0  0  0  0
  4  5  1  0  0  0  0
  5  1  1  0  0  0  0
  6 15  1  0  0  0  0
  7  6  1  6  0  0  0
  7  8  1  0  0  0  0
  8  9  1  0  0  0  0
 10  9  1  0  0  0  0
 10 11  2  0  0  0  0
 12 10  2  0  0  0  0
 13 10  1  0  0  0  0
 13  7  1  0  0  0  0
 15 14  1  0  0  0  0
 16  3  1  0  0  0  0
 17 16  1  0  0  0  0
 17 18  1  0  0  0  0
 18 19  1  0  0  0  0
 18 20  1  0  0  0  0
 21 18  1  0  0  0  0
M  END
>  <MODEL>
1

>  <REMARK>
 VINA RESULT:      -5.5      0.000      0.000
  Name = ZINC20185343
                            x       y       z     vdW  Elec       q    Type
                         _______ _______ _______ _____ _____    ______ ____

>  <TORSDO>
F 6

>  <vina_score>
-5.5

$$$$
ZINC06414339
 OpenBabel01081722353D

 34 36  0  0  1  0  0  0  0  0999 V2000
    9.6460   13.2500   -3.0980 C   0  0  1  0  0  0  0  0  0  0  0  0
    9.5260   12.9910   -4.4990 O   0  0  0  0  0  0  0  0  0  0  0  0
    9.3880   12.0410   -4.6420 H   0  0  0  0  0  0  0  0  0  0  0  0
   10.8880   14.1040   -2.8430 C   0  0  0  0  0  0  0  0  0  0  0  0
   11.8960   12.7240    1.0210 N   0  0  0  0  0  0  0  0  0  0  0  0
   11.7630   11.7290   -0.0530 C   0  0  0  0  0  0  0  0  0  0  0  0
   10.9430   12.3260   -1.1990 C   0  0  0  0  0  0  0  0  0  0  0  0
   11.6320   13.5360   -1.6990 N   0  0  0  0  0  0  0  0  0  0  0  0
   12.5700   13.2800   -2.0070 H   0  0  0  0  0  0  0  0  0  0  0  0
   11.7380   14.5370   -0.6160 C   0  0  0  0  0  0  0  0  0  0  0  0
   12.5570   13.9400    0.5290 C   0  0  0  0  0  0  0  0  0  0  0  0
   13.9290   11.1310    4.2910 C   0  0  0  0  0  0  0  0  0  0  0  0
   13.7220   12.4990    4.2040 C   0  0  0  0  0  0  0  0  0  0  0  0
   13.0490   13.0290    3.1210 C   0  0  0  0  0  0  0  0  0  0  0  0
   12.5790   12.1890    2.1180 C   0  0  0  0  0  0  0  0  0  0  0  0
   12.7890   10.8190    2.2060 C   0  0  0  0  0  0  0  0  0  0  0  0
   13.4610   10.2920    3.2910 C   0  0  0  0  0  0  0  0  0  0  0  0
   15.7320   11.3320    5.8310 C   0  0  0  0  0  0  0  0  0  0  0  0
   14.5920   10.6100    5.3590 O   0  0  0  0  0  0  0  0  0  0  0  0
    8.4030   13.9980   -2.6110 C   0  0  0  0  0  0  0  0  0  0  0  0
    7.5490   13.0950   -1.9050 O   0  0  0  0  0  0  0  0  0  0  0  0
    7.8620   12.8350   -0.6120 C   0  0  0  0  0  0  0  0  0  0  0  0
    7.7650   11.5370   -0.1220 C   0  0  0  0  0  0  0  0  0  0  0  0
    8.0870   11.2680    1.1900 C   0  0  0  0  0  0  0  0  0  0  0  0
    8.5010   12.3050    2.0320 C   0  0  0  0  0  0  0  0  0  0  0  0
    8.5920   13.6070    1.5370 C   0  0  0  0  0  0  0  0  0  0  0  0
    8.2740   13.8680    0.2230 C   0  0  0  0  0  0  0  0  0  0  0  0
    8.8420   12.0210    3.4400 C   0  0  0  0  0  0  0  0  0  0  0  0
    9.6550   12.8560    4.1180 N   0  0  0  0  0  0  0  0  0  0  0  0
   10.0220   13.6550    3.6730 H   0  0  0  0  0  0  0  0  0  0  0  0
    8.3900   11.0340    3.9880 O   0  0  0  0  0  0  0  0  0  0  0  0
    9.9710   12.5930    5.4210 N   0  0  0  0  0  0  0  0  0  0  0  0
    9.1610   12.1910    5.8920 H   0  0  0  0  0  0  0  0  0  0  0  0
   10.7470   11.9330    5.4550 H   0  0  0  0  0  0  0  0  0  0  0  0
  1  2  1  6  0  0  0
  1  4  1  0  0  0  0
  1 20  1  0  0  0  0
  3  2  1  0  0  0  0
  4  8  1  0  0  0  0
  5 15  1  0  0  0  0
  6  5  1  0  0  0  0
  7  6  1  0  0  0  0
  8  7  1  0  0  0  0
  8 10  1  0  0  0  0
  9  8  1  0  0  0  0
 10 11  1  0  0  0  0
 11  5  1  0  0  0  0
 12 19  1  0  0  0  0
 13 12  1  0  0  0  0
 14 13  2  0  0  0  0
 15 16  2  0  0  0  0
 15 14  1  0  0  0  0
 16 17  1  0  0  0  0
 17 12  2  0  0  0  0
 19 18  1  0  0  0  0
 20 21  1  0  0  0  0
 21 22  1  0  0  0  0
 22 23  2  0  0  0  0
 22 27  1  0  0  0  0
 23 24  1  0  0  0  0
 24 25  2  0  0  0  0
 25 28  1  0  0  0  0
 26 25  1  0  0  0  0
 27 26  2  0  0  0  0
 28 31  2  0  0  0  0
 28 29  1  0  0  0  0
 29 32  1  0  0  0  0
 30 29  1  0  0  0  0
 32 34  1  0  0  0  0
 32 33  1  0  0  0  0
M  END
>  <MODEL>
1

>  <REMARK>
 VINA RESULT:      -5.5      0.000      0.000
  Name = ZINC06414339
                            x       y       z     vdW  Elec       q    Type
                         _______ _______ _______ _____ _____    ______ ____

>  <TORSDO>
F 10

>  <vina_score>
-5.5

$$$$
ZINC31944609
 OpenBabel01081722553D

 21 21  0  0  0  0  0  0  0  0999 V2000
    9.9200   12.1600    1.7800 N   0  0  0  0  0  0  0  0  0  0  0  0
    9.1070   12.4660    2.2450 H   0  0  0  0  0  0  0  0  0  0  0  0
    9.8800   11.8830    0.4620 C   0  0  0  0  0  0  0  0  0  0  0  0
   10.9000   11.5950   -0.1270 O   0  0  0  0  0  0  0  0  0  0  0  0
   14.7700   11.5570    4.6610 C   0  0  0  0  0  0  0  0  0  0  0  0
   13.4820   11.7180    3.8960 C   0  0  0  0  0  0  0  0  0  0  0  0
   13.1270   12.9570    3.3940 C   0  0  0  0  0  0  0  0  0  0  0  0
   11.9470   13.1060    2.6920 C   0  0  0  0  0  0  0  0  0  0  0  0
   11.1170   12.0110    2.4910 C   0  0  0  0  0  0  0  0  0  0  0  0
   11.4730   10.7700    3.0010 C   0  0  0  0  0  0  0  0  0  0  0  0
   12.6580   10.6260    3.6970 C   0  0  0  0  0  0  0  0  0  0  0  0
    8.5690   11.9320   -0.2790 C   0  0  0  0  0  0  0  0  0  0  0  0
    8.6350   13.2350   -1.5390 S   0  0  0  0  0  0  0  0  0  0  0  0
    7.3110   13.6850   -1.7900 O   0  0  0  0  0  0  0  0  0  0  0  0
    9.4250   12.7690   -2.6250 O   0  0  0  0  0  0  0  0  0  0  0  0
    9.5420   14.5610   -0.6970 C   0  0  0  0  0  0  0  0  0  0  0  0
   10.7290   14.9670   -1.5330 C   0  0  0  0  0  0  0  0  0  0  0  0
   12.2090   14.8280   -0.9420 S   0  0  0  0  0  0  0  0  0  0  0  0
   10.5430   15.4480   -2.7780 N   0  0  0  0  0  0  0  0  0  0  0  0
    9.8300   16.1040   -2.9510 H   0  0  0  0  0  0  0  0  0  0  0  0
   11.1210   15.1430   -3.5150 H   0  0  0  0  0  0  0  0  0  0  0  0
  1  2  1  0  0  0  0
  1  9  1  0  0  0  0
  3  1  1  0  0  0  0
  4  3  2  0  0  0  0
  6  5  1  0  0  0  0
  7  6  2  0  0  0  0
  8  7  1  0  0  0  0
  9  8  2  0  0  0  0
  9 10  1  0  0  0  0
 10 11  2  0  0  0  0
 11  6  1  0  0  0  0
 12  3  1  0  0  0  0
 13 16  1  0  0  0  0
 13 12  1  0  0  0  0
 14 13  2  0  0  0  0
 15 13  2  0  0  0  0
 17 18  2  0  0  0  0
 17 16  1  0  0  0  0
 19 17  1  0  0  0  0
 20 19  1  0  0  0  0
 21 19  1  0  0  0  0
M  END
>  <MODEL>
1

>  <REMARK>
 VINA RESULT:      -5.5      0.000      0.000
  Name = ZINC31944609
                            x       y       z     vdW  Elec       q    Type
                         _______ _______ _______ _____ _____    ______ ____

>  <TORSDO>
F 6

>  <vina_score>
-5.5

$$$$
ZINC17218773
 OpenBabel01081722333D

 25 26  0  0  1  0  0  0  0  0999 V2000
   11.5080   12.0780    1.5100 C   0  0  0  0  0  0  0  0  0  0  0  0
   11.3290   13.4060    1.3680 N   0  0  0  0  0  0  0  0  0  0  0  0
   11.2370   13.9790    2.1640 H   0  0  0  0  0  0  0  0  0  0  0  0
   11.6200   11.3710    0.5280 O   0  0  0  0  0  0  0  0  0  0  0  0
   11.2730   13.9700    0.0910 C   0  0  0  0  0  0  0  0  0  0  0  0
   10.2290   14.0440   -0.7850 C   0  0  0  0  0  0  0  0  0  0  0  0
   10.4320   14.6360   -1.9440 N   0  0  0  0  0  0  0  0  0  0  0  0
   11.6020   15.1380   -2.2630 C   0  0  0  0  0  0  0  0  0  0  0  0
   12.5500   14.7950   -0.8490 S   0  0  0  0  0  0  0  0  0  0  0  0
    9.3290   14.7290   -2.9030 C   0  0  0  0  0  0  0  0  0  0  0  0
    8.9020   13.3430   -3.3130 C   0  0  0  0  0  0  0  0  0  0  0  0
    9.3580   12.8130   -4.4590 O   0  0  0  0  0  0  0  0  0  0  0  0
    8.1500   12.7100   -2.6120 O   0  0  0  0  0  0  0  0  0  0  0  0
   10.4830   10.9990    3.4130 N   0  0  0  0  0  0  0  0  0  0  0  0
   11.5660   11.4800    2.8650 C   0  0  0  0  0  0  0  0  0  0  0  0
   12.8450   11.4290    3.5930 C   0  0  2  0  0  0  0  0  0  0  0  0
   13.4510   10.2430    3.8270 C   0  0  0  0  0  0  0  0  0  0  0  0
   14.9200   10.7380    4.7120 S   0  0  0  0  0  0  0  0  0  0  0  0
   14.6250   12.4990    4.7220 C   0  0  0  0  0  0  0  0  0  0  0  0
   15.3540   13.4560    5.2370 N   0  0  0  0  0  0  0  0  0  0  0  0
   16.1970   13.2390    5.6980 H   0  0  0  0  0  0  0  0  0  0  0  0
   13.4280   12.5860    4.0450 N   0  0  0  0  0  0  0  0  0  0  0  0
   13.0010   13.4580    3.8880 H   0  0  0  0  0  0  0  0  0  0  0  0
    9.3330   10.1540    5.3250 C   0  0  0  0  0  0  0  0  0  0  0  0
   10.5690   10.2530    4.6140 O   0  0  0  0  0  0  0  0  0  0  0  0
  1 15  1  0  0  0  0
  2  1  1  0  0  0  0
  2  3  1  0  0  0  0
  4  1  2  0  0  0  0
  5  2  1  0  0  0  0
  6  5  2  0  0  0  0
  7  6  1  0  0  0  0
  8  7  1  0  0  0  0
  8  9  2  0  0  0  0
  9  5  1  0  0  0  0
 10  7  1  0  0  0  0
 11 10  1  0  0  0  0
 11 13  1  0  0  0  0
 12 11  2  0  0  0  0
 14 25  1  0  0  0  0
 15 14  2  0  0  0  0
 16 15  1  1  0  0  0
 16 17  1  0  0  0  0
 16 22  1  0  0  0  0
 17 18  2  0  0  0  0
 18 19  1  0  0  0  0
 19 20  2  0  0  0  0
 20 21  1  0  0  0  0
 22 19  1  0  0  0  0
 23 22  1  0  0  0  0
 25 24  1  0  0  0  0
M  END
>  <MODEL>
1

>  <REMARK>
 VINA RESULT:      -5.5      0.000      0.000
  Name = ZINC17218773
                            x       y       z     vdW  Elec       q    Type
                         _______ _______ _______ _____ _____    ______ ____

>  <TORSDO>
F 6

>  <vina_score>
-5.5

$$$$
ZINC31172347
 OpenBabel01081722363D

 34 36  0  0  0  0  0  0  0  0999 V2000
    9.7450   15.0970   -2.9200 C   0  0  0  0  0  0  0  0  0  0  0  0
    9.5460   16.2390   -0.7940 C   0  0  0  0  0  0  0  0  0  0  0  0
   10.1850   15.1330   -1.5190 N   0  0  0  0  0  0  0  0  0  0  0  0
    9.8980   14.2610   -1.0770 H   0  0  0  0  0  0  0  0  0  0  0  0
   11.6500   15.2230   -1.4300 C   0  0  0  0  0  0  0  0  0  0  0  0
   12.1620   14.1620   -0.4910 C   0  0  0  0  0  0  0  0  0  0  0  0
   11.8700   14.2280    0.8230 N   0  0  0  0  0  0  0  0  0  0  0  0
   11.3780   15.0010    1.1800 H   0  0  0  0  0  0  0  0  0  0  0  0
   12.8370   13.2480   -0.9180 O   0  0  0  0  0  0  0  0  0  0  0  0
   12.2700   13.1950    1.6820 C   0  0  0  0  0  0  0  0  0  0  0  0
   12.9280   13.4940    2.8680 C   0  0  0  0  0  0  0  0  0  0  0  0
   13.3170   12.4760    3.7170 C   0  0  0  0  0  0  0  0  0  0  0  0
   13.0580   11.1560    3.3800 C   0  0  0  0  0  0  0  0  0  0  0  0
   12.4040   10.8560    2.1940 C   0  0  0  0  0  0  0  0  0  0  0  0
   12.0110   11.8730    1.3470 C   0  0  0  0  0  0  0  0  0  0  0  0
   13.4450   10.1530    4.2140 O   0  0  0  0  0  0  0  0  0  0  0  0
   14.7840   10.2040    4.7110 C   0  0  0  0  0  0  0  0  0  0  0  0
    8.7420   13.9570   -3.1080 C   0  0  0  0  0  0  0  0  0  0  0  0
    8.7970   13.0370   -1.9160 C   0  0  0  0  0  0  0  0  0  0  0  0
    7.7840   13.0220   -1.0280 N   0  0  0  0  0  0  0  0  0  0  0  0
    6.9750   13.5570   -1.1960 H   0  0  0  0  0  0  0  0  0  0  0  0
    9.7540   12.3080   -1.7560 O   0  0  0  0  0  0  0  0  0  0  0  0
    7.8820   12.2460    0.1340 C   0  0  0  0  0  0  0  0  0  0  0  0
    7.1990   11.0380    0.2230 C   0  0  0  0  0  0  0  0  0  0  0  0
    7.2960   10.2660    1.3630 C   0  0  0  0  0  0  0  0  0  0  0  0
    8.0690   10.7020    2.4300 C   0  0  0  0  0  0  0  0  0  0  0  0
    8.7510   11.9180    2.3460 C   0  0  0  0  0  0  0  0  0  0  0  0
    9.4300   12.0820    3.5520 N   0  0  0  0  0  0  0  0  0  0  0  0
   10.0010   12.8470    3.7910 H   0  0  0  0  0  0  0  0  0  0  0  0
    9.1720   11.0160    4.3320 C   0  0  0  0  0  0  0  0  0  0  0  0
    9.6130   10.8470    5.4540 O   0  0  0  0  0  0  0  0  0  0  0  0
    8.3550   10.1650    3.6850 N   0  0  0  0  0  0  0  0  0  0  0  0
    8.0150    9.3110    4.0360 H   0  0  0  0  0  0  0  0  0  0  0  0
    8.6570   12.6870    1.1970 C   0  0  0  0  0  0  0  0  0  0  0  0
  1  3  1  0  0  0  0
  3  5  1  0  0  0  0
  3  4  1  0  0  0  0
  3  2  1  0  0  0  0
  5  6  1  0  0  0  0
  6  7  1  0  0  0  0
  7  8  1  0  0  0  0
  7 10  1  0  0  0  0
  9  6  2  0  0  0  0
 10 11  1  0  0  0  0
 11 12  2  0  0  0  0
 13 12  1  0  0  0  0
 13 16  1  0  0  0  0
 14 13  2  0  0  0  0
 15 10  2  0  0  0  0
 15 14  1  0  0  0  0
 16 17  1  0  0  0  0
 18  1  1  0  0  0  0
 18 19  1  0  0  0  0
 19 22  2  0  0  0  0
 19 20  1  0  0  0  0
 20 23  1  0  0  0  0
 21 20  1  0  0  0  0
 23 24  2  0  0  0  0
 23 34  1  0  0  0  0
 24 25  1  0  0  0  0
 25 26  2  0  0  0  0
 26 32  1  0  0  0  0
 27 26  1  0  0  0  0
 27 28  1  0  0  0  0
 28 29  1  0  0  0  0
 28 30  1  0  0  0  0
 30 31  2  0  0  0  0
 32 33  1  0  0  0  0
 32 30  1  0  0  0  0
 34 27  2  0  0  0  0
M  END
>  <MODEL>
1

>  <REMARK>
 VINA RESULT:      -5.5      0.000      0.000
  Name = ZINC31172347
                            x       y       z     vdW  Elec       q    Type
                         _______ _______ _______ _____ _____    ______ ____

>  <TORSDO>
F 8

>  <vina_score>
-5.5

$$$$
ZINC05885721
 OpenBabel01081722463D

 27 28  0  0  0  0  0  0  0  0999 V2000
   10.4740   12.3780    2.6960 C   0  0  0  0  0  0  0  0  0  0  0  0
   11.3730   11.2230    2.7780 C   0  0  0  0  0  0  0  0  0  0  0  0
   12.6200   11.3750    3.4490 C   0  0  0  0  0  0  0  0  0  0  0  0
   12.9490   12.5630    3.9780 C   0  0  0  0  0  0  0  0  0  0  0  0
   14.2630   12.8020    4.6820 C   0  0  0  0  0  0  0  0  0  0  0  0
   14.9060   11.4800    5.0920 C   0  0  0  0  0  0  0  0  0  0  0  0
   14.9450   10.5630    3.8620 C   0  0  0  0  0  0  0  0  0  0  0  0
   12.0950   13.6310    3.8950 N   0  0  0  0  0  0  0  0  0  0  0  0
   12.3710   14.4830    4.3010 H   0  0  0  0  0  0  0  0  0  0  0  0
   13.5110   10.1630    3.5240 C   0  0  0  0  0  0  0  0  0  0  0  0
   11.0590   10.1540    2.2800 O   0  0  0  0  0  0  0  0  0  0  0  0
   10.8940   13.5690    3.2820 C   0  0  0  0  0  0  0  0  0  0  0  0
    9.0950   11.7510    0.7830 N   0  0  0  0  0  0  0  0  0  0  0  0
    9.9100   11.4300    0.3330 H   0  0  0  0  0  0  0  0  0  0  0  0
    9.1740   12.2790    2.0210 C   0  0  0  0  0  0  0  0  0  0  0  0
    8.1680   12.6760    2.5770 O   0  0  0  0  0  0  0  0  0  0  0  0
    7.7990   11.6530    0.1090 C   0  0  0  0  0  0  0  0  0  0  0  0
    7.8720   12.3670   -1.2420 C   0  0  0  0  0  0  0  0  0  0  0  0
    9.3220   12.7510   -1.5400 C   0  0  0  0  0  0  0  0  0  0  0  0
    9.3960   13.0760   -3.9160 C   0  0  0  0  0  0  0  0  0  0  0  0
    9.3530   13.7540   -2.6140 N   0  0  0  0  0  0  0  0  0  0  0  0
    8.1480   14.5910   -2.5360 C   0  0  0  0  0  0  0  0  0  0  0  0
   10.5450   14.5980   -2.4600 C   0  0  0  0  0  0  0  0  0  0  0  0
   11.2920   14.1900   -1.2160 C   0  0  0  0  0  0  0  0  0  0  0  0
   12.3450   14.8680   -0.8320 C   0  0  0  0  0  0  0  0  0  0  0  0
   10.1020   14.6600    3.2380 O   0  0  0  0  0  0  0  0  0  0  0  0
   10.4690   15.4970    3.0310 H   0  0  0  0  0  0  0  0  0  0  0  0
  1  2  1  0  0  0  0
  1 12  2  0  0  0  0
  2  3  1  0  0  0  0
  3 10  1  0  0  0  0
  3  4  2  0  0  0  0
  4  5  1  0  0  0  0
  5  6  1  0  0  0  0
  7  6  1  0  0  0  0
  8  4  1  0  0  0  0
  8  9  1  0  0  0  0
 10  7  1  0  0  0  0
 11  2  2  0  0  0  0
 12  8  1  0  0  0  0
 13 15  1  0  0  0  0
 14 13  1  0  0  0  0
 15 16  2  0  0  0  0
 15  1  1  0  0  0  0
 17 13  1  0  0  0  0
 18 17  1  0  0  0  0
 19 18  1  0  0  0  0
 20 21  1  0  0  0  0
 21 22  1  0  0  0  0
 21 23  1  0  0  0  0
 21 19  1  0  0  0  0
 23 24  1  0  0  0  0
 24 25  2  0  0  0  0
 26 12  1  0  0  0  0
 27 26  1  0  0  0  0
M  END
>  <MODEL>
1

>  <REMARK>
 VINA RESULT:      -5.4      0.000      0.000
  Name = ZINC05885721
                            x       y       z     vdW  Elec       q    Type
                         _______ _______ _______ _____ _____    ______ ____

>  <TORSDO>
F 8

>  <vina_score>
-5.4

$$$$
ZINC05434281
 OpenBabel01081722403D

 17 16  0  0  1  0  0  0  0  0999 V2000
   10.0440   14.2860    0.6240 C   0  0  2  0  0  0  0  0  0  0  0  0
   11.3240   13.4940    0.3530 C   0  0  0  0  0  0  0  0  0  0  0  0
   12.3650   14.4090   -0.8000 Cl  0  0  0  0  0  0  0  0  0  0  0  0
   10.9010   11.8930   -0.3600 Cl  0  0  0  0  0  0  0  0  0  0  0  0
   12.2160   13.2470    1.9010 Cl  0  0  0  0  0  0  0  0  0  0  0  0
    8.9040   13.3860    0.5960 O   0  0  0  0  0  0  0  0  0  0  0  0
    8.6680   13.9420    2.9900 C   0  0  0  0  0  0  0  0  0  0  0  0
    8.2690   13.1710    1.7590 C   0  0  0  0  0  0  0  0  0  0  0  0
    7.3780   12.3570    1.8180 O   0  0  0  0  0  0  0  0  0  0  0  0
    9.8710   15.3610   -0.4500 C   0  0  0  0  0  0  0  0  0  0  0  0
    8.8160   14.9410   -1.3910 N   0  0  0  0  0  0  0  0  0  0  0  0
    8.3440   14.1180   -1.0150 H   0  0  0  0  0  0  0  0  0  0  0  0
    8.1480   15.7020   -1.5090 H   0  0  0  0  0  0  0  0  0  0  0  0
    9.4030   14.5990   -2.7000 C   0  0  0  0  0  0  0  0  0  0  0  0
    8.9110   13.2380   -3.1230 C   0  0  0  0  0  0  0  0  0  0  0  0
    9.3000   12.7190   -4.2970 O   0  0  0  0  0  0  0  0  0  0  0  0
    8.1650   12.6150   -2.4040 O   0  0  0  0  0  0  0  0  0  0  0  0
  1 10  1  6  0  0  0
  2  1  1  0  0  0  0
  2  5  1  0  0  0  0
  3  2  1  0  0  0  0
  4  2  1  0  0  0  0
  6  1  1  0  0  0  0
  6  8  1  0  0  0  0
  8  9  2  0  0  0  0
  8  7  1  0  0  0  0
 11 12  1  0  0  0  0
 11 10  1  0  0  0  0
 13 11  1  0  0  0  0
 14 11  1  0  0  0  0
 15 14  1  0  0  0  0
 15 17  1  0  0  0  0
 16 15  2  0  0  0  0
M  END
>  <MODEL>
1

>  <REMARK>
 VINA RESULT:      -5.3      0.000      0.000
  Name = ZINC05434281
                            x       y       z     vdW  Elec       q    Type
                         _______ _______ _______ _____ _____    ______ ____

>  <TORSDO>
F 7

>  <vina_score>
-5.3

$$$$
ZINC05574015
 OpenBabel01081722443D

 16 15  0  0  0  0  0  0  0  0999 V2000
   11.5720   13.8780   -2.2740 C   0  0  0  0  0  0  0  0  0  0  0  0
   11.5210   15.1900   -2.3320 N   0  0  0  0  0  0  0  0  0  0  0  0
   11.9650   15.7310   -1.6400 H   0  0  0  0  0  0  0  0  0  0  0  0
   11.7990   13.3740   -0.0270 C   0  0  0  0  0  0  0  0  0  0  0  0
   10.6270   13.9930    0.2190 O   0  0  0  0  0  0  0  0  0  0  0  0
   12.2400   13.2680   -1.2570 N   0  0  0  0  0  0  0  0  0  0  0  0
   12.5190   12.8670    0.9940 O   0  0  0  0  0  0  0  0  0  0  0  0
   13.1450   13.0120    3.3430 C   0  0  0  0  0  0  0  0  0  0  0  0
   11.9970   13.0700    2.3330 C   0  0  0  0  0  0  0  0  0  0  0  0
   10.9600   13.1310   -3.2300 N   0  0  0  0  0  0  0  0  0  0  0  0
    9.6550   13.2030   -3.3850 C   0  0  0  0  0  0  0  0  0  0  0  0
    9.0270   12.3750   -4.2700 N   0  0  0  0  0  0  0  0  0  0  0  0
    8.3340   11.7510   -3.9550 H   0  0  0  0  0  0  0  0  0  0  0  0
    9.2660   12.4030   -5.2250 H   0  0  0  0  0  0  0  0  0  0  0  0
    8.9400   14.0930   -2.6690 O   0  0  0  0  0  0  0  0  0  0  0  0
    7.8060   13.5770   -1.9210 C   0  0  0  0  0  0  0  0  0  0  0  0
  1  6  1  0  0  0  0
  2  1  1  0  0  0  0
  2  3  1  0  0  0  0
  4  5  2  0  0  0  0
  4  7  1  0  0  0  0
  6  4  1  0  0  0  0
  7  9  1  0  0  0  0
  9  8  1  0  0  0  0
 10  1  2  0  0  0  0
 11 10  2  0  0  0  0
 11 15  1  0  0  0  0
 12 13  1  0  0  0  0
 12 11  1  0  0  0  0
 14 12  1  0  0  0  0
 15 16  1  0  0  0  0
M  END
>  <MODEL>
1

>  <REMARK>
 VINA RESULT:      -5.3      0.000      0.000
  Name = ZINC05574015
                            x       y       z     vdW  Elec       q    Type
                         _______ _______ _______ _____ _____    ______ ____

>  <TORSDO>
F 6

>  <vina_score>
-5.3

$$$$
ZINC20236076
 OpenBabel01081722483D

 21 21  0  0  0  0  0  0  0  0999 V2000
   10.8550   13.3370    1.2000 N   0  0  0  0  0  0  0  0  0  0  0  0
   11.6550   12.5680    2.0530 C   0  0  0  0  0  0  0  0  0  0  0  0
   12.6580   13.1720    2.7980 C   0  0  0  0  0  0  0  0  0  0  0  0
   13.4430   12.4130    3.6440 C   0  0  0  0  0  0  0  0  0  0  0  0
   13.2370   11.0450    3.7410 C   0  0  0  0  0  0  0  0  0  0  0  0
   12.2380   10.4390    2.9930 C   0  0  0  0  0  0  0  0  0  0  0  0
   11.4480   11.1980    2.1510 C   0  0  0  0  0  0  0  0  0  0  0  0
   14.0130   10.2980    4.5690 O   0  0  0  0  0  0  0  0  0  0  0  0
   15.1940   10.9160    5.0850 C   0  0  0  0  0  0  0  0  0  0  0  0
   10.9200   13.0960   -0.4360 S   0  0  0  0  0  0  0  0  0  0  0  0
   12.2940   12.9630   -0.7740 O   0  0  0  0  0  0  0  0  0  0  0  0
    9.9610   12.0910   -0.7370 O   0  0  0  0  0  0  0  0  0  0  0  0
   11.3000   15.6240   -1.3190 C   0  0  0  0  0  0  0  0  0  0  0  0
   10.3880   14.4890   -1.1570 N   0  0  0  0  0  0  0  0  0  0  0  0
    9.0060   14.5850   -1.6330 C   0  0  0  0  0  0  0  0  0  0  0  0
    9.9600   14.3550    1.7560 C   0  0  0  0  0  0  0  0  0  0  0  0
    8.7940   13.6730    2.4720 C   0  0  0  0  0  0  0  0  0  0  0  0
    7.8760   13.1000    1.4780 N   0  0  0  0  0  0  0  0  0  0  0  0
    7.0420   13.6830    1.4110 H   0  0  0  0  0  0  0  0  0  0  0  0
    8.3380   13.0620    0.5700 H   0  0  0  0  0  0  0  0  0  0  0  0
    7.6100   12.1570    1.7640 H   0  0  0  0  0  0  0  0  0  0  0  0
  1 16  1  0  0  0  0
  1  2  1  0  0  0  0
  2  7  2  0  0  0  0
  2  3  1  0  0  0  0
  3  4  2  0  0  0  0
  4  5  1  0  0  0  0
  5  8  1  0  0  0  0
  6  5  2  0  0  0  0
  7  6  1  0  0  0  0
  8  9  1  0  0  0  0
 10  1  1  0  0  0  0
 11 10  2  0  0  0  0
 12 10  2  0  0  0  0
 13 14  1  0  0  0  0
 14 10  1  0  0  0  0
 15 14  1  0  0  0  0
 16 17  1  0  0  0  0
 18 21  1  0  0  0  0
 18 17  1  0  0  0  0
 19 18  1  0  0  0  0
 20 18  1  0  0  0  0
M  END
>  <MODEL>
1

>  <REMARK>
 VINA RESULT:      -5.3      0.000      0.000
  Name = ZINC20236076
                            x       y       z     vdW  Elec       q    Type
                         _______ _______ _______ _____ _____    ______ ____

>  <TORSDO>
F 7

>  <vina_score>
-5.3

$$$$
ZINC29471577
 OpenBabel01081722493D

 23 23  0  0  1  0  0  0  0  0999 V2000
    8.6240   12.7600    3.4200 C   0  0  0  0  0  0  0  0  0  0  0  0
    8.4360   12.8830    1.9290 C   0  0  0  0  0  0  0  0  0  0  0  0
    9.3200   13.5860    1.1940 N   0  0  0  0  0  0  0  0  0  0  0  0
   10.4640   14.2310    1.8440 C   0  0  0  0  0  0  0  0  0  0  0  0
    7.4900   12.3470    1.3920 O   0  0  0  0  0  0  0  0  0  0  0  0
    9.1380   13.7040   -0.2550 C   0  0  1  0  0  0  0  0  0  0  0  0
    9.6680   15.0650   -0.7350 C   0  0  0  0  0  0  0  0  0  0  0  0
    9.7780   15.0730   -2.2790 C   0  0  0  0  0  0  0  0  0  0  0  0
   10.0580   13.2990   -2.6740 S   0  0  0  0  0  0  0  0  0  0  0  0
   11.3850   13.1370   -3.1560 O   0  0  0  0  0  0  0  0  0  0  0  0
    8.9690   12.8210   -3.4510 O   0  0  0  0  0  0  0  0  0  0  0  0
    9.9440   12.5880   -0.9790 C   0  0  0  0  0  0  0  0  0  0  0  0
    9.0980   11.0630    3.8310 S   0  0  0  0  0  0  0  0  0  0  0  0
   11.6930   11.6710    3.8110 N   0  0  0  0  0  0  0  0  0  0  0  0
   11.4840   12.2270    4.5960 H   0  0  0  0  0  0  0  0  0  0  0  0
   10.7380   11.0400    3.1870 C   0  0  0  0  0  0  0  0  0  0  0  0
   11.0100   10.3550    2.0250 N   0  0  0  0  0  0  0  0  0  0  0  0
   11.4120    9.4570    2.0650 H   0  0  0  0  0  0  0  0  0  0  0  0
   10.8030   10.7630    1.1540 H   0  0  0  0  0  0  0  0  0  0  0  0
   13.0760   11.5530    3.3450 C   0  0  2  0  0  0  0  0  0  0  0  0
   13.8020   10.4870    4.1670 C   0  0  0  0  0  0  0  0  0  0  0  0
   14.6390   12.8700    4.7820 C   0  0  0  0  0  0  0  0  0  0  0  0
   13.7870   12.8970    3.5120 C   0  0  0  0  0  0  0  0  0  0  0  0
  1 13  1  0  0  0  0
  2  1  1  0  0  0  0
  3  4  1  0  0  0  0
  3  2  1  0  0  0  0
  5  2  2  0  0  0  0
  6  3  1  1  0  0  0
  7  6  1  0  0  0  0
  8  7  1  0  0  0  0
  9  8  1  0  0  0  0
  9 12  1  0  0  0  0
 10  9  2  0  0  0  0
 11  9  2  0  0  0  0
 12  6  1  0  0  0  0
 14 15  1  0  0  0  0
 16 14  1  0  0  0  0
 16 13  1  0  0  0  0
 17 18  1  0  0  0  0
 17 16  2  0  0  0  0
 19 17  1  0  0  0  0
 20 23  1  1  0  0  0
 20 14  1  0  0  0  0
 20 21  1  0  0  0  0
 23 22  1  0  0  0  0
M  END
>  <MODEL>
1

>  <REMARK>
 VINA RESULT:      -5.3      0.000      0.000
  Name = ZINC29471577
                            x       y       z     vdW  Elec       q    Type
                         _______ _______ _______ _____ _____    ______ ____

>  <TORSDO>
F 7

>  <vina_score>
-5.3

$$$$
ZINC16697325
 OpenBabel01081722463D

 22 22  0  0  1  0  0  0  0  0999 V2000
   10.5410   13.1960    2.5600 C   0  0  0  0  0  0  0  0  0  0  0  0
    9.4620   12.9630    1.7860 N   0  0  0  0  0  0  0  0  0  0  0  0
    8.6190   11.7820    2.0120 C   0  0  0  0  0  0  0  0  0  0  0  0
    8.4900   11.0080    0.6970 C   0  0  0  0  0  0  0  0  0  0  0  0
    7.9750   11.9480   -0.3950 C   0  0  0  0  0  0  0  0  0  0  0  0
    8.9740   13.0890   -0.6020 C   0  0  2  0  0  0  0  0  0  0  0  0
    9.1080   13.8870    0.6990 C   0  0  0  0  0  0  0  0  0  0  0  0
   11.2310   14.1760    2.3620 O   0  0  0  0  0  0  0  0  0  0  0  0
   10.8540   12.3410    3.5520 O   0  0  0  0  0  0  0  0  0  0  0  0
   13.2590   12.1710    3.8970 C   0  0  0  0  0  0  0  0  0  0  0  0
   12.0080   11.4850    3.3440 C   0  0  0  0  0  0  0  0  0  0  0  0
   12.1880   11.2260    1.8470 C   0  0  0  0  0  0  0  0  0  0  0  0
   11.7940   10.1550    4.0690 C   0  0  0  0  0  0  0  0  0  0  0  0
    8.4750   14.0100   -1.7170 C   0  0  0  0  0  0  0  0  0  0  0  0
    9.4450   13.9540   -2.8990 C   0  0  1  0  0  0  0  0  0  0  0  0
    8.9920   14.8970   -3.9350 N   0  0  0  0  0  0  0  0  0  0  0  0
    8.0420   15.2050   -3.7220 H   0  0  0  0  0  0  0  0  0  0  0  0
    9.6140   15.7060   -3.9550 H   0  0  0  0  0  0  0  0  0  0  0  0
    9.0030   14.4360   -4.8450 H   0  0  0  0  0  0  0  0  0  0  0  0
   10.8300   14.3140   -2.4280 C   0  0  0  0  0  0  0  0  0  0  0  0
   11.0540   15.5030   -1.8460 O   0  0  0  0  0  0  0  0  0  0  0  0
   11.7400   13.5320   -2.5730 O   0  0  0  0  0  0  0  0  0  0  0  0
  1  9  1  0  0  0  0
  2  3  1  0  0  0  0
  2  1  1  0  0  0  0
  4  3  1  0  0  0  0
  5  4  1  0  0  0  0
  6 14  1  6  0  0  0
  6  5  1  0  0  0  0
  6  7  1  0  0  0  0
  7  2  1  0  0  0  0
  8  1  2  0  0  0  0
 11  9  1  0  0  0  0
 11 10  1  0  0  0  0
 11 13  1  0  0  0  0
 12 11  1  0  0  0  0
 15 16  1  6  0  0  0
 15 20  1  0  0  0  0
 15 14  1  0  0  0  0
 16 17  1  0  0  0  0
 18 16  1  0  0  0  0
 19 16  1  0  0  0  0
 20 21  1  0  0  0  0
 22 20  2  0  0  0  0
M  END
>  <MODEL>
1

>  <REMARK>
 VINA RESULT:      -5.2      0.000      0.000
  Name = ZINC16697325
                            x       y       z     vdW  Elec       q    Type
                         _______ _______ _______ _____ _____    ______ ____

>  <TORSDO>
F 6

>  <vina_score>
-5.2

$$$$
ZINC02441083
 OpenBabel01081722553D

 40 43  0  0  1  0  0  0  0  0999 V2000
   10.7350   13.9540    2.5280 C   0  0  0  0  0  0  0  0  0  0  0  0
    9.9290   14.7880    1.9190 N   0  0  0  0  0  0  0  0  0  0  0  0
   10.4830   15.1690    0.7400 C   0  0  0  0  0  0  0  0  0  0  0  0
   10.0870   16.0220   -0.3030 C   0  0  0  0  0  0  0  0  0  0  0  0
   10.9000   16.1680   -1.3450 N   0  0  0  0  0  0  0  0  0  0  0  0
   12.0540   15.5300   -1.4060 C   0  0  0  0  0  0  0  0  0  0  0  0
   12.4650   14.7210   -0.4520 N   0  0  0  0  0  0  0  0  0  0  0  0
   11.7190   14.5130    0.6270 C   0  0  0  0  0  0  0  0  0  0  0  0
   11.8540   13.7540    1.7670 N   0  0  0  0  0  0  0  0  0  0  0  0
   12.9880   12.8900    2.1040 C   0  0  2  0  0  0  0  0  0  0  0  0
   12.4940   11.5460    2.6960 C   0  0  2  0  0  0  0  0  0  0  0  0
   13.7130   11.0940    3.5360 C   0  0  2  0  0  0  0  0  0  0  0  0
   14.5050   12.3920    3.7820 C   0  0  1  0  0  0  0  0  0  0  0  0
   13.7650   13.4640    3.1770 O   0  0  0  0  0  0  0  0  0  0  0  0
   12.2130   10.6050    1.6580 O   0  0  0  0  0  0  0  0  0  0  0  0
   11.7480    9.8400    2.0310 H   0  0  0  0  0  0  0  0  0  0  0  0
   14.5050   10.1540    2.8080 O   0  0  0  0  0  0  0  0  0  0  0  0
   14.1720   10.0850    1.9000 H   0  0  0  0  0  0  0  0  0  0  0  0
   14.6470   12.6390    5.2850 C   0  0  0  0  0  0  0  0  0  0  0  0
   15.7310   13.5400    5.5200 O   0  0  0  0  0  0  0  0  0  0  0  0
   15.7500   14.2130    4.8210 H   0  0  0  0  0  0  0  0  0  0  0  0
    8.8780   16.6950   -0.2480 N   0  0  0  0  0  0  0  0  0  0  0  0
    8.4010   16.9200   -1.0800 H   0  0  0  0  0  0  0  0  0  0  0  0
    8.4950   16.9490    0.6230 H   0  0  0  0  0  0  0  0  0  0  0  0
   10.4910   13.3650    3.7520 N   0  0  0  0  0  0  0  0  0  0  0  0
   10.3700   13.9260    4.5530 H   0  0  0  0  0  0  0  0  0  0  0  0
   10.4170   11.9700    3.8560 N   0  0  0  0  0  0  0  0  0  0  0  0
   11.2310   11.4460    4.0350 H   0  0  0  0  0  0  0  0  0  0  0  0
    9.1950   11.3270    3.7070 C   0  0  0  0  0  0  0  0  0  0  0  0
    8.9120   10.2660    4.4400 C   0  0  0  0  0  0  0  0  0  0  0  0
    8.1900   11.8400    2.7070 C   0  0  0  0  0  0  0  0  0  0  0  0
    8.2120   11.0130    1.5420 O   0  0  0  0  0  0  0  0  0  0  0  0
    8.7940   12.8990   -2.0800 C   0  0  0  0  0  0  0  0  0  0  0  0
    9.8820   12.4540   -1.3510 C   0  0  0  0  0  0  0  0  0  0  0  0
    9.6890   11.8210   -0.1380 C   0  0  0  0  0  0  0  0  0  0  0  0
    8.4030   11.6340    0.3480 C   0  0  0  0  0  0  0  0  0  0  0  0
    7.3140   12.0770   -0.3870 C   0  0  0  0  0  0  0  0  0  0  0  0
    7.5130   12.7130   -1.5970 C   0  0  0  0  0  0  0  0  0  0  0  0
   10.4000   13.2480   -3.9370 C   0  0  0  0  0  0  0  0  0  0  0  0
    9.0080   13.5880   -3.4040 C   0  0  0  0  0  0  0  0  0  0  0  0
  1 25  1  0  0  0  0
  2  1  2  0  0  0  0
  3  2  1  0  0  0  0
  4 22  1  0  0  0  0
  4  3  2  0  0  0  0
  5  4  1  0  0  0  0
  6  5  2  0  0  0  0
  6  7  1  0  0  0  0
  7  8  2  0  0  0  0
  8  3  1  0  0  0  0
  8  9  1  0  0  0  0
  9  1  1  0  0  0  0
 10  9  1  1  0  0  0
 10 11  1  0  0  0  0
 10 14  1  0  0  0  0
 11 15  1  6  0  0  0
 11 12  1  0  0  0  0
 12 17  1  6  0  0  0
 12 13  1  0  0  0  0
 13 19  1  1  0  0  0
 14 13  1  0  0  0  0
 15 16  1  0  0  0  0
 18 17  1  0  0  0  0
 19 20  1  0  0  0  0
 21 20  1  0  0  0  0
 22 24  1  0  0  0  0
 23 22  1  0  0  0  0
 25 27  1  0  0  0  0
 25 26  1  0  0  0  0
 27 28  1  0  0  0  0
 29 27  1  0  0  0  0
 29 30  2  0  0  0  0
 31 29  1  0  0  0  0
 32 31  1  0  0  0  0
 33 38  2  0  0  0  0
 33 34  1  0  0  0  0
 34 35  2  0  0  0  0
 35 36  1  0  0  0  0
 36 32  1  0  0  0  0
 37 36  2  0  0  0  0
 38 37  1  0  0  0  0
 39 40  1  0  0  0  0
 40 33  1  0  0  0  0
M  END
>  <MODEL>
1

>  <REMARK>
 VINA RESULT:      -5.2      0.000      0.000
  Name = ZINC02441083
                            x       y       z     vdW  Elec       q    Type
                         _______ _______ _______ _____ _____    ______ ____

>  <TORSDO>
F 13

>  <vina_score>
-5.2

$$$$
ZINC20395712
 OpenBabel01081722313D

 17 17  0  0  0  0  0  0  0  0999 V2000
   11.2740   14.1760   -0.8020 C   0  0  0  0  0  0  0  0  0  0  0  0
   12.1650   13.2410   -0.6290 N   0  0  0  0  0  0  0  0  0  0  0  0
   12.1650   12.8550    0.5980 N   0  0  0  0  0  0  0  0  0  0  0  0
   11.2670   13.5290    1.2770 C   0  0  0  0  0  0  0  0  0  0  0  0
   10.6690   14.3920    0.4050 N   0  0  0  0  0  0  0  0  0  0  0  0
    9.6750   15.2870    0.6790 N   0  0  0  0  0  0  0  0  0  0  0  0
    8.7330   15.0380    0.5290 H   0  0  0  0  0  0  0  0  0  0  0  0
    9.8970   16.1810    1.0280 H   0  0  0  0  0  0  0  0  0  0  0  0
   10.9660   14.8860   -2.0960 C   0  0  0  0  0  0  0  0  0  0  0  0
    9.8660   13.8540   -3.1040 S   0  0  0  0  0  0  0  0  0  0  0  0
    7.7500   12.9360   -1.6330 C   0  0  0  0  0  0  0  0  0  0  0  0
    8.2180   14.1660   -2.4130 C   0  0  0  0  0  0  0  0  0  0  0  0
   10.9040   13.3560    2.9930 S   0  0  0  0  0  0  0  0  0  0  0  0
    9.5940   12.1090    2.9120 C   0  0  0  0  0  0  0  0  0  0  0  0
    8.2940   12.7690    2.5310 C   0  0  0  0  0  0  0  0  0  0  0  0
    7.3680   12.0820    1.8450 O   0  0  0  0  0  0  0  0  0  0  0  0
    8.0860   13.9180    2.8440 O   0  0  0  0  0  0  0  0  0  0  0  0
  1  2  2  0  0  0  0
  1  5  1  0  0  0  0
  2  3  1  0  0  0  0
  3  4  2  0  0  0  0
  4 13  1  0  0  0  0
  5  6  1  0  0  0  0
  5  4  1  0  0  0  0
  6  8  1  0  0  0  0
  7  6  1  0  0  0  0
  9  1  1  0  0  0  0
 10 12  1  0  0  0  0
 10  9  1  0  0  0  0
 12 11  1  0  0  0  0
 14 13  1  0  0  0  0
 15 17  1  0  0  0  0
 15 14  1  0  0  0  0
 16 15  2  0  0  0  0
M  END
>  <MODEL>
1

>  <REMARK>
 VINA RESULT:      -5.2      0.000      0.000
  Name = ZINC20395712
                            x       y       z     vdW  Elec       q    Type
                         _______ _______ _______ _____ _____    ______ ____

>  <TORSDO>
F 7

>  <vina_score>
-5.2

$$$$
ZINC28314515
 OpenBabel01081722433D

 34 35  0  0  0  0  0  0  0  0999 V2000
    8.5010   13.3860    1.1600 C   0  0  0  0  0  0  0  0  0  0  0  0
    8.7230   13.9080   -0.1070 C   0  0  0  0  0  0  0  0  0  0  0  0
    8.3450   13.1910   -1.2260 C   0  0  0  0  0  0  0  0  0  0  0  0
    7.7380   11.9560   -1.0890 C   0  0  0  0  0  0  0  0  0  0  0  0
    7.5190   11.4260    0.1730 C   0  0  0  0  0  0  0  0  0  0  0  0
    7.8980   12.1420    1.3020 C   0  0  0  0  0  0  0  0  0  0  0  0
    9.4720   15.3720    2.0400 C   0  0  0  0  0  0  0  0  0  0  0  0
    8.8740   14.0930    2.2610 O   0  0  0  0  0  0  0  0  0  0  0  0
    6.9280   10.2080    0.3070 O   0  0  0  0  0  0  0  0  0  0  0  0
    5.5100   10.1540    0.1470 C   0  0  0  0  0  0  0  0  0  0  0  0
    8.5860   13.7610   -2.6000 C   0  0  0  0  0  0  0  0  0  0  0  0
   10.0000   14.1400   -2.7320 N   0  0  0  0  0  0  0  0  0  0  0  0
   10.1550   14.4960   -3.6750 H   0  0  0  0  0  0  0  0  0  0  0  0
   10.2180   14.8560   -2.0380 H   0  0  0  0  0  0  0  0  0  0  0  0
   10.8770   12.9810   -2.5190 C   0  0  0  0  0  0  0  0  0  0  0  0
   11.4550   13.0380   -1.1270 C   0  0  0  0  0  0  0  0  0  0  0  0
   11.3080   11.9590   -0.2750 C   0  0  0  0  0  0  0  0  0  0  0  0
   11.8430   12.0070    1.0030 C   0  0  0  0  0  0  0  0  0  0  0  0
   12.5190   13.1460    1.4310 C   0  0  0  0  0  0  0  0  0  0  0  0
   12.6650   14.2260    0.5750 C   0  0  0  0  0  0  0  0  0  0  0  0
   12.1330   14.1710   -0.7050 C   0  0  0  0  0  0  0  0  0  0  0  0
   11.7030   10.9440    1.8390 O   0  0  0  0  0  0  0  0  0  0  0  0
   12.8860   10.2060    2.1540 C   0  0  0  0  0  0  0  0  0  0  0  0
   13.0390   13.1960    2.6860 O   0  0  0  0  0  0  0  0  0  0  0  0
   12.1120   13.3150    3.7670 C   0  0  0  0  0  0  0  0  0  0  0  0
   12.2760   15.2310   -1.5450 O   0  0  0  0  0  0  0  0  0  0  0  0
   11.5630   16.4230   -1.2120 C   0  0  0  0  0  0  0  0  0  0  0  0
    7.6790   11.6280    2.5420 O   0  0  0  0  0  0  0  0  0  0  0  0
    8.6780   10.7500    3.0660 C   0  0  0  0  0  0  0  0  0  0  0  0
    9.1170   11.2410    4.4220 C   0  0  0  0  0  0  0  0  0  0  0  0
    8.9660   12.5400    4.7500 N   0  0  0  0  0  0  0  0  0  0  0  0
    9.2530   12.8600    5.6360 H   0  0  0  0  0  0  0  0  0  0  0  0
    8.5690   13.1680    4.1030 H   0  0  0  0  0  0  0  0  0  0  0  0
    9.6060   10.4680    5.2170 O   0  0  0  0  0  0  0  0  0  0  0  0
  1  6  1  0  0  0  0
  1  8  1  0  0  0  0
  2  1  2  0  0  0  0
  3  4  2  0  0  0  0
  3  2  1  0  0  0  0
  4  5  1  0  0  0  0
  5  9  1  0  0  0  0
  5  6  2  0  0  0  0
  6 28  1  0  0  0  0
  7  8  1  0  0  0  0
 10  9  1  0  0  0  0
 11  3  1  0  0  0  0
 12 11  1  0  0  0  0
 12 15  1  0  0  0  0
 12 14  1  0  0  0  0
 13 12  1  0  0  0  0
 15 16  1  0  0  0  0
 16 21  2  0  0  0  0
 16 17  1  0  0  0  0
 17 18  2  0  0  0  0
 18 19  1  0  0  0  0
 18 22  1  0  0  0  0
 19 24  1  0  0  0  0
 20 19  2  0  0  0  0
 21 20  1  0  0  0  0
 22 23  1  0  0  0  0
 24 25  1  0  0  0  0
 26 27  1  0  0  0  0
 26 21  1  0  0  0  0
 28 29  1  0  0  0  0
 29 30  1  0  0  0  0
 30 31  1  0  0  0  0
 30 34  2  0  0  0  0
 31 32  1  0  0  0  0
 33 31  1  0  0  0  0
M  END
>  <MODEL>
1

>  <REMARK>
 VINA RESULT:      -5.1      0.000      0.000
  Name = ZINC28314515
                            x       y       z     vdW  Elec       q    Type
                         _______ _______ _______ _____ _____    ______ ____

>  <TORSDO>
F 12

>  <vina_score>
-5.1

$$$$
ZINC15084765
 OpenBabel01081722453D

 33 35  0  0  1  0  0  0  0  0999 V2000
    8.9460   13.8760    1.5960 C   0  0  0  0  0  0  0  0  0  0  0  0
    9.0430   14.3070    0.2680 C   0  0  0  0  0  0  0  0  0  0  0  0
    8.4260   13.5690   -0.7490 C   0  0  0  0  0  0  0  0  0  0  0  0
    7.7230   12.4140   -0.4360 C   0  0  0  0  0  0  0  0  0  0  0  0
    7.6310   11.9910    0.8850 C   0  0  0  0  0  0  0  0  0  0  0  0
    6.8950   10.8420    0.9260 O   0  0  0  0  0  0  0  0  0  0  0  0
    6.8830   10.3440   -0.4250 C   0  0  0  0  0  0  0  0  0  0  0  0
    7.0440   11.5290   -1.2270 O   0  0  0  0  0  0  0  0  0  0  0  0
    8.2490   12.7220    1.8970 C   0  0  0  0  0  0  0  0  0  0  0  0
    9.7920   15.5340   -0.0570 C   0  0  0  0  0  0  0  0  0  0  0  0
   11.0090   15.4510   -0.4990 N   0  0  0  0  0  0  0  0  0  0  0  0
   11.6090   14.1970   -0.6710 N   0  0  0  0  0  0  0  0  0  0  0  0
   11.9400   13.6990    0.1110 H   0  0  0  0  0  0  0  0  0  0  0  0
   11.7340   13.6730   -1.9060 C   0  0  0  0  0  0  0  0  0  0  0  0
   11.3740   14.3950   -2.9850 N   0  0  0  0  0  0  0  0  0  0  0  0
   11.4640   14.0130   -3.8870 H   0  0  0  0  0  0  0  0  0  0  0  0
   11.0200   15.3080   -2.8710 H   0  0  0  0  0  0  0  0  0  0  0  0
   12.1710   12.5460   -2.0480 O   0  0  0  0  0  0  0  0  0  0  0  0
    8.5170   13.9830   -2.0410 O   0  0  0  0  0  0  0  0  0  0  0  0
    7.4830   14.8460   -2.5190 C   0  0  0  0  0  0  0  0  0  0  0  0
    8.1610   12.3020    3.1880 O   0  0  0  0  0  0  0  0  0  0  0  0
    8.1480   10.8910    3.4120 C   0  0  0  0  0  0  0  0  0  0  0  0
    9.6090   14.6660    2.6950 C   0  0  0  0  0  0  0  0  0  0  0  0
   11.8800   11.7910    2.8750 C   0  0  0  0  0  0  0  0  0  0  0  0
   11.4200   11.9080    4.0750 N   0  0  0  0  0  0  0  0  0  0  0  0
   10.6080   13.0540    4.2430 O   0  0  0  0  0  0  0  0  0  0  0  0
   10.8820   13.9460    3.1450 C   0  0  1  0  0  0  0  0  0  0  0  0
   11.3760   12.9640    2.0560 C   0  0  0  0  0  0  0  0  0  0  0  0
   12.7480   10.7040    2.3840 C   0  0  0  0  0  0  0  0  0  0  0  0
   12.5000   10.1590    1.3280 O   0  0  0  0  0  0  0  0  0  0  0  0
   13.8160   10.3160    3.1080 O   0  0  0  0  0  0  0  0  0  0  0  0
   15.1530   10.3490    5.1430 C   0  0  0  0  0  0  0  0  0  0  0  0
   14.1380   11.1050    4.2830 C   0  0  0  0  0  0  0  0  0  0  0  0
  1  9  1  0  0  0  0
  1 23  1  0  0  0  0
  2  1  2  0  0  0  0
  3  4  2  0  0  0  0
  3  2  1  0  0  0  0
  4  5  1  0  0  0  0
  5  6  1  0  0  0  0
  5  9  2  0  0  0  0
  7  6  1  0  0  0  0
  8  4  1  0  0  0  0
  8  7  1  0  0  0  0
  9 21  1  0  0  0  0
 10  2  1  0  0  0  0
 11 10  2  0  0  0  0
 12 11  1  0  0  0  0
 12 13  1  0  0  0  0
 14 12  1  0  0  0  0
 15 17  1  0  0  0  0
 15 14  1  0  0  0  0
 16 15  1  0  0  0  0
 18 14  2  0  0  0  0
 19  3  1  0  0  0  0
 20 19  1  0  0  0  0
 21 22  1  0  0  0  0
 24 25  2  0  0  0  0
 25 26  1  0  0  0  0
 27 23  1  6  0  0  0
 27 26  1  0  0  0  0
 28 24  1  0  0  0  0
 28 27  1  0  0  0  0
 29 24  1  0  0  0  0
 29 31  1  0  0  0  0
 30 29  2  0  0  0  0
 31 33  1  0  0  0  0
 33 32  1  0  0  0  0
M  END
>  <MODEL>
1

>  <REMARK>
 VINA RESULT:      -5.1      0.000      0.000
  Name = ZINC15084765
                            x       y       z     vdW  Elec       q    Type
                         _______ _______ _______ _____ _____    ______ ____

>  <TORSDO>
F 9

>  <vina_score>
-5.1

$$$$
ZINC09467478
 OpenBabel01081722473D

 33 35  0  0  0  0  0  0  0  0999 V2000
   11.6090   13.7930    1.8140 C   0  0  0  0  0  0  0  0  0  0  0  0
   11.0570   14.1650    2.9460 N   0  0  0  0  0  0  0  0  0  0  0  0
   11.6660   13.6120    3.9330 N   0  0  0  0  0  0  0  0  0  0  0  0
   12.6430   12.8520    3.4920 C   0  0  0  0  0  0  0  0  0  0  0  0
   12.6380   12.9360    2.1290 N   0  0  0  0  0  0  0  0  0  0  0  0
   10.0790   15.0290    0.2860 C   0  0  0  0  0  0  0  0  0  0  0  0
    9.7010   15.4220   -0.9810 C   0  0  0  0  0  0  0  0  0  0  0  0
   10.4250   14.9950   -2.0860 C   0  0  0  0  0  0  0  0  0  0  0  0
   11.5360   14.1770   -1.9200 C   0  0  0  0  0  0  0  0  0  0  0  0
   11.9230   13.7860   -0.6560 C   0  0  0  0  0  0  0  0  0  0  0  0
   11.1970   14.2110    0.4570 C   0  0  0  0  0  0  0  0  0  0  0  0
   10.0480   15.3800   -3.3330 O   0  0  0  0  0  0  0  0  0  0  0  0
    8.9470   14.6830   -3.9210 C   0  0  0  0  0  0  0  0  0  0  0  0
    7.7950   14.9090   -3.1620 F   0  0  0  0  0  0  0  0  0  0  0  0
    9.2250   13.3120   -3.9510 F   0  0  0  0  0  0  0  0  0  0  0  0
   13.4820   12.3050    1.2600 N   0  0  0  0  0  0  0  0  0  0  0  0
   14.4220   12.1550    1.5090 H   0  0  0  0  0  0  0  0  0  0  0  0
   13.1490   12.0000    0.3850 H   0  0  0  0  0  0  0  0  0  0  0  0
   13.7490   11.8960    4.4760 S   0  0  0  0  0  0  0  0  0  0  0  0
   13.2040   10.2280    4.0310 C   0  0  0  0  0  0  0  0  0  0  0  0
   11.6990   10.1920    3.9660 C   0  0  0  0  0  0  0  0  0  0  0  0
   11.0760   10.1880    2.7710 N   0  0  0  0  0  0  0  0  0  0  0  0
   11.6050   10.2080    1.9400 H   0  0  0  0  0  0  0  0  0  0  0  0
   11.0480   10.1680    4.9890 O   0  0  0  0  0  0  0  0  0  0  0  0
    9.6130   10.1530    2.7070 C   0  0  0  0  0  0  0  0  0  0  0  0
    9.1000   11.4480    2.0730 C   0  0  0  0  0  0  0  0  0  0  0  0
    7.9940   11.1390    1.1630 N   0  0  0  0  0  0  0  0  0  0  0  0
    6.9120   10.5640    1.6610 C   0  0  0  0  0  0  0  0  0  0  0  0
    5.8040   10.2770    0.6580 C   0  0  0  0  0  0  0  0  0  0  0  0
    6.5920   10.9180   -0.8730 S   0  0  0  0  0  0  0  0  0  0  0  0
    6.8100   10.2850    2.8370 O   0  0  0  0  0  0  0  0  0  0  0  0
    8.1320   11.4510   -0.1400 C   0  0  0  0  0  0  0  0  0  0  0  0
    9.0830   11.9730   -0.6880 O   0  0  0  0  0  0  0  0  0  0  0  0
  1  5  1  0  0  0  0
  1  2  2  0  0  0  0
  2  3  1  0  0  0  0
  4  3  2  0  0  0  0
  4 19  1  0  0  0  0
  5  4  1  0  0  0  0
  6 11  1  0  0  0  0
  7  6  2  0  0  0  0
  8  9  2  0  0  0  0
  8  7  1  0  0  0  0
  9 10  1  0  0  0  0
 10 11  2  0  0  0  0
 11  1  1  0  0  0  0
 12  8  1  0  0  0  0
 13 12  1  0  0  0  0
 13 14  1  0  0  0  0
 15 13  1  0  0  0  0
 16 17  1  0  0  0  0
 16  5  1  0  0  0  0
 18 16  1  0  0  0  0
 20 19  1  0  0  0  0
 21 20  1  0  0  0  0
 21 24  2  0  0  0  0
 22 21  1  0  0  0  0
 23 22  1  0  0  0  0
 25 22  1  0  0  0  0
 26 25  1  0  0  0  0
 27 28  1  0  0  0  0
 27 26  1  0  0  0  0
 28 31  2  0  0  0  0
 29 28  1  0  0  0  0
 30 32  1  0  0  0  0
 30 29  2  0  0  0  0
 32 27  1  0  0  0  0
 33 32  2  0  0  0  0
M  END
>  <MODEL>
1

>  <REMARK>
 VINA RESULT:      -5.1      0.000      0.000
  Name = ZINC09467478
                            x       y       z     vdW  Elec       q    Type
                         _______ _______ _______ _____ _____    ______ ____

>  <TORSDO>
F 10

>  <vina_score>
-5.1

$$$$
ZINC31971727
 OpenBabel01081722473D

 28 29  0  0  0  0  0  0  0  0999 V2000
    8.3730   10.6790    2.5220 C   0  0  0  0  0  0  0  0  0  0  0  0
    9.6950   10.9300    2.8560 C   0  0  0  0  0  0  0  0  0  0  0  0
   10.5590   11.4630    1.9110 C   0  0  0  0  0  0  0  0  0  0  0  0
   10.0950   11.7510    0.6280 C   0  0  0  0  0  0  0  0  0  0  0  0
    8.7740   11.4940    0.2950 C   0  0  0  0  0  0  0  0  0  0  0  0
    7.9120   10.9610    1.2410 C   0  0  0  0  0  0  0  0  0  0  0  0
   11.8960   11.7170    2.2470 N   0  0  0  0  0  0  0  0  0  0  0  0
   12.6120   11.1450    1.8890 H   0  0  0  0  0  0  0  0  0  0  0  0
   12.2010   12.7460    3.0630 C   0  0  0  0  0  0  0  0  0  0  0  0
   11.3330   13.5120    3.4240 O   0  0  0  0  0  0  0  0  0  0  0  0
   13.6230   12.9460    3.5230 C   0  0  0  0  0  0  0  0  0  0  0  0
   14.1340   11.6560    4.1690 C   0  0  0  0  0  0  0  0  0  0  0  0
   15.2310   11.9940    5.1810 C   0  0  0  0  0  0  0  0  0  0  0  0
   15.6560   13.3870    4.9960 N   0  0  0  0  0  0  0  0  0  0  0  0
   16.1280   13.7130    5.8390 H   0  0  0  0  0  0  0  0  0  0  0  0
   16.2960   13.4450    4.2040 H   0  0  0  0  0  0  0  0  0  0  0  0
   14.8390   13.9710    4.8150 H   0  0  0  0  0  0  0  0  0  0  0  0
   10.9660   12.2950   -0.3270 N   0  0  0  0  0  0  0  0  0  0  0  0
   11.5970   11.7110   -0.8070 H   0  0  0  0  0  0  0  0  0  0  0  0
   10.9380   13.6170   -0.5870 C   0  0  0  0  0  0  0  0  0  0  0  0
   10.0960   14.3200   -0.0710 O   0  0  0  0  0  0  0  0  0  0  0  0
   11.9550   14.2230   -1.5200 C   0  0  0  0  0  0  0  0  0  0  0  0
   12.8540   15.3290   -0.9640 C   0  0  0  0  0  0  0  0  0  0  0  0
   11.7410   15.6730   -1.9550 C   0  0  0  0  0  0  0  0  0  0  0  0
    7.9720   10.1530    4.8080 C   0  0  0  0  0  0  0  0  0  0  0  0
    7.5250   10.1560    3.4500 O   0  0  0  0  0  0  0  0  0  0  0  0
    6.6140   10.7140    0.9150 O   0  0  0  0  0  0  0  0  0  0  0  0
    6.3330   10.4330   -0.4580 C   0  0  0  0  0  0  0  0  0  0  0  0
  1  2  1  0  0  0  0
  1 26  1  0  0  0  0
  3  7  1  0  0  0  0
  3  2  2  0  0  0  0
  4  3  1  0  0  0  0
  5  4  2  0  0  0  0
  5  6  1  0  0  0  0
  6  1  2  0  0  0  0
  7  9  1  0  0  0  0
  8  7  1  0  0  0  0
  9 10  2  0  0  0  0
  9 11  1  0  0  0  0
 11 12  1  0  0  0  0
 12 13  1  0  0  0  0
 14 13  1  0  0  0  0
 14 15  1  0  0  0  0
 16 14  1  0  0  0  0
 17 14  1  0  0  0  0
 18  4  1  0  0  0  0
 19 18  1  0  0  0  0
 20 18  1  0  0  0  0
 20 21  2  0  0  0  0
 22 23  1  0  0  0  0
 22 20  1  0  0  0  0
 24 22  1  0  0  0  0
 24 23  1  0  0  0  0
 26 25  1  0  0  0  0
 27  6  1  0  0  0  0
 28 27  1  0  0  0  0
M  END
>  <MODEL>
1

>  <REMARK>
 VINA RESULT:      -5.1      0.000      0.000
  Name = ZINC31971727
                            x       y       z     vdW  Elec       q    Type
                         _______ _______ _______ _____ _____    ______ ____

>  <TORSDO>
F 9

>  <vina_score>
-5.1

$$$$
ZINC25133930
 OpenBabel01081722553D

 32 33  0  0  0  0  0  0  0  0999 V2000
    7.1050   11.6210   -0.8190 C   0  0  0  0  0  0  0  0  0  0  0  0
    6.9440   11.4910    0.5120 N   0  0  0  0  0  0  0  0  0  0  0  0
    7.5060   12.0140    1.1300 H   0  0  0  0  0  0  0  0  0  0  0  0
    6.4110   10.9760   -1.5810 O   0  0  0  0  0  0  0  0  0  0  0  0
    9.6990   14.3260   -1.0060 C   0  0  0  0  0  0  0  0  0  0  0  0
    8.7480   13.4660   -0.5040 C   0  0  0  0  0  0  0  0  0  0  0  0
    8.1260   12.5460   -1.3520 C   0  0  0  0  0  0  0  0  0  0  0  0
    8.4650   12.5080   -2.7070 C   0  0  0  0  0  0  0  0  0  0  0  0
    9.4210   13.3680   -3.1990 C   0  0  0  0  0  0  0  0  0  0  0  0
   10.0390   14.2810   -2.3530 C   0  0  0  0  0  0  0  0  0  0  0  0
   10.4850   15.4870    0.0630 S   0  0  0  0  0  0  0  0  0  0  0  0
   10.6980   16.6650   -0.7030 O   0  0  0  0  0  0  0  0  0  0  0  0
   11.5460   14.7930    0.7040 O   0  0  0  0  0  0  0  0  0  0  0  0
    9.4190   15.1780    2.5290 C   0  0  0  0  0  0  0  0  0  0  0  0
    9.3940   15.8820    1.2440 N   0  0  0  0  0  0  0  0  0  0  0  0
    9.5270   16.8710    1.4490 H   0  0  0  0  0  0  0  0  0  0  0  0
   10.9760   15.1320   -2.8420 O   0  0  0  0  0  0  0  0  0  0  0  0
   12.3420   14.7280   -2.7240 C   0  0  0  0  0  0  0  0  0  0  0  0
    5.9320   10.5740    1.0410 C   0  0  0  0  0  0  0  0  0  0  0  0
    6.3160   10.1540    2.4620 C   0  0  0  0  0  0  0  0  0  0  0  0
    7.7750   10.1540    2.5940 N   0  0  0  0  0  0  0  0  0  0  0  0
    8.1560   10.1800    1.6480 H   0  0  0  0  0  0  0  0  0  0  0  0
    8.5290   11.3560    3.4470 S   0  0  0  0  0  0  0  0  0  0  0  0
    8.6380   10.8970    4.7870 O   0  0  0  0  0  0  0  0  0  0  0  0
    7.8690   12.5680    3.1090 O   0  0  0  0  0  0  0  0  0  0  0  0
   10.1720   11.4850    2.8230 C   0  0  0  0  0  0  0  0  0  0  0  0
   10.4870   10.9440    1.5910 C   0  0  0  0  0  0  0  0  0  0  0  0
   11.7760   11.0480    1.0980 C   0  0  0  0  0  0  0  0  0  0  0  0
   12.7500   11.6840    1.8440 C   0  0  0  0  0  0  0  0  0  0  0  0
   12.4360   12.2220    3.0790 C   0  0  0  0  0  0  0  0  0  0  0  0
   13.6610   13.0200    4.0160 Cl  0  0  0  0  0  0  0  0  0  0  0  0
   11.1460   12.1210    3.5690 C   0  0  0  0  0  0  0  0  0  0  0  0
  1  2  1  0  0  0  0
  2 19  1  0  0  0  0
  2  3  1  0  0  0  0
  4  1  2  0  0  0  0
  5  6  1  0  0  0  0
  5 11  1  0  0  0  0
  7  1  1  0  0  0  0
  7  6  2  0  0  0  0
  8  7  1  0  0  0  0
  9  8  2  0  0  0  0
  9 10  1  0  0  0  0
 10  5  2  0  0  0  0
 11 13  2  0  0  0  0
 11 15  1  0  0  0  0
 12 11  2  0  0  0  0
 15 16  1  0  0  0  0
 15 14  1  0  0  0  0
 17 18  1  0  0  0  0
 17 10  1  0  0  0  0
 19 20  1  0  0  0  0
 20 21  1  0  0  0  0
 21 23  1  0  0  0  0
 22 21  1  0  0  0  0
 23 24  2  0  0  0  0
 25 23  2  0  0  0  0
 26 23  1  0  0  0  0
 26 32  2  0  0  0  0
 27 26  1  0  0  0  0
 28 27  2  0  0  0  0
 28 29  1  0  0  0  0
 29 30  2  0  0  0  0
 30 32  1  0  0  0  0
 30 31  1  0  0  0  0
M  END
>  <MODEL>
1

>  <REMARK>
 VINA RESULT:      -5.1      0.000      0.000
  Name = ZINC25133930
                            x       y       z     vdW  Elec       q    Type
                         _______ _______ _______ _____ _____    ______ ____

>  <TORSDO>
F 9

>  <vina_score>
-5.1

$$$$
ZINC18663576
 OpenBabel01081722353D

 29 30  0  0  0  0  0  0  0  0999 V2000
   11.6670   14.5560   -0.3790 C   0  0  0  0  0  0  0  0  0  0  0  0
   10.6330   14.7800    0.4550 N   0  0  0  0  0  0  0  0  0  0  0  0
   10.0270   15.5400    0.2950 H   0  0  0  0  0  0  0  0  0  0  0  0
   12.3550   13.5670   -0.2380 O   0  0  0  0  0  0  0  0  0  0  0  0
   10.4180   13.9330    1.5500 C   0  0  0  0  0  0  0  0  0  0  0  0
    9.2580   14.0500    2.3040 C   0  0  0  0  0  0  0  0  0  0  0  0
    9.0510   13.2190    3.3860 C   0  0  0  0  0  0  0  0  0  0  0  0
    9.9960   12.2580    3.7140 C   0  0  0  0  0  0  0  0  0  0  0  0
   11.1530   12.1350    2.9590 C   0  0  0  0  0  0  0  0  0  0  0  0
   11.3640   12.9700    1.8790 C   0  0  0  0  0  0  0  0  0  0  0  0
   12.3520   10.9150    3.3770 S   0  0  0  0  0  0  0  0  0  0  0  0
   12.7710   10.3210    2.1550 O   0  0  0  0  0  0  0  0  0  0  0  0
   11.8030   10.1540    4.4440 O   0  0  0  0  0  0  0  0  0  0  0  0
   13.6680   11.7110    3.9900 N   0  0  0  0  0  0  0  0  0  0  0  0
   14.7410   10.9580    4.6450 C   0  0  0  0  0  0  0  0  0  0  0  0
   13.7600   13.1690    3.8770 C   0  0  0  0  0  0  0  0  0  0  0  0
    9.7880   11.4340    4.7760 O   0  0  0  0  0  0  0  0  0  0  0  0
    8.7820   10.4310    4.6320 C   0  0  0  0  0  0  0  0  0  0  0  0
   11.9680   15.5330   -1.4850 C   0  0  0  0  0  0  0  0  0  0  0  0
   11.2010   14.9590   -3.0250 S   0  0  0  0  0  0  0  0  0  0  0  0
    7.4690   12.8800   -1.8320 C   0  0  0  0  0  0  0  0  0  0  0  0
    7.4770   14.1900   -1.6810 N   0  0  0  0  0  0  0  0  0  0  0  0
    8.5950   14.9130   -2.0270 N   0  0  0  0  0  0  0  0  0  0  0  0
    9.6540   14.2920   -2.5080 C   0  0  0  0  0  0  0  0  0  0  0  0
    9.1000   12.5930   -2.5010 S   0  0  0  0  0  0  0  0  0  0  0  0
    6.4600   11.9660   -1.5520 N   0  0  0  0  0  0  0  0  0  0  0  0
    5.5480   12.1210   -1.8880 H   0  0  0  0  0  0  0  0  0  0  0  0
    7.4310   11.1820    0.5510 C   0  0  0  0  0  0  0  0  0  0  0  0
    6.7530   10.7710   -0.7580 C   0  0  0  0  0  0  0  0  0  0  0  0
  1  4  2  0  0  0  0
  1  2  1  0  0  0  0
  2  5  1  0  0  0  0
  3  2  1  0  0  0  0
  5 10  2  0  0  0  0
  5  6  1  0  0  0  0
  6  7  2  0  0  0  0
  7  8  1  0  0  0  0
  8 17  1  0  0  0  0
  9 11  1  0  0  0  0
  9  8  2  0  0  0  0
 10  9  1  0  0  0  0
 11 14  1  0  0  0  0
 11 13  2  0  0  0  0
 12 11  2  0  0  0  0
 14 15  1  0  0  0  0
 16 14  1  0  0  0  0
 18 17  1  0  0  0  0
 19  1  1  0  0  0  0
 20 24  1  0  0  0  0
 20 19  1  0  0  0  0
 21 22  2  0  0  0  0
 21 26  1  0  0  0  0
 23 22  1  0  0  0  0
 24 25  1  0  0  0  0
 24 23  2  0  0  0  0
 25 21  1  0  0  0  0
 26 29  1  0  0  0  0
 27 26  1  0  0  0  0
 29 28  1  0  0  0  0
M  END
>  <MODEL>
1

>  <REMARK>
 VINA RESULT:      -5.1      0.000      0.000
  Name = ZINC18663576
                            x       y       z     vdW  Elec       q    Type
                         _______ _______ _______ _____ _____    ______ ____

>  <TORSDO>
F 9

>  <vina_score>
-5.1

$$$$
ZINC23365452
 OpenBabel01081722383D

 32 34  0  0  0  0  0  0  0  0999 V2000
   12.9000   12.2640    1.7050 C   0  0  0  0  0  0  0  0  0  0  0  0
   10.4530   12.1740    2.0530 N   0  0  0  0  0  0  0  0  0  0  0  0
   10.4810   13.1300    2.2840 H   0  0  0  0  0  0  0  0  0  0  0  0
   11.5920   11.5180    1.7570 C   0  0  0  0  0  0  0  0  0  0  0  0
   11.5650   10.3260    1.5320 O   0  0  0  0  0  0  0  0  0  0  0  0
    6.5760   10.5160   -0.4750 C   0  0  0  0  0  0  0  0  0  0  0  0
    7.3290   10.6770    0.8200 C   0  0  0  0  0  0  0  0  0  0  0  0
    6.8100   10.1530    1.9910 C   0  0  0  0  0  0  0  0  0  0  0  0
    7.4950   10.3050    3.1830 C   0  0  0  0  0  0  0  0  0  0  0  0
    8.7030   10.9740    3.2060 C   0  0  0  0  0  0  0  0  0  0  0  0
    9.2290   11.4960    2.0320 C   0  0  0  0  0  0  0  0  0  0  0  0
    8.5380   11.3420    0.8370 C   0  0  0  0  0  0  0  0  0  0  0  0
    9.1070   11.9060   -0.4400 C   0  0  0  0  0  0  0  0  0  0  0  0
    9.4360   11.1350    4.4820 N   0  0  0  0  0  0  0  0  0  0  0  0
    9.7420   12.2470    4.8730 O   0  0  0  0  0  0  0  0  0  0  0  0
    9.7330   10.1550    5.1410 O   0  0  0  0  0  0  0  0  0  0  0  0
   12.5790   14.0300    1.4790 S   0  0  0  0  0  0  0  0  0  0  0  0
   11.9250   14.0160   -0.1570 C   0  0  0  0  0  0  0  0  0  0  0  0
   12.3410   13.2750   -1.1580 N   0  0  0  0  0  0  0  0  0  0  0  0
   11.6370   13.5200   -2.2050 N   0  0  0  0  0  0  0  0  0  0  0  0
   10.7390   14.4250   -1.9380 C   0  0  0  0  0  0  0  0  0  0  0  0
   10.8850   14.7690   -0.6230 N   0  0  0  0  0  0  0  0  0  0  0  0
    9.7220   14.9840   -2.8990 C   0  0  0  0  0  0  0  0  0  0  0  0
    8.2550   14.6140   -2.6700 C   0  0  0  0  0  0  0  0  0  0  0  0
    9.0240   13.9990   -3.8410 C   0  0  0  0  0  0  0  0  0  0  0  0
   10.0950   15.7460    0.1300 C   0  0  0  0  0  0  0  0  0  0  0  0
    8.9630   15.0280    0.8660 C   0  0  0  0  0  0  0  0  0  0  0  0
    9.0450   15.3390    2.3390 C   0  0  0  0  0  0  0  0  0  0  0  0
    8.3040   14.6360    3.2180 N   0  0  0  0  0  0  0  0  0  0  0  0
    8.3570   14.8390    4.1800 H   0  0  0  0  0  0  0  0  0  0  0  0
    7.7100   13.9180    2.8990 H   0  0  0  0  0  0  0  0  0  0  0  0
    9.7770   16.2230    2.7320 O   0  0  0  0  0  0  0  0  0  0  0  0
  1  4  1  0  0  0  0
  2  3  1  0  0  0  0
  4  2  1  0  0  0  0
  5  4  2  0  0  0  0
  6  7  1  0  0  0  0
  7 12  2  0  0  0  0
  7  8  1  0  0  0  0
  8  9  2  0  0  0  0
  9 10  1  0  0  0  0
 10 14  1  0  0  0  0
 11  2  1  0  0  0  0
 11 10  2  0  0  0  0
 12 11  1  0  0  0  0
 13 12  1  0  0  0  0
 14 15  2  0  0  0  0
 14 16  2  0  0  0  0
 17  1  1  0  0  0  0
 18 17  1  0  0  0  0
 19 18  2  0  0  0  0
 20 21  2  0  0  0  0
 20 19  1  0  0  0  0
 21 22  1  0  0  0  0
 22 18  1  0  0  0  0
 22 26  1  0  0  0  0
 23 24  1  0  0  0  0
 23 21  1  0  0  0  0
 25 23  1  0  0  0  0
 25 24  1  0  0  0  0
 26 27  1  0  0  0  0
 27 28  1  0  0  0  0
 28 32  2  0  0  0  0
 28 29  1  0  0  0  0
 29 30  1  0  0  0  0
 31 29  1  0  0  0  0
M  END
>  <MODEL>
1

>  <REMARK>
 VINA RESULT:      -5.0      0.000      0.000
  Name = ZINC23365452
                            x       y       z     vdW  Elec       q    Type
                         _______ _______ _______ _____ _____    ______ ____

>  <TORSDO>
F 9

>  <vina_score>
-5.0

$$$$
ZINC24628488
 OpenBabel01081722453D

 29 30  0  0  0  0  0  0  0  0999 V2000
   13.0150   12.9270    3.1500 C   0  0  0  0  0  0  0  0  0  0  0  0
   13.1040   12.6880    1.8270 N   0  0  0  0  0  0  0  0  0  0  0  0
   13.7400   12.0160    1.4890 H   0  0  0  0  0  0  0  0  0  0  0  0
   12.2290   13.7570    3.5660 O   0  0  0  0  0  0  0  0  0  0  0  0
   15.6860   12.0880    5.6460 C   0  0  0  0  0  0  0  0  0  0  0  0
   14.9080   12.8310    4.7770 C   0  0  0  0  0  0  0  0  0  0  0  0
   13.8720   12.1840    4.0930 C   0  0  0  0  0  0  0  0  0  0  0  0
   13.6600   10.8160    4.3250 C   0  0  0  0  0  0  0  0  0  0  0  0
   14.4310   10.1540    5.1720 N   0  0  0  0  0  0  0  0  0  0  0  0
   15.4160   10.7430    5.8220 C   0  0  0  0  0  0  0  0  0  0  0  0
   12.6600   10.1710    3.6800 O   0  0  0  0  0  0  0  0  0  0  0  0
   11.3810   10.1540    4.3180 C   0  0  0  0  0  0  0  0  0  0  0  0
   10.3160   10.6520    3.3400 C   0  0  0  0  0  0  0  0  0  0  0  0
    9.0640   10.1580    3.7200 F   0  0  0  0  0  0  0  0  0  0  0  0
   10.6220   10.2040    2.0510 F   0  0  0  0  0  0  0  0  0  0  0  0
   10.2890   12.0510    3.3530 F   0  0  0  0  0  0  0  0  0  0  0  0
   12.2910   13.3940    0.9310 N   0  0  0  0  0  0  0  0  0  0  0  0
   12.3240   14.3780    0.9070 H   0  0  0  0  0  0  0  0  0  0  0  0
   11.4620   12.7270    0.1040 C   0  0  0  0  0  0  0  0  0  0  0  0
   11.4210   11.5110    0.1340 O   0  0  0  0  0  0  0  0  0  0  0  0
   10.6100   13.4660   -0.8340 C   0  0  0  0  0  0  0  0  0  0  0  0
   10.2720   13.0720   -2.1120 C   0  0  0  0  0  0  0  0  0  0  0  0
    9.4480   14.0680   -2.6440 C   0  0  0  0  0  0  0  0  0  0  0  0
    9.3080   15.0360   -1.7060 C   0  0  0  0  0  0  0  0  0  0  0  0
   10.0090   14.6820   -0.6020 N   0  0  0  0  0  0  0  0  0  0  0  0
   10.0780   15.2070    0.2280 H   0  0  0  0  0  0  0  0  0  0  0  0
    8.8400   14.0690   -3.9940 N   0  0  0  0  0  0  0  0  0  0  0  0
    8.6880   13.0200   -4.5930 O   0  0  0  0  0  0  0  0  0  0  0  0
    8.4940   15.1190   -4.5050 O   0  0  0  0  0  0  0  0  0  0  0  0
  1  4  2  0  0  0  0
  1  7  1  0  0  0  0
  2  1  1  0  0  0  0
  3  2  1  0  0  0  0
  5 10  1  0  0  0  0
  6  5  2  0  0  0  0
  7  8  2  0  0  0  0
  7  6  1  0  0  0  0
  8  9  1  0  0  0  0
  9 10  2  0  0  0  0
 11 12  1  0  0  0  0
 11  8  1  0  0  0  0
 13 16  1  0  0  0  0
 13 14  1  0  0  0  0
 13 12  1  0  0  0  0
 15 13  1  0  0  0  0
 17  2  1  0  0  0  0
 18 17  1  0  0  0  0
 19 20  2  0  0  0  0
 19 17  1  0  0  0  0
 21 25  1  0  0  0  0
 21 19  1  0  0  0  0
 22 21  2  0  0  0  0
 23 22  1  0  0  0  0
 23 24  2  0  0  0  0
 24 25  1  0  0  0  0
 25 26  1  0  0  0  0
 27 23  1  0  0  0  0
 28 27  2  0  0  0  0
 29 27  2  0  0  0  0
M  END
>  <MODEL>
1

>  <REMARK>
 VINA RESULT:      -4.9      0.000      0.000
  Name = ZINC24628488
                            x       y       z     vdW  Elec       q    Type
                         _______ _______ _______ _____ _____    ______ ____

>  <TORSDO>
F 7

>  <vina_score>
-4.9

$$$$
ZINC05202206
 OpenBabel01081722543D

 25 26  0  0  0  0  0  0  0  0999 V2000
    9.6770   12.6410    1.1770 N   0  0  0  0  0  0  0  0  0  0  0  0
   10.7210   11.8870    1.2640 N   0  0  0  0  0  0  0  0  0  0  0  0
   11.1390   11.1250    0.1470 O   0  0  0  0  0  0  0  0  0  0  0  0
    7.2480   10.9450    0.2290 C   0  0  0  0  0  0  0  0  0  0  0  0
    7.9450   12.0610   -0.5050 C   0  0  0  0  0  0  0  0  0  0  0  0
    9.0480   12.8030   -0.0300 C   0  0  0  0  0  0  0  0  0  0  0  0
    9.3750   13.7200   -1.0050 C   0  0  0  0  0  0  0  0  0  0  0  0
   10.4900   14.7320   -0.9390 C   0  0  0  0  0  0  0  0  0  0  0  0
    8.5130   13.5470   -2.0260 N   0  0  0  0  0  0  0  0  0  0  0  0
    7.6310   12.5140   -1.6880 N   0  0  0  0  0  0  0  0  0  0  0  0
    8.4970   14.3140   -3.2750 C   0  0  0  0  0  0  0  0  0  0  0  0
    9.3470   13.5960   -4.3250 C   0  0  0  0  0  0  0  0  0  0  0  0
    8.9920   12.2120   -4.3590 O   0  0  0  0  0  0  0  0  0  0  0  0
    8.7810   11.9550   -5.2690 H   0  0  0  0  0  0  0  0  0  0  0  0
   11.4250   11.8250    2.4380 C   0  0  0  0  0  0  0  0  0  0  0  0
   11.0920   11.0570    3.5750 C   0  0  0  0  0  0  0  0  0  0  0  0
    9.8930   10.1540    3.7120 C   0  0  0  0  0  0  0  0  0  0  0  0
   12.0060   11.2620    4.4840 N   0  0  0  0  0  0  0  0  0  0  0  0
   12.9480   12.1660    3.9830 N   0  0  0  0  0  0  0  0  0  0  0  0
   12.5870   12.5070    2.7310 C   0  0  0  0  0  0  0  0  0  0  0  0
   13.3190   13.4570    1.8180 C   0  0  0  0  0  0  0  0  0  0  0  0
   14.1290   12.6590    4.6980 C   0  0  0  0  0  0  0  0  0  0  0  0
   15.0770   11.4920    4.9800 C   0  0  0  0  0  0  0  0  0  0  0  0
   14.3950   10.2580    4.7490 O   0  0  0  0  0  0  0  0  0  0  0  0
   13.5570   10.4330    4.2930 H   0  0  0  0  0  0  0  0  0  0  0  0
  1  2  1  0  0  0  0
  2 15  1  0  0  0  0
  3  2  1  0  0  0  0
  5  6  1  0  0  0  0
  5  4  1  0  0  0  0
  6  1  1  0  0  0  0
  7  8  1  0  0  0  0
  7  6  2  0  0  0  0
  9 10  1  0  0  0  0
  9  7  1  0  0  0  0
 10  5  2  0  0  0  0
 11  9  1  0  0  0  0
 12 11  1  0  0  0  0
 13 12  1  0  0  0  0
 14 13  1  0  0  0  0
 15 20  2  0  0  0  0
 15 16  1  0  0  0  0
 16 17  1  0  0  0  0
 16 18  2  0  0  0  0
 19 18  1  0  0  0  0
 19 22  1  0  0  0  0
 20 19  1  0  0  0  0
 21 20  1  0  0  0  0
 22 23  1  0  0  0  0
 24 23  1  0  0  0  0
 25 24  1  0  0  0  0
M  END
>  <MODEL>
1

>  <REMARK>
 VINA RESULT:      -4.9      0.000      0.000
  Name = ZINC05202206
                            x       y       z     vdW  Elec       q    Type
                         _______ _______ _______ _____ _____    ______ ____

>  <TORSDO>
F 8

>  <vina_score>
-4.9

$$$$
ZINC29647851
 OpenBabel01081722353D

 34 35  0  0  0  0  0  0  0  0999 V2000
    9.8390   14.7080    2.4750 C   0  0  0  0  0  0  0  0  0  0  0  0
   10.0880   15.7760    2.9960 O   0  0  0  0  0  0  0  0  0  0  0  0
   10.3260   13.5130    3.0450 C   0  0  0  0  0  0  0  0  0  0  0  0
   11.6800   13.1530    2.9280 C   0  0  0  0  0  0  0  0  0  0  0  0
   12.1060   11.9870    3.4970 N   0  0  0  0  0  0  0  0  0  0  0  0
   11.2580   11.1830    4.1570 C   0  0  0  0  0  0  0  0  0  0  0  0
    9.9560   11.4760    4.3060 N   0  0  0  0  0  0  0  0  0  0  0  0
    9.0870   10.5560    5.0430 C   0  0  0  0  0  0  0  0  0  0  0  0
   11.6850   10.1530    4.6410 O   0  0  0  0  0  0  0  0  0  0  0  0
    9.4370   12.6050    3.7810 C   0  0  0  0  0  0  0  0  0  0  0  0
    8.2550   12.8650    3.9130 O   0  0  0  0  0  0  0  0  0  0  0  0
   12.5530   13.9550    2.2580 N   0  0  0  0  0  0  0  0  0  0  0  0
   13.3950   13.5820    1.9090 H   0  0  0  0  0  0  0  0  0  0  0  0
   12.3420   14.9060    2.1230 H   0  0  0  0  0  0  0  0  0  0  0  0
   13.5150   11.6030    3.3800 C   0  0  0  0  0  0  0  0  0  0  0  0
   14.2040   11.7740    4.7350 C   0  0  0  0  0  0  0  0  0  0  0  0
   15.1830   10.6190    4.9590 C   0  0  0  0  0  0  0  0  0  0  0  0
   14.9670   13.1000    4.7560 C   0  0  0  0  0  0  0  0  0  0  0  0
    9.0090   14.6590    1.2180 C   0  0  0  0  0  0  0  0  0  0  0  0
    9.3990   13.4920    0.4210 N   0  0  0  0  0  0  0  0  0  0  0  0
   10.3510   13.2740    0.3030 H   0  0  0  0  0  0  0  0  0  0  0  0
    7.9200   13.0090   -1.4250 C   0  0  0  0  0  0  0  0  0  0  0  0
    6.9520   12.2140   -2.0040 C   0  0  0  0  0  0  0  0  0  0  0  0
    6.4780   11.1000   -1.3360 C   0  0  0  0  0  0  0  0  0  0  0  0
    6.9720   10.7790   -0.0850 C   0  0  0  0  0  0  0  0  0  0  0  0
    7.9440   11.5670    0.4990 C   0  0  0  0  0  0  0  0  0  0  0  0
    8.4190   12.6900   -0.1680 C   0  0  0  0  0  0  0  0  0  0  0  0
    8.4370   14.2220   -2.1540 C   0  0  0  0  0  0  0  0  0  0  0  0
    9.8610   14.0440   -2.4520 N   0  0  0  0  0  0  0  0  0  0  0  0
   10.7720   14.8740   -1.9090 C   0  0  0  0  0  0  0  0  0  0  0  0
   12.2360   14.6900   -2.2160 C   0  0  0  0  0  0  0  0  0  0  0  0
   10.4150   15.7690   -1.1720 O   0  0  0  0  0  0  0  0  0  0  0  0
    9.3510   12.8870   -4.5450 C   0  0  0  0  0  0  0  0  0  0  0  0
   10.2920   12.9630   -3.3420 C   0  0  0  0  0  0  0  0  0  0  0  0
  1  2  2  0  0  0  0
  1  3  1  0  0  0  0
  3 10  1  0  0  0  0
  4  3  2  0  0  0  0
  4  5  1  0  0  0  0
  5  6  1  0  0  0  0
  6  7  1  0  0  0  0
  6  9  2  0  0  0  0
  7  8  1  0  0  0  0
 10 11  2  0  0  0  0
 10  7  1  0  0  0  0
 12  4  1  0  0  0  0
 13 12  1  0  0  0  0
 14 12  1  0  0  0  0
 15  5  1  0  0  0  0
 15 16  1  0  0  0  0
 16 18  1  0  0  0  0
 16 17  1  0  0  0  0
 19  1  1  0  0  0  0
 20 19  1  0  0  0  0
 21 20  1  0  0  0  0
 22 27  1  0  0  0  0
 23 22  2  0  0  0  0
 23 24  1  0  0  0  0
 24 25  2  0  0  0  0
 25 26  1  0  0  0  0
 27 20  1  0  0  0  0
 27 26  2  0  0  0  0
 28 22  1  0  0  0  0
 29 28  1  0  0  0  0
 29 30  1  0  0  0  0
 30 32  2  0  0  0  0
 31 30  1  0  0  0  0
 33 34  1  0  0  0  0
 34 29  1  0  0  0  0
M  END
>  <MODEL>
1

>  <REMARK>
 VINA RESULT:      -4.8      0.000      0.000
  Name = ZINC29647851
                            x       y       z     vdW  Elec       q    Type
                         _______ _______ _______ _____ _____    ______ ____

>  <TORSDO>
F 10

>  <vina_score>
-4.8

$$$$
ZINC29372671
 OpenBabel01081722423D

 33 34  0  0  1  0  0  0  0  0999 V2000
   11.4110   13.7900    0.5630 N   0  0  0  0  0  0  0  0  0  0  0  0
   10.8340   14.5710    0.7200 H   0  0  0  0  0  0  0  0  0  0  0  0
   11.6690   13.3820   -0.6950 C   0  0  0  0  0  0  0  0  0  0  0  0
   12.3800   12.4190   -0.8870 O   0  0  0  0  0  0  0  0  0  0  0  0
   11.4370   12.0130    2.3280 C   0  0  0  0  0  0  0  0  0  0  0  0
   12.1830   11.4990    3.3780 C   0  0  0  0  0  0  0  0  0  0  0  0
   11.6980   10.3140    4.1740 C   0  0  0  0  0  0  0  0  0  0  0  0
   13.3740   12.1060    3.6670 C   0  0  0  0  0  0  0  0  0  0  0  0
   13.4540   13.4120    2.4560 S   0  0  0  0  0  0  0  0  0  0  0  0
   11.9570   13.1100    1.6350 C   0  0  0  0  0  0  0  0  0  0  0  0
   14.3430   11.7670    4.7120 C   0  0  0  0  0  0  0  0  0  0  0  0
   14.7650   10.4930    4.8510 N   0  0  0  0  0  0  0  0  0  0  0  0
   14.4210    9.7920    4.2520 H   0  0  0  0  0  0  0  0  0  0  0  0
   15.7330   10.1540    5.8960 C   0  0  0  0  0  0  0  0  0  0  0  0
   14.7670   12.6330    5.4540 O   0  0  0  0  0  0  0  0  0  0  0  0
   10.1470   11.4200    1.9520 C   0  0  0  0  0  0  0  0  0  0  0  0
   10.0840   10.2430    1.6530 O   0  0  0  0  0  0  0  0  0  0  0  0
    9.0340   12.1800    1.9390 O   0  0  0  0  0  0  0  0  0  0  0  0
    8.6160   14.3710    2.9160 C   0  0  0  0  0  0  0  0  0  0  0  0
    8.6890   12.8640    3.1720 C   0  0  0  0  0  0  0  0  0  0  0  0
   11.0730   14.1230   -1.8640 C   0  0  1  0  0  0  0  0  0  0  0  0
   11.6650   13.5830   -3.1670 C   0  0  0  0  0  0  0  0  0  0  0  0
    9.6200   13.9320   -1.8730 N   0  0  0  0  0  0  0  0  0  0  0  0
    8.8470   14.9160   -2.2930 C   0  0  0  0  0  0  0  0  0  0  0  0
    7.4710   14.7810   -2.3190 C   0  0  0  0  0  0  0  0  0  0  0  0
    6.8990   13.5940   -1.8990 C   0  0  0  0  0  0  0  0  0  0  0  0
    7.7430   12.5680   -1.4600 C   0  0  0  0  0  0  0  0  0  0  0  0
    9.1230   12.7820   -1.4680 C   0  0  0  0  0  0  0  0  0  0  0  0
    7.1860   11.2790   -1.0000 C   0  0  0  0  0  0  0  0  0  0  0  0
    7.7780   10.6110    0.0110 N   0  0  0  0  0  0  0  0  0  0  0  0
    7.4070    9.7520    0.3170 H   0  0  0  0  0  0  0  0  0  0  0  0
    8.5810   10.9840    0.4420 H   0  0  0  0  0  0  0  0  0  0  0  0
    6.1950   10.8200   -1.5330 O   0  0  0  0  0  0  0  0  0  0  0  0
  1  2  1  0  0  0  0
  1 10  1  0  0  0  0
  3  1  1  0  0  0  0
  4  3  2  0  0  0  0
  5  6  1  0  0  0  0
  6  8  2  0  0  0  0
  6  7  1  0  0  0  0
  8 11  1  0  0  0  0
  9  8  1  0  0  0  0
 10  5  2  0  0  0  0
 10  9  1  0  0  0  0
 11 12  1  0  0  0  0
 11 15  2  0  0  0  0
 12 14  1  0  0  0  0
 13 12  1  0  0  0  0
 16  5  1  0  0  0  0
 17 16  2  0  0  0  0
 18 16  1  0  0  0  0
 18 20  1  0  0  0  0
 19 20  1  0  0  0  0
 21 22  1  6  0  0  0
 21  3  1  0  0  0  0
 23 21  1  0  0  0  0
 23 28  1  0  0  0  0
 24 23  1  0  0  0  0
 25 24  2  0  0  0  0
 25 26  1  0  0  0  0
 26 27  1  0  0  0  0
 27 29  1  0  0  0  0
 28 27  2  0  0  0  0
 29 30  1  0  0  0  0
 30 31  1  0  0  0  0
 30 32  1  0  0  0  0
 33 29  2  0  0  0  0
M  END
>  <MODEL>
1

>  <REMARK>
 VINA RESULT:      -4.6      0.000      0.000
  Name = ZINC29372671
                            x       y       z     vdW  Elec       q    Type
                         _______ _______ _______ _____ _____    ______ ____

>  <TORSDO>
F 8

>  <vina_score>
-4.6

$$$$
ZINC18517895
 OpenBabel01081722453D

 36 38  0  0  0  0  0  0  0  0999 V2000
   11.5920   13.0970   -1.9910 C   0  0  0  0  0  0  0  0  0  0  0  0
   11.8330   13.2010    2.9060 N   0  0  0  0  0  0  0  0  0  0  0  0
   11.4290   13.5480    1.6520 C   0  0  0  0  0  0  0  0  0  0  0  0
   10.4920   14.5820    1.8050 C   0  0  0  0  0  0  0  0  0  0  0  0
    9.8900   15.1500    0.6000 C   0  0  0  0  0  0  0  0  0  0  0  0
   10.2760   14.6380   -0.5930 N   0  0  0  0  0  0  0  0  0  0  0  0
    9.8930   14.9950   -1.4270 H   0  0  0  0  0  0  0  0  0  0  0  0
   11.1900   13.6370   -0.6440 C   0  0  0  0  0  0  0  0  0  0  0  0
    9.0700   16.0490    0.6650 O   0  0  0  0  0  0  0  0  0  0  0  0
   10.3620   14.8280    3.1850 C   0  0  0  0  0  0  0  0  0  0  0  0
   11.7360   13.1190    0.4180 N   0  0  0  0  0  0  0  0  0  0  0  0
   11.1540   14.0120    3.8250 N   0  0  0  0  0  0  0  0  0  0  0  0
   14.6090   10.2390    3.8440 C   0  0  0  0  0  0  0  0  0  0  0  0
   13.8780   10.1530    2.6730 C   0  0  0  0  0  0  0  0  0  0  0  0
   12.9570   11.1340    2.3590 C   0  0  0  0  0  0  0  0  0  0  0  0
   12.7660   12.2060    3.2210 C   0  0  0  0  0  0  0  0  0  0  0  0
   13.5050   12.2910    4.3940 C   0  0  0  0  0  0  0  0  0  0  0  0
   14.4210   11.3050    4.7040 C   0  0  0  0  0  0  0  0  0  0  0  0
   10.9400   13.9360   -3.0920 C   0  0  0  0  0  0  0  0  0  0  0  0
    9.4850   13.5590   -3.2160 C   0  0  0  0  0  0  0  0  0  0  0  0
    9.1370   12.7660   -4.0590 O   0  0  0  0  0  0  0  0  0  0  0  0
    8.5780   14.1030   -2.3900 O   0  0  0  0  0  0  0  0  0  0  0  0
    7.2670   13.4800   -2.3490 C   0  0  0  0  0  0  0  0  0  0  0  0
    7.2960   12.3110   -1.3980 C   0  0  0  0  0  0  0  0  0  0  0  0
    7.8990   12.4320   -0.1990 N   0  0  0  0  0  0  0  0  0  0  0  0
    8.3210   13.2850    0.0550 H   0  0  0  0  0  0  0  0  0  0  0  0
    7.9250   11.3870    0.6510 C   0  0  0  0  0  0  0  0  0  0  0  0
    8.5290   11.5080    1.8490 N   0  0  0  0  0  0  0  0  0  0  0  0
    8.9510   12.3610    2.1040 H   0  0  0  0  0  0  0  0  0  0  0  0
    7.4040   10.3350    0.3360 O   0  0  0  0  0  0  0  0  0  0  0  0
    6.7770   11.2610   -1.7130 O   0  0  0  0  0  0  0  0  0  0  0  0
    8.5570   10.3720    2.7740 C   0  0  0  0  0  0  0  0  0  0  0  0
    8.9620   10.8580    4.1670 C   0  0  0  0  0  0  0  0  0  0  0  0
   10.3290   10.6300    4.3620 F   0  0  0  0  0  0  0  0  0  0  0  0
    8.2320   10.1600    5.1350 F   0  0  0  0  0  0  0  0  0  0  0  0
    8.6960   12.2260    4.2790 F   0  0  0  0  0  0  0  0  0  0  0  0
  1  8  1  0  0  0  0
  2 16  1  0  0  0  0
  2 12  1  0  0  0  0
  3  4  2  0  0  0  0
  3  2  1  0  0  0  0
  4 10  1  0  0  0  0
  5  9  2  0  0  0  0
  5  4  1  0  0  0  0
  6  5  1  0  0  0  0
  7  6  1  0  0  0  0
  8  6  1  0  0  0  0
  8 11  2  0  0  0  0
 10 12  2  0  0  0  0
 11  3  1  0  0  0  0
 13 18  2  0  0  0  0
 14 13  1  0  0  0  0
 15 14  2  0  0  0  0
 15 16  1  0  0  0  0
 16 17  2  0  0  0  0
 17 18  1  0  0  0  0
 19  1  1  0  0  0  0
 20 19  1  0  0  0  0
 20 22  1  0  0  0  0
 21 20  2  0  0  0  0
 22 23  1  0  0  0  0
 23 24  1  0  0  0  0
 24 25  1  0  0  0  0
 25 26  1  0  0  0  0
 25 27  1  0  0  0  0
 27 28  1  0  0  0  0
 28 29  1  0  0  0  0
 28 32  1  0  0  0  0
 30 27  2  0  0  0  0
 31 24  2  0  0  0  0
 32 33  1  0  0  0  0
 33 36  1  0  0  0  0
 33 34  1  0  0  0  0
 33 35  1  0  0  0  0
M  END
>  <MODEL>
1

>  <REMARK>
 VINA RESULT:      -4.6      0.000      0.000
  Name = ZINC18517895
                            x       y       z     vdW  Elec       q    Type
                         _______ _______ _______ _____ _____    ______ ____

>  <TORSDO>
F 9

>  <vina_score>
-4.6

$$$$
ZINC19639944
 OpenBabel01081722373D

 35 37  0  0  1  0  0  0  0  0999 V2000
   11.8330   11.5680    2.5660 C   0  0  1  0  0  0  0  0  0  0  0  0
   10.3370   11.4340    2.1810 C   0  0  0  0  0  0  0  0  0  0  0  0
    9.6620   12.4990    3.0690 C   0  0  2  0  0  0  0  0  0  0  0  0
    8.8600   13.5440    2.2970 C   0  0  1  0  0  0  0  0  0  0  0  0
    9.9520   14.4560    2.7880 C   0  0  0  0  0  0  0  0  0  0  0  0
   10.1200   15.6510    2.6710 O   0  0  0  0  0  0  0  0  0  0  0  0
   10.6820   13.5020    3.4020 N   0  0  0  0  0  0  0  0  0  0  0  0
   11.9630   13.0940    2.7920 C   0  0  0  0  0  0  0  0  0  0  0  0
    8.8440   13.3380    0.8040 C   0  0  0  0  0  0  0  0  0  0  0  0
    7.8250   12.6100    0.2180 C   0  0  0  0  0  0  0  0  0  0  0  0
    7.8090   12.4220   -1.1510 C   0  0  0  0  0  0  0  0  0  0  0  0
    6.7000   11.6280   -1.7910 C   0  0  0  0  0  0  0  0  0  0  0  0
    8.8130   12.9620   -1.9340 C   0  0  0  0  0  0  0  0  0  0  0  0
    8.7970   12.7550   -3.4270 C   0  0  0  0  0  0  0  0  0  0  0  0
    9.8310   13.6900   -1.3480 C   0  0  0  0  0  0  0  0  0  0  0  0
    9.8450   13.8820    0.0210 C   0  0  0  0  0  0  0  0  0  0  0  0
   10.9250   14.2780   -2.2010 C   0  0  2  0  0  0  0  0  0  0  0  0
   12.1650   14.4720   -1.3660 C   0  0  0  0  0  0  0  0  0  0  0  0
   12.5900   15.7110   -1.0750 O   0  0  0  0  0  0  0  0  0  0  0  0
   12.7740   13.5120   -0.9590 O   0  0  0  0  0  0  0  0  0  0  0  0
   10.4990   15.5390   -2.7200 O   0  0  0  0  0  0  0  0  0  0  0  0
   10.0700   15.4060   -3.5810 H   0  0  0  0  0  0  0  0  0  0  0  0
    7.5690   13.8210    2.8460 O   0  0  0  0  0  0  0  0  0  0  0  0
    6.9780   14.1310    2.1410 H   0  0  0  0  0  0  0  0  0  0  0  0
   12.1400   10.7970    3.8520 C   0  0  0  0  0  0  0  0  0  0  0  0
   13.5860   10.2950    3.8130 C   0  0  0  0  0  0  0  0  0  0  0  0
   14.1140   10.1540    5.2420 C   0  0  0  0  0  0  0  0  0  0  0  0
   15.5940   10.5420    5.2790 C   0  0  0  0  0  0  0  0  0  0  0  0
   15.1320   12.9480    4.7920 C   0  0  0  0  0  0  0  0  0  0  0  0
   15.7330   11.9720    5.8050 C   0  0  0  0  0  0  0  0  0  0  0  0
   12.7380   11.1030    1.4220 C   0  0  0  0  0  0  0  0  0  0  0  0
   11.9670   10.2130    0.5370 N   0  0  0  0  0  0  0  0  0  0  0  0
   11.4030    9.5770    1.1010 H   0  0  0  0  0  0  0  0  0  0  0  0
   11.3560   10.7730   -0.0580 H   0  0  0  0  0  0  0  0  0  0  0  0
   12.6080    9.6740   -0.0450 H   0  0  0  0  0  0  0  0  0  0  0  0
  1 31  1  6  0  0  0
  1  8  1  0  0  0  0
  1 25  1  0  0  0  0
  2  1  1  0  0  0  0
  3  2  1  6  0  0  0
  3  7  1  0  0  0  0
  4  9  1  6  0  0  0
  4  5  1  0  0  0  0
  4 23  1  0  0  0  0
  4  3  1  0  0  0  0
  5  7  1  0  0  0  0
  6  5  2  0  0  0  0
  8  7  1  0  0  0  0
 10  9  1  0  0  0  0
 11 10  2  0  0  0  0
 12 11  1  0  0  0  0
 13 15  2  0  0  0  0
 13 11  1  0  0  0  0
 14 13  1  0  0  0  0
 15 16  1  0  0  0  0
 16  9  2  0  0  0  0
 17 21  1  1  0  0  0
 17 18  1  0  0  0  0
 17 15  1  0  0  0  0
 18 19  2  0  0  0  0
 18 20  1  0  0  0  0
 22 21  1  0  0  0  0
 24 23  1  0  0  0  0
 26 25  1  0  0  0  0
 26 27  1  0  0  0  0
 27 28  1  0  0  0  0
 28 30  1  0  0  0  0
 29 30  1  0  0  0  0
 32 33  1  0  0  0  0
 32 31  1  0  0  0  0
 34 32  1  0  0  0  0
 35 32  1  0  0  0  0
M  END
>  <MODEL>
1

>  <REMARK>
 VINA RESULT:      -4.6      0.000      0.000
  Name = ZINC19639944
                            x       y       z     vdW  Elec       q    Type
                         _______ _______ _______ _____ _____    ______ ____

>  <TORSDO>
F 12

>  <vina_score>
-4.6

$$$$
ZINC25187303
 OpenBabel01081722393D

 33 34  0  0  1  0  0  0  0  0999 V2000
    8.1810   11.3800    0.1860 C   0  0  0  0  0  0  0  0  0  0  0  0
    8.8810   11.6330    1.3090 N   0  0  0  0  0  0  0  0  0  0  0  0
    8.6410   10.8580    2.5340 C   0  0  0  0  0  0  0  0  0  0  0  0
    8.3540   11.8280    3.6840 C   0  0  0  0  0  0  0  0  0  0  0  0
    9.5010   12.8350    3.7950 C   0  0  2  0  0  0  0  0  0  0  0  0
    9.6010   13.6410    2.4970 C   0  0  0  0  0  0  0  0  0  0  0  0
    9.9020   12.6910    1.3330 C   0  0  2  0  0  0  0  0  0  0  0  0
    8.3080   12.0970   -0.7830 O   0  0  0  0  0  0  0  0  0  0  0  0
   10.7590   12.1200    4.0230 N   0  0  0  0  0  0  0  0  0  0  0  0
   10.7470   11.1570    4.2240 H   0  0  0  0  0  0  0  0  0  0  0  0
   11.9300   12.7820    3.9580 C   0  0  0  0  0  0  0  0  0  0  0  0
   11.9440   13.9720    3.7110 O   0  0  0  0  0  0  0  0  0  0  0  0
   13.2040   12.0590    4.1900 C   0  0  0  0  0  0  0  0  0  0  0  0
   14.2250   12.6330    4.9540 C   0  0  0  0  0  0  0  0  0  0  0  0
   15.3940   11.9220    5.1480 C   0  0  0  0  0  0  0  0  0  0  0  0
   15.5560   10.7270    4.6170 N   0  0  0  0  0  0  0  0  0  0  0  0
   14.6210   10.1540    3.8860 C   0  0  0  0  0  0  0  0  0  0  0  0
   13.4190   10.7900    3.6450 C   0  0  0  0  0  0  0  0  0  0  0  0
    9.8660   13.4560    0.0340 C   0  0  0  0  0  0  0  0  0  0  0  0
    9.1050   14.5640   -0.0740 N   0  0  0  0  0  0  0  0  0  0  0  0
    8.5730   14.8730    0.6950 H   0  0  0  0  0  0  0  0  0  0  0  0
   10.5210   13.0760   -0.9120 O   0  0  0  0  0  0  0  0  0  0  0  0
    9.0700   15.3080   -1.3350 C   0  0  0  0  0  0  0  0  0  0  0  0
    8.3060   14.4990   -2.3840 C   0  0  0  0  0  0  0  0  0  0  0  0
    9.0470   14.5700   -3.7220 C   0  0  0  0  0  0  0  0  0  0  0  0
    9.6710   13.2310   -4.0210 C   0  0  0  0  0  0  0  0  0  0  0  0
    8.9740   12.2980   -4.3440 O   0  0  0  0  0  0  0  0  0  0  0  0
   11.0010   13.0740   -3.9270 O   0  0  0  0  0  0  0  0  0  0  0  0
   11.7320   14.0850   -3.1840 C   0  0  0  0  0  0  0  0  0  0  0  0
    6.2220   10.3170    1.2740 C   0  0  0  0  0  0  0  0  0  0  0  0
    7.2380   10.2050    0.1350 C   0  0  1  0  0  0  0  0  0  0  0  0
    6.5510   10.2000   -1.1170 O   0  0  0  0  0  0  0  0  0  0  0  0
    7.1960   10.2520   -1.8400 H   0  0  0  0  0  0  0  0  0  0  0  0
  1  2  1  0  0  0  0
  2  7  1  0  0  0  0
  2  3  1  0  0  0  0
  3  4  1  0  0  0  0
  4  5  1  0  0  0  0
  5  9  1  6  0  0  0
  6  5  1  0  0  0  0
  7 19  1  6  0  0  0
  7  6  1  0  0  0  0
  8  1  2  0  0  0  0
  9 10  1  0  0  0  0
 11  9  1  0  0  0  0
 11 13  1  0  0  0  0
 12 11  2  0  0  0  0
 13 14  2  0  0  0  0
 14 15  1  0  0  0  0
 16 15  2  0  0  0  0
 17 16  1  0  0  0  0
 18 17  2  0  0  0  0
 18 13  1  0  0  0  0
 20 19  1  0  0  0  0
 20 21  1  0  0  0  0
 22 19  2  0  0  0  0
 23 20  1  0  0  0  0
 24 23  1  0  0  0  0
 25 24  1  0  0  0  0
 26 28  1  0  0  0  0
 26 25  1  0  0  0  0
 27 26  2  0  0  0  0
 28 29  1  0  0  0  0
 31 32  1  6  0  0  0
 31  1  1  0  0  0  0
 31 30  1  0  0  0  0
 33 32  1  0  0  0  0
M  END
>  <MODEL>
1

>  <REMARK>
 VINA RESULT:      -4.6      0.000      0.000
  Name = ZINC25187303
                            x       y       z     vdW  Elec       q    Type
                         _______ _______ _______ _____ _____    ______ ____

>  <TORSDO>
F 10

>  <vina_score>
-4.6

$$$$
ZINC21195156
 OpenBabel01081722433D

 34 36  0  0  0  0  0  0  0  0999 V2000
   10.7540   12.1180    3.7150 C   0  0  0  0  0  0  0  0  0  0  0  0
   11.8140   11.2190    3.5380 C   0  0  0  0  0  0  0  0  0  0  0  0
   12.7450   11.4430    2.5660 C   0  0  0  0  0  0  0  0  0  0  0  0
   12.6550   12.5680    1.7500 C   0  0  0  0  0  0  0  0  0  0  0  0
   13.5890   12.7810    0.7890 O   0  0  0  0  0  0  0  0  0  0  0  0
   11.6150   13.4710    1.9140 C   0  0  0  0  0  0  0  0  0  0  0  0
   10.6600   13.2550    2.8930 C   0  0  0  0  0  0  0  0  0  0  0  0
    9.7510   11.8780    4.7560 C   0  0  0  0  0  0  0  0  0  0  0  0
    9.8560   12.4190    5.8360 O   0  0  0  0  0  0  0  0  0  0  0  0
    8.5880   10.9580    4.4830 C   0  0  0  0  0  0  0  0  0  0  0  0
    8.8750   10.1560    3.3350 O   0  0  0  0  0  0  0  0  0  0  0  0
    6.6990   10.9350   -0.0850 C   0  0  0  0  0  0  0  0  0  0  0  0
    8.0660   11.1680   -0.0650 C   0  0  0  0  0  0  0  0  0  0  0  0
    8.7940   10.9080    1.0800 C   0  0  0  0  0  0  0  0  0  0  0  0
    8.1590   10.4120    2.2080 C   0  0  0  0  0  0  0  0  0  0  0  0
    6.7910   10.1780    2.1870 C   0  0  0  0  0  0  0  0  0  0  0  0
    6.0630   10.4390    1.0440 C   0  0  0  0  0  0  0  0  0  0  0  0
    6.4270   12.2720   -2.0320 C   0  0  0  0  0  0  0  0  0  0  0  0
    5.9820   11.1910   -1.2110 O   0  0  0  0  0  0  0  0  0  0  0  0
    9.6410   14.1350    3.0570 O   0  0  0  0  0  0  0  0  0  0  0  0
    8.7720   13.8200    3.2170 H   0  0  0  0  0  0  0  0  0  0  0  0
   11.5240   14.6870    1.0270 C   0  0  0  0  0  0  0  0  0  0  0  0
   10.8740   14.3210   -0.2390 N   0  0  0  0  0  0  0  0  0  0  0  0
   10.7370   13.3100   -0.2390 H   0  0  0  0  0  0  0  0  0  0  0  0
   11.7250   14.6640   -1.3860 C   0  0  0  0  0  0  0  0  0  0  0  0
   11.0490   14.1970   -2.6780 C   0  0  0  0  0  0  0  0  0  0  0  0
    9.7290   14.8330   -2.7940 N   0  0  0  0  0  0  0  0  0  0  0  0
    9.8650   15.8440   -2.7930 H   0  0  0  0  0  0  0  0  0  0  0  0
    8.8780   14.4890   -1.6460 C   0  0  0  0  0  0  0  0  0  0  0  0
    9.5550   14.9570   -0.3550 C   0  0  0  0  0  0  0  0  0  0  0  0
    9.0790   14.4680   -4.0590 C   0  0  0  0  0  0  0  0  0  0  0  0
    9.6940   13.1740   -4.5940 C   0  0  0  0  0  0  0  0  0  0  0  0
    8.8140   12.0810   -4.3230 O   0  0  0  0  0  0  0  0  0  0  0  0
    9.2180   11.4960   -3.6620 H   0  0  0  0  0  0  0  0  0  0  0  0
  1  8  1  0  0  0  0
  2  1  1  0  0  0  0
  3  2  2  0  0  0  0
  4  6  2  0  0  0  0
  4  3  1  0  0  0  0
  5  4  1  0  0  0  0
  6  7  1  0  0  0  0
  7 20  1  0  0  0  0
  7  1  2  0  0  0  0
  8  9  2  0  0  0  0
 10  8  1  0  0  0  0
 11 10  1  0  0  0  0
 12 13  2  0  0  0  0
 12 17  1  0  0  0  0
 13 14  1  0  0  0  0
 14 15  2  0  0  0  0
 15 11  1  0  0  0  0
 16 15  1  0  0  0  0
 17 16  2  0  0  0  0
 18 19  1  0  0  0  0
 19 12  1  0  0  0  0
 20 21  1  0  0  0  0
 22  6  1  0  0  0  0
 23 24  1  0  0  0  0
 23 22  1  0  0  0  0
 25 23  1  0  0  0  0
 26 25  1  0  0  0  0
 27 28  1  0  0  0  0
 27 26  1  0  0  0  0
 27 29  1  0  0  0  0
 29 30  1  0  0  0  0
 30 23  1  0  0  0  0
 31 27  1  0  0  0  0
 32 33  1  0  0  0  0
 32 31  1  0  0  0  0
 33 34  1  0  0  0  0
M  END
>  <MODEL>
1

>  <REMARK>
 VINA RESULT:      -4.6      0.000      0.000
  Name = ZINC21195156
                            x       y       z     vdW  Elec       q    Type
                         _______ _______ _______ _____ _____    ______ ____

>  <TORSDO>
F 11

>  <vina_score>
-4.6

$$$$
ZINC16298324
 OpenBabel01081722473D

 34 36  0  0  0  0  0  0  0  0999 V2000
    7.4030   10.6760    0.5940 C   0  0  0  0  0  0  0  0  0  0  0  0
    6.4210   11.1310   -0.2100 N   0  0  0  0  0  0  0  0  0  0  0  0
    5.5360   11.3400    0.1650 H   0  0  0  0  0  0  0  0  0  0  0  0
    8.4940   10.4180    0.1320 O   0  0  0  0  0  0  0  0  0  0  0  0
    7.1450   10.4870    2.0660 C   0  0  0  0  0  0  0  0  0  0  0  0
    8.4010   10.1530    2.7440 N   0  0  0  0  0  0  0  0  0  0  0  0
    8.2510    9.2620    3.2180 H   0  0  0  0  0  0  0  0  0  0  0  0
    9.0360   11.1920    3.8660 S   0  0  0  0  0  0  0  0  0  0  0  0
   10.3490   10.7280    4.1520 O   0  0  0  0  0  0  0  0  0  0  0  0
    8.0480   11.3520    4.8750 O   0  0  0  0  0  0  0  0  0  0  0  0
    9.6480   16.5630    1.1860 C   0  0  0  0  0  0  0  0  0  0  0  0
    9.4960   15.2210    1.8560 C   0  0  0  0  0  0  0  0  0  0  0  0
    8.5530   14.3210    1.3930 C   0  0  0  0  0  0  0  0  0  0  0  0
    8.4130   13.0910    2.0070 C   0  0  0  0  0  0  0  0  0  0  0  0
    9.2150   12.7590    3.0830 C   0  0  0  0  0  0  0  0  0  0  0  0
   10.1540   13.6620    3.5490 C   0  0  0  0  0  0  0  0  0  0  0  0
   10.2970   14.8910    2.9320 C   0  0  0  0  0  0  0  0  0  0  0  0
    6.6730   11.3150   -1.6420 C   0  0  0  0  0  0  0  0  0  0  0  0
    7.5110   12.5500   -1.8500 C   0  0  0  0  0  0  0  0  0  0  0  0
    8.7610   12.4410   -2.3410 N   0  0  0  0  0  0  0  0  0  0  0  0
    9.1260   11.5540   -2.5640 H   0  0  0  0  0  0  0  0  0  0  0  0
    7.0610   13.6420   -1.5750 O   0  0  0  0  0  0  0  0  0  0  0  0
    9.5750   13.6410   -2.5440 C   0  0  0  0  0  0  0  0  0  0  0  0
   10.6730   13.6830   -1.5130 C   0  0  0  0  0  0  0  0  0  0  0  0
   11.6310   14.6250   -1.4230 C   0  0  0  0  0  0  0  0  0  0  0  0
   12.4460   14.2840   -0.3240 C   0  0  0  0  0  0  0  0  0  0  0  0
   11.9350   13.1390    0.2010 C   0  0  0  0  0  0  0  0  0  0  0  0
   10.8560   12.7900   -0.5250 O   0  0  0  0  0  0  0  0  0  0  0  0
   12.4660   12.4090    1.3730 C   0  0  0  0  0  0  0  0  0  0  0  0
   12.3100   11.0520    1.4910 C   0  0  0  0  0  0  0  0  0  0  0  0
   13.1330   10.7620    3.0500 S   0  0  0  0  0  0  0  0  0  0  0  0
   13.5780   12.4060    3.3850 C   0  0  0  0  0  0  0  0  0  0  0  0
   14.3220   12.9590    4.5730 C   0  0  0  0  0  0  0  0  0  0  0  0
   13.1040   13.0460    2.3430 N   0  0  0  0  0  0  0  0  0  0  0  0
  1  5  1  0  0  0  0
  2  3  1  0  0  0  0
  2  1  1  0  0  0  0
  4  1  2  0  0  0  0
  5  6  1  0  0  0  0
  6  7  1  0  0  0  0
  6  8  1  0  0  0  0
  8  9  2  0  0  0  0
  8 10  2  0  0  0  0
 11 12  1  0  0  0  0
 12 17  1  0  0  0  0
 13 12  2  0  0  0  0
 13 14  1  0  0  0  0
 14 15  2  0  0  0  0
 15 16  1  0  0  0  0
 15  8  1  0  0  0  0
 17 16  2  0  0  0  0
 18  2  1  0  0  0  0
 19 18  1  0  0  0  0
 19 22  2  0  0  0  0
 20 19  1  0  0  0  0
 21 20  1  0  0  0  0
 23 20  1  0  0  0  0
 23 24  1  0  0  0  0
 24 25  2  0  0  0  0
 24 28  1  0  0  0  0
 25 26  1  0  0  0  0
 26 27  2  0  0  0  0
 27 29  1  0  0  0  0
 28 27  1  0  0  0  0
 29 30  2  0  0  0  0
 29 34  1  0  0  0  0
 30 31  1  0  0  0  0
 31 32  1  0  0  0  0
 32 33  1  0  0  0  0
 34 32  2  0  0  0  0
M  END
>  <MODEL>
1

>  <REMARK>
 VINA RESULT:      -4.5      0.000      0.000
  Name = ZINC16298324
                            x       y       z     vdW  Elec       q    Type
                         _______ _______ _______ _____ _____    ______ ____

>  <TORSDO>
F 9

>  <vina_score>
-4.5

$$$$
ZINC15418382
 OpenBabel01081722553D

 27 28  0  0  1  0  0  0  0  0999 V2000
   10.6220   13.2740    0.8890 C   0  0  0  0  0  0  0  0  0  0  0  0
    9.5720   12.5520    0.5200 N   0  0  0  0  0  0  0  0  0  0  0  0
    8.7760   12.9650   -0.4520 C   0  0  0  0  0  0  0  0  0  0  0  0
    9.0520   14.1670   -1.0870 C   0  0  0  0  0  0  0  0  0  0  0  0
   10.1570   14.8960   -0.6770 C   0  0  0  0  0  0  0  0  0  0  0  0
   10.9120   14.4270    0.3020 N   0  0  0  0  0  0  0  0  0  0  0  0
   13.5160   12.9480    3.2700 C   0  0  0  0  0  0  0  0  0  0  0  0
   12.7060   13.4100    2.2470 C   0  0  0  0  0  0  0  0  0  0  0  0
   11.4910   12.7790    1.9820 C   0  0  0  0  0  0  0  0  0  0  0  0
   11.0930   11.6870    2.7510 C   0  0  0  0  0  0  0  0  0  0  0  0
   11.9080   11.2240    3.7700 C   0  0  0  0  0  0  0  0  0  0  0  0
   13.1190   11.8550    4.0330 C   0  0  0  0  0  0  0  0  0  0  0  0
   15.2490   13.3930    4.8360 C   0  0  0  0  0  0  0  0  0  0  0  0
   14.7010   13.5640    3.5280 O   0  0  0  0  0  0  0  0  0  0  0  0
   11.5210   10.1550    4.5160 O   0  0  0  0  0  0  0  0  0  0  0  0
   10.1880   10.1700    5.0310 C   0  0  0  0  0  0  0  0  0  0  0  0
   13.9170   11.4020    5.0370 O   0  0  0  0  0  0  0  0  0  0  0  0
   14.6790   10.2220    4.7770 C   0  0  0  0  0  0  0  0  0  0  0  0
    8.1670   14.6700   -2.1990 C   0  0  2  0  0  0  0  0  0  0  0  0
    6.9760   13.8130   -2.3370 N   0  0  0  0  0  0  0  0  0  0  0  0
    7.2050   13.0030   -2.9120 H   0  0  0  0  0  0  0  0  0  0  0  0
    6.6740   13.5010   -1.4140 H   0  0  0  0  0  0  0  0  0  0  0  0
    6.2250   14.3440   -2.7800 H   0  0  0  0  0  0  0  0  0  0  0  0
    8.9450   14.6540   -3.5170 C   0  0  0  0  0  0  0  0  0  0  0  0
    9.5560   13.2930   -3.7250 C   0  0  0  0  0  0  0  0  0  0  0  0
   10.8730   13.1120   -3.5390 O   0  0  0  0  0  0  0  0  0  0  0  0
    8.8590   12.3640   -4.0590 O   0  0  0  0  0  0  0  0  0  0  0  0
  1  9  1  0  0  0  0
  2  1  1  0  0  0  0
  3  2  2  0  0  0  0
  4  5  2  0  0  0  0
  4  3  1  0  0  0  0
  5  6  1  0  0  0  0
  6  1  2  0  0  0  0
  7 14  1  0  0  0  0
  7 12  2  0  0  0  0
  8  7  1  0  0  0  0
  9  8  2  0  0  0  0
  9 10  1  0  0  0  0
 10 11  2  0  0  0  0
 11 12  1  0  0  0  0
 11 15  1  0  0  0  0
 12 17  1  0  0  0  0
 14 13  1  0  0  0  0
 15 16  1  0  0  0  0
 18 17  1  0  0  0  0
 19 24  1  6  0  0  0
 19  4  1  0  0  0  0
 20 19  1  0  0  0  0
 20 22  1  0  0  0  0
 21 20  1  0  0  0  0
 23 20  1  0  0  0  0
 25 26  1  0  0  0  0
 25 24  1  0  0  0  0
 27 25  2  0  0  0  0
M  END
>  <MODEL>
1

>  <REMARK>
 VINA RESULT:      -4.4      0.000      0.000
  Name = ZINC15418382
                            x       y       z     vdW  Elec       q    Type
                         _______ _______ _______ _____ _____    ______ ____

>  <TORSDO>
F 8

>  <vina_score>
-4.4

$$$$
ZINC03215161
 OpenBabel01081722383D

 26 27  0  0  0  0  0  0  0  0999 V2000
    8.7090   13.6360    2.3290 C   0  0  0  0  0  0  0  0  0  0  0  0
    9.3910   12.6860    3.0190 C   0  0  0  0  0  0  0  0  0  0  0  0
   10.5390   11.8600    2.5970 C   0  0  0  0  0  0  0  0  0  0  0  0
   11.0110   11.0020    3.4870 N   0  0  0  0  0  0  0  0  0  0  0  0
   10.4670   10.8910    4.7150 C   0  0  0  0  0  0  0  0  0  0  0  0
   10.7980   10.1540    5.6240 O   0  0  0  0  0  0  0  0  0  0  0  0
   11.0280   11.9630    1.4870 O   0  0  0  0  0  0  0  0  0  0  0  0
    9.1510   12.0990    4.6900 S   0  0  0  0  0  0  0  0  0  0  0  0
   10.1660   14.9600   -0.8650 C   0  0  0  0  0  0  0  0  0  0  0  0
    9.9250   14.7720    0.4830 C   0  0  0  0  0  0  0  0  0  0  0  0
    8.9710   13.8350    0.8980 C   0  0  0  0  0  0  0  0  0  0  0  0
    8.2720   13.0850   -0.0550 C   0  0  0  0  0  0  0  0  0  0  0  0
    8.5220   13.2760   -1.4010 C   0  0  0  0  0  0  0  0  0  0  0  0
    9.4680   14.2110   -1.8090 C   0  0  0  0  0  0  0  0  0  0  0  0
   12.4210   15.4020   -1.4800 C   0  0  0  0  0  0  0  0  0  0  0  0
   11.0890   15.8740   -1.2680 O   0  0  0  0  0  0  0  0  0  0  0  0
    7.8430   12.5470   -2.3270 O   0  0  0  0  0  0  0  0  0  0  0  0
    6.7300   11.7810   -1.8620 C   0  0  0  0  0  0  0  0  0  0  0  0
    9.7110   14.3960   -3.1340 O   0  0  0  0  0  0  0  0  0  0  0  0
   10.1290   13.2520   -3.8820 C   0  0  0  0  0  0  0  0  0  0  0  0
   12.1510   10.1540    3.1280 C   0  0  0  0  0  0  0  0  0  0  0  0
   13.4530   10.8620    3.5060 C   0  0  0  0  0  0  0  0  0  0  0  0
   14.0590   10.1690    4.6570 N   0  0  0  0  0  0  0  0  0  0  0  0
   13.3280    9.8970    5.3140 H   0  0  0  0  0  0  0  0  0  0  0  0
   14.5490    9.3350    4.3310 H   0  0  0  0  0  0  0  0  0  0  0  0
   14.7200   10.7920    5.1200 H   0  0  0  0  0  0  0  0  0  0  0  0
  1  2  2  0  0  0  0
  2  8  1  0  0  0  0
  3  2  1  0  0  0  0
  3  4  1  0  0  0  0
  4  5  1  0  0  0  0
  5  6  2  0  0  0  0
  7  3  2  0  0  0  0
  8  5  1  0  0  0  0
  9 10  2  0  0  0  0
 10 11  1  0  0  0  0
 11  1  1  0  0  0  0
 12 11  2  0  0  0  0
 13 12  1  0  0  0  0
 14 13  2  0  0  0  0
 14  9  1  0  0  0  0
 15 16  1  0  0  0  0
 16  9  1  0  0  0  0
 17 18  1  0  0  0  0
 17 13  1  0  0  0  0
 19 14  1  0  0  0  0
 20 19  1  0  0  0  0
 21  4  1  0  0  0  0
 21 22  1  0  0  0  0
 22 23  1  0  0  0  0
 23 26  1  0  0  0  0
 23 24  1  0  0  0  0
 25 23  1  0  0  0  0
M  END
>  <MODEL>
1

>  <REMARK>
 VINA RESULT:      -4.2      0.000      0.000
  Name = ZINC03215161
                            x       y       z     vdW  Elec       q    Type
                         _______ _______ _______ _____ _____    ______ ____

>  <TORSDO>
F 7

>  <vina_score>
-4.2

$$$$
ZINC30969187
 OpenBabel01081722563D

 32 33  0  0  1  0  0  0  0  0999 V2000
    7.7530   10.1530    3.1660 C   0  0  0  0  0  0  0  0  0  0  0  0
   11.2970   12.5180    3.5360 C   0  0  2  0  0  0  0  0  0  0  0  0
   10.1060   12.7940    4.4590 C   0  0  0  0  0  0  0  0  0  0  0  0
    8.8360   12.2140    3.8330 C   0  0  0  0  0  0  0  0  0  0  0  0
    9.0020   10.7670    3.6370 N   0  0  0  0  0  0  0  0  0  0  0  0
    9.2340   10.3550    4.5410 H   0  0  0  0  0  0  0  0  0  0  0  0
   10.1100   10.4800    2.7170 C   0  0  0  0  0  0  0  0  0  0  0  0
   11.4180   11.0080    3.3110 C   0  0  0  0  0  0  0  0  0  0  0  0
   13.7610   12.6730    3.6830 N   0  0  0  0  0  0  0  0  0  0  0  0
   13.8130   12.0730    2.9040 H   0  0  0  0  0  0  0  0  0  0  0  0
   12.5600   13.0340    4.1760 C   0  0  0  0  0  0  0  0  0  0  0  0
   12.4960   13.7740    5.1350 O   0  0  0  0  0  0  0  0  0  0  0  0
   14.9890   13.1750    4.3040 C   0  0  0  0  0  0  0  0  0  0  0  0
   15.3430   12.3050    5.5120 C   0  0  0  0  0  0  0  0  0  0  0  0
   14.4790   10.1540    4.5790 C   0  0  0  0  0  0  0  0  0  0  0  0
   15.7320   10.9050    5.0350 C   0  0  0  0  0  0  0  0  0  0  0  0
    7.3860   10.7320    1.8230 C   0  0  0  0  0  0  0  0  0  0  0  0
    8.2520   10.6480    0.7940 N   0  0  0  0  0  0  0  0  0  0  0  0
    9.1240   10.2090    0.9200 H   0  0  0  0  0  0  0  0  0  0  0  0
    6.3120   11.2730    1.6700 O   0  0  0  0  0  0  0  0  0  0  0  0
    7.9110   11.1860   -0.4540 N   0  0  0  0  0  0  0  0  0  0  0  0
    7.5220   10.6080   -1.1490 H   0  0  0  0  0  0  0  0  0  0  0  0
    8.1180   12.4940   -0.7020 C   0  0  0  0  0  0  0  0  0  0  0  0
    8.5980   13.2060    0.1530 O   0  0  0  0  0  0  0  0  0  0  0  0
    7.7510   13.0730   -2.0460 C   0  0  0  0  0  0  0  0  0  0  0  0
    8.9660   13.7850   -2.6430 C   0  0  1  0  0  0  0  0  0  0  0  0
    9.3600   14.9660   -1.7400 C   0  0  0  0  0  0  0  0  0  0  0  0
   10.7610   15.4710   -2.1880 C   0  0  0  0  0  0  0  0  0  0  0  0
   11.6120   13.8680   -2.5070 S   0  0  0  0  0  0  0  0  0  0  0  0
   12.3290   13.9600   -3.7310 O   0  0  0  0  0  0  0  0  0  0  0  0
   12.2920   13.4630   -1.3260 O   0  0  0  0  0  0  0  0  0  0  0  0
   10.1440   12.7870   -2.7520 C   0  0  0  0  0  0  0  0  0  0  0  0
  1  5  1  0  0  0  0
  2 11  1  1  0  0  0
  2  3  1  0  0  0  0
  4  3  1  0  0  0  0
  5  4  1  0  0  0  0
  5  6  1  0  0  0  0
  7  8  1  0  0  0  0
  7  5  1  0  0  0  0
  8  2  1  0  0  0  0
  9 11  1  0  0  0  0
  9 13  1  0  0  0  0
 10  9  1  0  0  0  0
 11 12  2  0  0  0  0
 13 14  1  0  0  0  0
 15 16  1  0  0  0  0
 16 14  1  0  0  0  0
 17  1  1  0  0  0  0
 18 19  1  0  0  0  0
 18 17  1  0  0  0  0
 20 17  2  0  0  0  0
 21 18  1  0  0  0  0
 22 21  1  0  0  0  0
 23 21  1  0  0  0  0
 23 24  2  0  0  0  0
 25 23  1  0  0  0  0
 26 25  1  1  0  0  0
 26 27  1  0  0  0  0
 28 27  1  0  0  0  0
 29 28  1  0  0  0  0
 29 31  2  0  0  0  0
 30 29  2  0  0  0  0
 32 26  1  0  0  0  0
 32 29  1  0  0  0  0
M  END
>  <MODEL>
1

>  <REMARK>
 VINA RESULT:      -4.0      0.000      0.000
  Name = ZINC30969187
                            x       y       z     vdW  Elec       q    Type
                         _______ _______ _______ _____ _____    ______ ____

>  <TORSDO>
F 9

>  <vina_score>
-4.0

$$$$
ZINC06279516
 OpenBabel01081722363D

 26 27  0  0  1  0  0  0  0  0999 V2000
    9.6230   12.9550    3.0250 C   0  0  0  0  0  0  0  0  0  0  0  0
   10.6430   12.8080    1.9840 N   0  0  0  0  0  0  0  0  0  0  0  0
   10.2840   12.6460    0.7330 C   0  0  2  0  0  0  0  0  0  0  0  0
    8.8660   12.4940    0.3480 C   0  0  0  0  0  0  0  0  0  0  0  0
    8.5180   12.8350   -0.9570 C   0  0  0  0  0  0  0  0  0  0  0  0
    9.5210   13.2640   -1.8430 C   0  0  0  0  0  0  0  0  0  0  0  0
   10.8720   13.1710   -1.4890 C   0  0  0  0  0  0  0  0  0  0  0  0
   11.2190   12.6070   -0.2920 N   0  0  0  0  0  0  0  0  0  0  0  0
   12.1010   12.1880   -0.1630 H   0  0  0  0  0  0  0  0  0  0  0  0
   12.0630   12.8400    2.3410 C   0  0  2  0  0  0  0  0  0  0  0  0
   12.7050   11.4750    2.0460 C   0  0  0  0  0  0  0  0  0  0  0  0
   14.1020   11.3940    2.7060 C   0  0  0  0  0  0  0  0  0  0  0  0
   13.9320   12.5220    4.1500 S   0  0  0  0  0  0  0  0  0  0  0  0
   13.9560   11.7520    5.3440 O   0  0  0  0  0  0  0  0  0  0  0  0
   14.8360   13.6070    3.9980 O   0  0  0  0  0  0  0  0  0  0  0  0
   12.2160   13.1280    3.8620 C   0  0  0  0  0  0  0  0  0  0  0  0
   11.8370   13.6340   -2.3350 N   0  0  0  0  0  0  0  0  0  0  0  0
   12.3350   13.0040   -2.9070 H   0  0  0  0  0  0  0  0  0  0  0  0
   12.0350   14.5970   -2.3760 H   0  0  0  0  0  0  0  0  0  0  0  0
    7.8880   12.0180    1.2780 C   0  0  0  0  0  0  0  0  0  0  0  0
    7.1110   11.6400    2.0160 N   0  0  0  0  0  0  0  0  0  0  0  0
    9.1580   13.8080   -3.1170 C   0  0  0  0  0  0  0  0  0  0  0  0
    8.8690   14.2400   -4.1280 N   0  0  0  0  0  0  0  0  0  0  0  0
    7.0860   12.7400   -1.4150 C   0  0  0  0  0  0  0  0  0  0  0  0
    6.6400   11.3380   -1.3440 C   0  0  0  0  0  0  0  0  0  0  0  0
    6.2970   10.2570   -1.2890 N   0  0  0  0  0  0  0  0  0  0  0  0
  2  1  1  0  0  0  0
  3  2  1  1  0  0  0
  4  3  1  0  0  0  0
  4 20  1  0  0  0  0
  5  4  2  0  0  0  0
  6  7  2  0  0  0  0
  6  5  1  0  0  0  0
  7  8  1  0  0  0  0
  8  9  1  0  0  0  0
  8  3  1  0  0  0  0
 10  2  1  1  0  0  0
 10 16  1  0  0  0  0
 11 10  1  0  0  0  0
 11 12  1  0  0  0  0
 12 13  1  0  0  0  0
 13 14  2  0  0  0  0
 15 13  2  0  0  0  0
 16 13  1  0  0  0  0
 17  7  1  0  0  0  0
 18 17  1  0  0  0  0
 19 17  1  0  0  0  0
 20 21  3  0  0  0  0
 22  6  1  0  0  0  0
 23 22  3  0  0  0  0
 24 25  1  0  0  0  0
 24  5  1  0  0  0  0
 25 26  3  0  0  0  0
M  END
>  <MODEL>
1

>  <REMARK>
 VINA RESULT:      -4.0      0.000      0.000
  Name = ZINC06279516
                            x       y       z     vdW  Elec       q    Type
                         _______ _______ _______ _____ _____    ______ ____

>  <TORSDO>
F 6

>  <vina_score>
-4.0

$$$$
ZINC29839654
 OpenBabel01081722483D

 29 29  0  0  0  0  0  0  0  0999 V2000
    8.4470   13.2910   -1.2160 C   0  0  0  0  0  0  0  0  0  0  0  0
    9.5950   13.6800   -0.6250 N   0  0  0  0  0  0  0  0  0  0  0  0
   10.0570   14.4930   -0.9330 H   0  0  0  0  0  0  0  0  0  0  0  0
   10.1110   12.9550    0.3860 C   0  0  0  0  0  0  0  0  0  0  0  0
   11.2590   13.3430    0.9770 N   0  0  0  0  0  0  0  0  0  0  0  0
   11.6790   14.1960    0.7230 H   0  0  0  0  0  0  0  0  0  0  0  0
    9.5420   11.9500    0.7670 O   0  0  0  0  0  0  0  0  0  0  0  0
    7.8800   12.2900   -0.8360 O   0  0  0  0  0  0  0  0  0  0  0  0
   11.8550   12.5320    1.9530 C   0  0  0  0  0  0  0  0  0  0  0  0
   13.2360   12.5240    2.1000 C   0  0  0  0  0  0  0  0  0  0  0  0
   13.8240   11.7250    3.0620 C   0  0  0  0  0  0  0  0  0  0  0  0
   13.0380   10.9350    3.8850 C   0  0  0  0  0  0  0  0  0  0  0  0
   11.6540   10.9370    3.7350 C   0  0  0  0  0  0  0  0  0  0  0  0
   11.0640   11.7380    2.7720 C   0  0  0  0  0  0  0  0  0  0  0  0
   13.6180   10.1530    4.8350 O   0  0  0  0  0  0  0  0  0  0  0  0
   15.0460   10.1590    4.8950 C   0  0  0  0  0  0  0  0  0  0  0  0
   15.5220   11.4360    5.5900 C   0  0  0  0  0  0  0  0  0  0  0  0
   10.8820   10.1570    4.5390 O   0  0  0  0  0  0  0  0  0  0  0  0
    9.6310   10.7030    4.9650 C   0  0  0  0  0  0  0  0  0  0  0  0
    8.5640   10.4160    3.9080 C   0  0  0  0  0  0  0  0  0  0  0  0
    7.8710   14.1030   -2.3460 C   0  0  0  0  0  0  0  0  0  0  0  0
    8.9350   14.9100   -2.9620 N   0  0  0  0  0  0  0  0  0  0  0  0
    8.5060   15.7530   -3.3450 H   0  0  0  0  0  0  0  0  0  0  0  0
    8.9950   12.7690   -4.1490 C   0  0  0  0  0  0  0  0  0  0  0  0
    9.5710   14.1830   -4.0690 C   0  0  0  0  0  0  0  0  0  0  0  0
    9.9290   15.3220   -1.9620 C   0  0  0  0  0  0  0  0  0  0  0  0
   11.3360   15.1100   -2.5240 C   0  0  0  0  0  0  0  0  0  0  0  0
   12.0630   14.2280   -1.6670 O   0  0  0  0  0  0  0  0  0  0  0  0
   11.7110   13.3280   -1.7540 H   0  0  0  0  0  0  0  0  0  0  0  0
  1  8  2  0  0  0  0
  1  2  1  0  0  0  0
  2  4  1  0  0  0  0
  3  2  1  0  0  0  0
  4  7  2  0  0  0  0
  4  5  1  0  0  0  0
  5  9  1  0  0  0  0
  6  5  1  0  0  0  0
  9 10  2  0  0  0  0
  9 14  1  0  0  0  0
 10 11  1  0  0  0  0
 11 12  2  0  0  0  0
 12 15  1  0  0  0  0
 13 12  1  0  0  0  0
 13 18  1  0  0  0  0
 14 13  2  0  0  0  0
 15 16  1  0  0  0  0
 16 17  1  0  0  0  0
 18 19  1  0  0  0  0
 20 19  1  0  0  0  0
 21  1  1  0  0  0  0
 22 21  1  0  0  0  0
 22 26  1  0  0  0  0
 23 22  1  0  0  0  0
 24 25  1  0  0  0  0
 25 22  1  0  0  0  0
 27 26  1  0  0  0  0
 27 28  1  0  0  0  0
 29 28  1  0  0  0  0
M  END
>  <MODEL>
1

>  <REMARK>
 VINA RESULT:      -3.9      0.000      0.000
  Name = ZINC29839654
                            x       y       z     vdW  Elec       q    Type
                         _______ _______ _______ _____ _____    ______ ____

>  <TORSDO>
F 11

>  <vina_score>
-3.9

$$$$
ZINC15910386
 OpenBabel01081722513D

 31 32  0  0  0  0  0  0  0  0999 V2000
   13.3340   15.2660   -0.4520 C   0  0  0  0  0  0  0  0  0  0  0  0
   11.9940   14.6770   -0.8070 C   0  0  0  0  0  0  0  0  0  0  0  0
   11.2380   15.2380   -1.8160 C   0  0  0  0  0  0  0  0  0  0  0  0
   10.0090   14.6960   -2.1470 C   0  0  0  0  0  0  0  0  0  0  0  0
    9.5240   13.5950   -1.4630 C   0  0  0  0  0  0  0  0  0  0  0  0
   10.2700   13.0240   -0.4530 C   0  0  0  0  0  0  0  0  0  0  0  0
   11.5140   13.5640   -0.1180 C   0  0  0  0  0  0  0  0  0  0  0  0
   12.3180   12.9570    0.9650 C   0  0  0  0  0  0  0  0  0  0  0  0
   12.1340   13.3450    2.2410 N   0  0  0  0  0  0  0  0  0  0  0  0
   11.4630   14.0340    2.4530 H   0  0  0  0  0  0  0  0  0  0  0  0
   13.1470   12.1060    0.7020 O   0  0  0  0  0  0  0  0  0  0  0  0
   12.8960   12.7710    3.2660 N   0  0  0  0  0  0  0  0  0  0  0  0
   13.6620   13.2610    3.6430 H   0  0  0  0  0  0  0  0  0  0  0  0
   12.5820   11.5470    3.7360 C   0  0  0  0  0  0  0  0  0  0  0  0
   13.6620   10.2390    3.5100 S   0  0  0  0  0  0  0  0  0  0  0  0
   11.4160   11.3540    4.3850 N   0  0  0  0  0  0  0  0  0  0  0  0
   11.2890   11.7210    5.2900 H   0  0  0  0  0  0  0  0  0  0  0  0
   10.3380   10.5970    3.7440 C   0  0  0  0  0  0  0  0  0  0  0  0
    8.9880   11.0790    4.2790 C   0  0  0  0  0  0  0  0  0  0  0  0
    9.0410   12.5900    4.5090 C   0  0  0  0  0  0  0  0  0  0  0  0
    9.5630   13.2320    3.3430 O   0  0  0  0  0  0  0  0  0  0  0  0
    8.7650   14.3190    2.8710 C   0  0  0  0  0  0  0  0  0  0  0  0
    7.9550   12.9160   -1.8880 S   0  0  0  0  0  0  0  0  0  0  0  0
    6.9910   13.9270   -1.6260 O   0  0  0  0  0  0  0  0  0  0  0  0
    8.1040   12.3210   -3.1700 O   0  0  0  0  0  0  0  0  0  0  0  0
    7.6500   11.6840   -0.8260 N   0  0  0  0  0  0  0  0  0  0  0  0
    8.3100   11.6370    0.4890 C   0  0  0  0  0  0  0  0  0  0  0  0
    7.2280   11.4290    1.5610 C   0  0  0  0  0  0  0  0  0  0  0  0
    6.4320   10.2930    1.2090 O   0  0  0  0  0  0  0  0  0  0  0  0
    5.7170   10.4380   -0.0200 C   0  0  0  0  0  0  0  0  0  0  0  0
    6.7170   10.6000   -1.1700 C   0  0  0  0  0  0  0  0  0  0  0  0
  2  1  1  0  0  0  0
  2  7  2  0  0  0  0
  3  2  1  0  0  0  0
  4  3  2  0  0  0  0
  4  5  1  0  0  0  0
  5  6  2  0  0  0  0
  6  7  1  0  0  0  0
  7  8  1  0  0  0  0
  8  9  1  0  0  0  0
  9 10  1  0  0  0  0
  9 12  1  0  0  0  0
 11  8  2  0  0  0  0
 12 13  1  0  0  0  0
 12 14  1  0  0  0  0
 14 16  1  0  0  0  0
 15 14  2  0  0  0  0
 16 17  1  0  0  0  0
 18 19  1  0  0  0  0
 18 16  1  0  0  0  0
 19 20  1  0  0  0  0
 21 20  1  0  0  0  0
 22 21  1  0  0  0  0
 23 24  2  0  0  0  0
 23  5  1  0  0  0  0
 23 26  1  0  0  0  0
 25 23  2  0  0  0  0
 26 27  1  0  0  0  0
 27 28  1  0  0  0  0
 29 28  1  0  0  0  0
 30 29  1  0  0  0  0
 31 26  1  0  0  0  0
 31 30  1  0  0  0  0
M  END
>  <MODEL>
1

>  <REMARK>
 VINA RESULT:      -3.7      0.000      0.000
  Name = ZINC15910386
                            x       y       z     vdW  Elec       q    Type
                         _______ _______ _______ _____ _____    ______ ____

>  <TORSDO>
F 10

>  <vina_score>
-3.7

$$$$
ZINC04794950
 OpenBabel01081722303D

 24 24  0  0  0  0  0  0  0  0999 V2000
   12.1180   12.6930    1.7100 P   0  0  0  0  0  0  0  0  0  0  0  0
   10.8600   12.6900    2.7050 N   0  0  0  0  0  0  0  0  0  0  0  0
    9.3860   12.7630    2.0800 P   0  0  0  0  0  0  0  0  0  0  0  0
    9.3520   13.9530    1.0070 N   0  0  0  0  0  0  0  0  0  0  0  0
   10.5160   14.0320   -0.0900 P   0  0  0  0  0  0  0  0  0  0  0  0
   11.9270   13.8860    0.6580 N   0  0  0  0  0  0  0  0  0  0  0  0
   13.2570   12.9780    4.0300 C   0  0  0  0  0  0  0  0  0  0  0  0
   13.5340   12.9310    2.5880 N   0  0  0  0  0  0  0  0  0  0  0  0
   14.1770   12.1620    2.3960 H   0  0  0  0  0  0  0  0  0  0  0  0
   12.1980   11.2240    0.8930 N   0  0  0  0  0  0  0  0  0  0  0  0
   12.8390   11.3140    0.1060 H   0  0  0  0  0  0  0  0  0  0  0  0
   12.6720   10.1530    1.7800 C   0  0  0  0  0  0  0  0  0  0  0  0
    8.2690   13.0680    3.3010 N   0  0  0  0  0  0  0  0  0  0  0  0
    7.9140   14.4930    3.3450 C   0  0  0  0  0  0  0  0  0  0  0  0
    8.7730   12.6110    4.6030 C   0  0  0  0  0  0  0  0  0  0  0  0
    9.0190   11.3050    1.3240 N   0  0  0  0  0  0  0  0  0  0  0  0
    7.6530   11.3240    0.7840 C   0  0  0  0  0  0  0  0  0  0  0  0
    9.2070   10.1740    2.2420 C   0  0  0  0  0  0  0  0  0  0  0  0
   10.3340   12.7830   -1.2020 N   0  0  0  0  0  0  0  0  0  0  0  0
   11.4440   12.7670   -2.1650 C   0  0  0  0  0  0  0  0  0  0  0  0
    9.0400   12.8780   -1.8930 C   0  0  0  0  0  0  0  0  0  0  0  0
   10.4470   15.5140   -0.8840 N   0  0  0  0  0  0  0  0  0  0  0  0
   11.7890   15.9640   -1.2770 C   0  0  0  0  0  0  0  0  0  0  0  0
    9.7740   16.5250   -0.0560 C   0  0  0  0  0  0  0  0  0  0  0  0
  1  8  1  0  0  0  0
  1  2  1  0  0  0  0
  3  2  1  0  0  0  0
  3 13  1  0  0  0  0
  4  3  1  0  0  0  0
  5  6  1  0  0  0  0
  5  4  1  0  0  0  0
  6  1  1  0  0  0  0
  8  7  1  0  0  0  0
  9  8  1  0  0  0  0
 10  1  1  0  0  0  0
 10 12  1  0  0  0  0
 11 10  1  0  0  0  0
 13 14  1  0  0  0  0
 13 15  1  0  0  0  0
 16  3  1  0  0  0  0
 16 18  1  0  0  0  0
 17 16  1  0  0  0  0
 19  5  1  0  0  0  0
 20 19  1  0  0  0  0
 21 19  1  0  0  0  0
 22  5  1  0  0  0  0
 22 24  1  0  0  0  0
 23 22  1  0  0  0  0
M  END
>  <MODEL>
1

>  <REMARK>
 VINA RESULT:      -3.4      0.000      0.000
  Name = ZINC04794950
                            x       y       z     vdW  Elec       q    Type
                         _______ _______ _______ _____ _____    ______ ____

>  <TORSDO>
F 6

>  <vina_score>
-3.4

$$$$
ZINC28887676
 OpenBabel01081722453D

 34 37  0  0  1  0  0  0  0  0999 V2000
    8.3230   13.1740   -2.2870 C   0  0  0  0  0  0  0  0  0  0  0  0
    7.1280   12.4860   -2.3960 C   0  0  0  0  0  0  0  0  0  0  0  0
    6.7320   11.6190   -1.3950 C   0  0  0  0  0  0  0  0  0  0  0  0
    7.5310   11.4390   -0.2770 C   0  0  0  0  0  0  0  0  0  0  0  0
    8.7320   12.1360   -0.1650 C   0  0  0  0  0  0  0  0  0  0  0  0
    9.1260   12.9990   -1.1760 C   0  0  0  0  0  0  0  0  0  0  0  0
    9.5420   11.9620    0.9650 N   0  0  0  0  0  0  0  0  0  0  0  0
   10.1460   11.1860    1.0230 H   0  0  0  0  0  0  0  0  0  0  0  0
    9.4940   12.8560    1.9720 C   0  0  0  0  0  0  0  0  0  0  0  0
    8.8280   13.8620    1.8590 O   0  0  0  0  0  0  0  0  0  0  0  0
   10.2700   12.6050    3.2410 C   0  0  1  0  0  0  0  0  0  0  0  0
    9.4800   11.6860    4.2000 C   0  0  0  0  0  0  0  0  0  0  0  0
   10.5400   10.8140    4.8360 C   0  0  0  0  0  0  0  0  0  0  0  0
   11.6780   10.8770    4.1230 N   0  0  0  0  0  0  0  0  0  0  0  0
   10.3850   10.1540    5.8410 O   0  0  0  0  0  0  0  0  0  0  0  0
   11.5310   11.7570    2.9590 C   0  0  0  0  0  0  0  0  0  0  0  0
   12.9080   10.1580    4.4660 C   0  0  0  0  0  0  0  0  0  0  0  0
   14.1200   11.0040    4.0730 C   0  0  0  0  0  0  0  0  0  0  0  0
   15.1920   11.2410    5.1390 C   0  0  0  0  0  0  0  0  0  0  0  0
   14.2600   12.3820    4.7220 C   0  0  0  0  0  0  0  0  0  0  0  0
    8.8210   14.2760   -3.5680 S   0  0  0  0  0  0  0  0  0  0  0  0
    7.6640   15.0090   -3.9470 O   0  0  0  0  0  0  0  0  0  0  0  0
    9.5740   13.5060   -4.4960 O   0  0  0  0  0  0  0  0  0  0  0  0
    9.8720   15.3660   -2.8960 N   0  0  0  0  0  0  0  0  0  0  0  0
   10.7420   15.3740   -0.6390 C   0  0  0  0  0  0  0  0  0  0  0  0
   11.6840   14.9470    0.2850 C   0  0  0  0  0  0  0  0  0  0  0  0
   12.6960   14.0910   -0.1060 C   0  0  0  0  0  0  0  0  0  0  0  0
   12.7750   13.6590   -1.4170 C   0  0  0  0  0  0  0  0  0  0  0  0
   11.8360   14.0750   -2.3420 C   0  0  0  0  0  0  0  0  0  0  0  0
   10.8200   14.9390   -1.9590 C   0  0  0  0  0  0  0  0  0  0  0  0
    9.7330   16.6270    1.1120 C   0  0  0  0  0  0  0  0  0  0  0  0
    9.7450   16.2150   -0.2560 O   0  0  0  0  0  0  0  0  0  0  0  0
    7.1420   10.5880    0.7090 O   0  0  0  0  0  0  0  0  0  0  0  0
    7.0290    9.6760    0.5250 H   0  0  0  0  0  0  0  0  0  0  0  0
  1  6  1  0  0  0  0
  2  1  2  0  0  0  0
  2  3  1  0  0  0  0
  3  4  2  0  0  0  0
  4  5  1  0  0  0  0
  4 33  1  0  0  0  0
  5  7  1  0  0  0  0
  6  5  2  0  0  0  0
  7  8  1  0  0  0  0
  7  9  1  0  0  0  0
 10  9  2  0  0  0  0
 11  9  1  6  0  0  0
 11 12  1  0  0  0  0
 12 13  1  0  0  0  0
 13 15  2  0  0  0  0
 14 17  1  0  0  0  0
 14 13  1  0  0  0  0
 16 11  1  0  0  0  0
 16 14  1  0  0  0  0
 18 17  1  0  0  0  0
 18 20  1  0  0  0  0
 18 19  1  0  0  0  0
 20 19  1  0  0  0  0
 21 24  1  0  0  0  0
 21  1  1  0  0  0  0
 22 21  2  0  0  0  0
 23 21  2  0  0  0  0
 24 30  1  0  0  0  0
 25 32  1  0  0  0  0
 25 26  2  0  0  0  0
 27 26  1  0  0  0  0
 28 27  2  0  0  0  0
 29 30  2  0  0  0  0
 29 28  1  0  0  0  0
 30 25  1  0  0  0  0
 32 31  1  0  0  0  0
 34 33  1  0  0  0  0
M  END
>  <MODEL>
1

>  <REMARK>
 VINA RESULT:      -3.3      0.000      0.000
  Name = ZINC28887676
                            x       y       z     vdW  Elec       q    Type
                         _______ _______ _______ _____ _____    ______ ____

>  <TORSDO>
F 9

>  <vina_score>
-3.3

$$$$
ZINC31217234
 OpenBabel01081722353D

 27 28  0  0  0  0  0  0  0  0999 V2000
   10.9740   14.1500    0.4690 C   0  0  0  0  0  0  0  0  0  0  0  0
   10.1100   14.1510    1.5660 C   0  0  0  0  0  0  0  0  0  0  0  0
   10.3760   13.3400    2.6490 C   0  0  0  0  0  0  0  0  0  0  0  0
   11.4950   12.5270    2.6510 C   0  0  0  0  0  0  0  0  0  0  0  0
   12.3580   12.5260    1.5700 C   0  0  0  0  0  0  0  0  0  0  0  0
   12.1010   13.3280    0.4770 C   0  0  0  0  0  0  0  0  0  0  0  0
   10.3510   14.4680   -1.8780 N   0  0  0  0  0  0  0  0  0  0  0  0
   10.2860   13.4900   -1.9650 H   0  0  0  0  0  0  0  0  0  0  0  0
   10.6960   15.0170   -0.6960 C   0  0  0  0  0  0  0  0  0  0  0  0
   10.7770   16.2250   -0.5870 O   0  0  0  0  0  0  0  0  0  0  0  0
   10.0750   15.3260   -3.0320 C   0  0  0  0  0  0  0  0  0  0  0  0
    9.2150   14.5640   -4.0410 C   0  0  0  0  0  0  0  0  0  0  0  0
    9.3550   13.0600   -3.7990 C   0  0  0  0  0  0  0  0  0  0  0  0
    8.1150   12.5420   -3.2160 N   0  0  0  0  0  0  0  0  0  0  0  0
    7.3540   13.1100   -3.5880 H   0  0  0  0  0  0  0  0  0  0  0  0
    6.6290   11.2690   -1.2800 C   0  0  0  0  0  0  0  0  0  0  0  0
    7.9260   12.5050   -1.5710 S   0  0  0  0  0  0  0  0  0  0  0  0
    7.4530   13.8000   -1.2310 O   0  0  0  0  0  0  0  0  0  0  0  0
    9.1700   12.0330   -1.0730 O   0  0  0  0  0  0  0  0  0  0  0  0
   11.8280   11.4940    4.0400 S   0  0  0  0  0  0  0  0  0  0  0  0
   11.1130   12.0460    5.1370 O   0  0  0  0  0  0  0  0  0  0  0  0
   11.6400   10.1550    3.6030 O   0  0  0  0  0  0  0  0  0  0  0  0
   13.4370   11.6550    4.3940 N   0  0  0  0  0  0  0  0  0  0  0  0
   14.3450   10.5620    4.7690 C   0  0  0  0  0  0  0  0  0  0  0  0
   15.7330   11.1860    5.0290 C   0  0  0  0  0  0  0  0  0  0  0  0
   15.3910   12.6670    5.3440 C   0  0  0  0  0  0  0  0  0  0  0  0
   14.1960   12.9190    4.3920 C   0  0  0  0  0  0  0  0  0  0  0  0
  1  6  2  0  0  0  0
  1  2  1  0  0  0  0
  2  3  2  0  0  0  0
  3  4  1  0  0  0  0
  4 20  1  0  0  0  0
  5  4  2  0  0  0  0
  6  5  1  0  0  0  0
  7  9  1  0  0  0  0
  8  7  1  0  0  0  0
  9 10  2  0  0  0  0
  9  1  1  0  0  0  0
 11  7  1  0  0  0  0
 12 13  1  0  0  0  0
 12 11  1  0  0  0  0
 13 14  1  0  0  0  0
 14 17  1  0  0  0  0
 15 14  1  0  0  0  0
 17 16  1  0  0  0  0
 17 18  2  0  0  0  0
 17 19  2  0  0  0  0
 20 23  1  0  0  0  0
 20 21  2  0  0  0  0
 22 20  2  0  0  0  0
 23 24  1  0  0  0  0
 24 25  1  0  0  0  0
 25 26  1  0  0  0  0
 27 23  1  0  0  0  0
 27 26  1  0  0  0  0
M  END
>  <MODEL>
1

>  <REMARK>
 VINA RESULT:      -3.1      0.000      0.000
  Name = ZINC31217234
                            x       y       z     vdW  Elec       q    Type
                         _______ _______ _______ _____ _____    ______ ____

>  <TORSDO>
F 8

>  <vina_score>
-3.1

$$$$
ZINC00547494
 OpenBabel01081723423D

 27 28  0  0  0  0  0  0  0  0999 V2000
   11.9910   10.4300    4.0380 C   0  0  0  0  0  0  0  0  0  0  0  0
   11.1930   10.7110    2.9450 C   0  0  0  0  0  0  0  0  0  0  0  0
   11.7810   10.9930    1.7090 C   0  0  0  0  0  0  0  0  0  0  0  0
   13.1720   10.9910    1.5850 C   0  0  0  0  0  0  0  0  0  0  0  0
   13.9620   10.7160    2.6810 C   0  0  0  0  0  0  0  0  0  0  0  0
   13.3780   10.4290    3.9060 C   0  0  0  0  0  0  0  0  0  0  0  0
    9.9970   10.2260    5.3190 C   0  0  0  0  0  0  0  0  0  0  0  0
   11.4220   10.1540    5.2420 O   0  0  0  0  0  0  0  0  0  0  0  0
   10.9350   11.2950    0.5400 C   0  0  0  0  0  0  0  0  0  0  0  0
   10.3490   12.4490    0.4420 N   0  0  0  0  0  0  0  0  0  0  0  0
    9.5450   12.7350   -0.6700 N   0  0  0  0  0  0  0  0  0  0  0  0
    9.9610   12.9960   -1.5230 H   0  0  0  0  0  0  0  0  0  0  0  0
    8.2040   12.6530   -0.5700 C   0  0  0  0  0  0  0  0  0  0  0  0
    7.6920   12.3320    0.4810 O   0  0  0  0  0  0  0  0  0  0  0  0
    7.3400   12.9610   -1.7660 C   0  0  0  0  0  0  0  0  0  0  0  0
    8.1810   13.4510   -2.8620 N   0  0  0  0  0  0  0  0  0  0  0  0
    8.3690   14.7320   -3.2210 C   0  0  0  0  0  0  0  0  0  0  0  0
    9.1870   14.7500   -4.2420 N   0  0  0  0  0  0  0  0  0  0  0  0
    9.5390   13.5060   -4.5620 C   0  0  0  0  0  0  0  0  0  0  0  0
    8.9520   12.6760   -3.7420 N   0  0  0  0  0  0  0  0  0  0  0  0
   14.1610   10.1530    4.9820 O   0  0  0  0  0  0  0  0  0  0  0  0
   15.2970   10.9950    5.1910 C   0  0  0  0  0  0  0  0  0  0  0  0
   14.8680   12.4390    5.1400 C   0  0  0  0  0  0  0  0  0  0  0  0
   15.7280   13.3830    4.7070 N   0  0  0  0  0  0  0  0  0  0  0  0
   15.4480   14.3260    4.6740 H   0  0  0  0  0  0  0  0  0  0  0  0
   16.6360   13.1290    4.4240 H   0  0  0  0  0  0  0  0  0  0  0  0
   13.7490   12.7520    5.4890 O   0  0  0  0  0  0  0  0  0  0  0  0
  1  8  1  0  0  0  0
  2  1  2  0  0  0  0
  3  2  1  0  0  0  0
  4  3  2  0  0  0  0
  4  5  1  0  0  0  0
  5  6  2  0  0  0  0
  6  1  1  0  0  0  0
  6 21  1  0  0  0  0
  8  7  1  0  0  0  0
  9  3  1  0  0  0  0
 10  9  2  0  0  0  0
 11 13  1  0  0  0  0
 11 10  1  0  0  0  0
 12 11  1  0  0  0  0
 13 14  2  0  0  0  0
 15 13  1  0  0  0  0
 16 15  1  0  0  0  0
 17 16  1  0  0  0  0
 18 17  2  0  0  0  0
 19 18  1  0  0  0  0
 19 20  2  0  0  0  0
 20 16  1  0  0  0  0
 21 22  1  0  0  0  0
 23 22  1  0  0  0  0
 23 27  2  0  0  0  0
 24 23  1  0  0  0  0
 25 24  1  0  0  0  0
 26 24  1  0  0  0  0
M  END
>  <MODEL>
1

>  <REMARK>
 VINA RESULT:      -2.7      0.000      0.000
  Name = ZINC00547494
                            x       y       z     vdW  Elec       q    Type
                         _______ _______ _______ _____ _____    ______ ____

>  <TORSDO>
F 8

>  <vina_score>
-2.7

$$$$
ZINC31229550
 OpenBabel01081722443D

 37 40  0  0  1  0  0  0  0  0999 V2000
    9.2670   11.3140    3.0950 C   0  0  0  0  0  0  0  0  0  0  0  0
    8.6880   10.1540    2.5730 C   0  0  0  0  0  0  0  0  0  0  0  0
    7.6570   10.2500    1.6670 C   0  0  0  0  0  0  0  0  0  0  0  0
    7.1920   11.4990    1.2680 C   0  0  0  0  0  0  0  0  0  0  0  0
    7.7710   12.6570    1.7810 C   0  0  0  0  0  0  0  0  0  0  0  0
    8.7980   12.5680    2.6930 C   0  0  0  0  0  0  0  0  0  0  0  0
   11.3620   10.3210    3.8740 N   0  0  0  0  0  0  0  0  0  0  0  0
   11.3480    9.7340    3.0830 H   0  0  0  0  0  0  0  0  0  0  0  0
   10.3730   11.2150    4.0680 C   0  0  0  0  0  0  0  0  0  0  0  0
   10.3910   11.9400    5.0440 O   0  0  0  0  0  0  0  0  0  0  0  0
   12.4600   10.2220    4.8390 C   0  0  0  0  0  0  0  0  0  0  0  0
   13.7940   10.1720    4.0920 C   0  0  1  0  0  0  0  0  0  0  0  0
   13.9140   11.3520    3.2250 N   0  0  0  0  0  0  0  0  0  0  0  0
   14.8920   11.3930    2.9330 H   0  0  0  0  0  0  0  0  0  0  0  0
   13.0040   11.2500    2.0570 C   0  0  0  0  0  0  0  0  0  0  0  0
   12.8670   12.7190    1.5840 C   0  0  0  0  0  0  0  0  0  0  0  0
   12.8450   13.5090    2.9120 C   0  0  0  0  0  0  0  0  0  0  0  0
   13.5130   12.5800    3.9440 C   0  0  0  0  0  0  0  0  0  0  0  0
   15.5670   11.5560    5.1790 C   0  0  0  0  0  0  0  0  0  0  0  0
   14.9430   10.1610    5.1010 C   0  0  0  0  0  0  0  0  0  0  0  0
    6.1510   11.5930    0.3520 N   0  0  0  0  0  0  0  0  0  0  0  0
    5.2230   11.6810    0.6680 H   0  0  0  0  0  0  0  0  0  0  0  0
    6.4720   11.5580   -1.2720 S   0  0  0  0  0  0  0  0  0  0  0  0
    7.0050   10.2720   -1.5540 O   0  0  0  0  0  0  0  0  0  0  0  0
    5.3160   12.0630   -1.9250 O   0  0  0  0  0  0  0  0  0  0  0  0
    7.7660   12.7160   -1.5720 C   0  0  0  0  0  0  0  0  0  0  0  0
    7.4660   13.9710   -2.0760 C   0  0  0  0  0  0  0  0  0  0  0  0
    8.4730   14.8840   -2.3140 C   0  0  0  0  0  0  0  0  0  0  0  0
    9.7920   14.5440   -2.0490 C   0  0  0  0  0  0  0  0  0  0  0  0
   10.0940   13.2790   -1.5410 C   0  0  0  0  0  0  0  0  0  0  0  0
   11.4760   13.2310   -1.3790 N   0  0  0  0  0  0  0  0  0  0  0  0
   11.9900   12.4630   -1.0360 H   0  0  0  0  0  0  0  0  0  0  0  0
   11.9910   14.4120   -1.7700 C   0  0  0  0  0  0  0  0  0  0  0  0
   13.1730   14.7000   -1.7550 O   0  0  0  0  0  0  0  0  0  0  0  0
   10.9990   15.2250   -2.1800 N   0  0  0  0  0  0  0  0  0  0  0  0
   11.1080   16.1440   -2.5140 H   0  0  0  0  0  0  0  0  0  0  0  0
    9.0760   12.3680   -1.3040 C   0  0  0  0  0  0  0  0  0  0  0  0
  1  9  1  0  0  0  0
  2  1  2  0  0  0  0
  3  2  1  0  0  0  0
  4  3  2  0  0  0  0
  4  5  1  0  0  0  0
  5  6  2  0  0  0  0
  6  1  1  0  0  0  0
  7  9  1  0  0  0  0
  7 11  1  0  0  0  0
  8  7  1  0  0  0  0
  9 10  2  0  0  0  0
 12 13  1  6  0  0  0
 12 11  1  0  0  0  0
 12 20  1  0  0  0  0
 13 18  1  0  0  0  0
 14 13  1  0  0  0  0
 15 13  1  0  0  0  0
 16 15  1  0  0  0  0
 16 17  1  0  0  0  0
 17 18  1  0  0  0  0
 20 19  1  0  0  0  0
 21 22  1  0  0  0  0
 21  4  1  0  0  0  0
 23 21  1  0  0  0  0
 24 23  2  0  0  0  0
 25 23  2  0  0  0  0
 26 37  2  0  0  0  0
 26 23  1  0  0  0  0
 27 26  1  0  0  0  0
 28 27  2  0  0  0  0
 28 29  1  0  0  0  0
 29 30  2  0  0  0  0
 30 31  1  0  0  0  0
 30 37  1  0  0  0  0
 31 32  1  0  0  0  0
 33 34  2  0  0  0  0
 33 31  1  0  0  0  0
 35 29  1  0  0  0  0
 35 33  1  0  0  0  0
 36 35  1  0  0  0  0
M  END
>  <MODEL>
1

>  <REMARK>
 VINA RESULT:      -2.6      0.000      0.000
  Name = ZINC31229550
                            x       y       z     vdW  Elec       q    Type
                         _______ _______ _______ _____ _____    ______ ____

>  <TORSDO>
F 8

>  <vina_score>
-2.6

$$$$
ZINC15939612
 OpenBabel01081722353D

 35 37  0  0  1  0  0  0  0  0999 V2000
   12.2490   10.1540    1.5530 N   0  0  0  0  0  0  0  0  0  0  0  0
   12.1910    9.3100    2.0560 H   0  0  0  0  0  0  0  0  0  0  0  0
   13.3280   10.9500    1.6920 C   0  0  0  0  0  0  0  0  0  0  0  0
   13.4000   11.9890    1.0720 O   0  0  0  0  0  0  0  0  0  0  0  0
   10.0000   10.8450    1.1930 C   0  0  0  0  0  0  0  0  0  0  0  0
   11.2100   10.5290    0.6910 N   0  0  0  0  0  0  0  0  0  0  0  0
   11.3630   10.5600   -0.2810 H   0  0  0  0  0  0  0  0  0  0  0  0
    9.8100   10.8060    2.3930 O   0  0  0  0  0  0  0  0  0  0  0  0
    6.6970   11.0460   -0.2900 N   0  0  0  0  0  0  0  0  0  0  0  0
    6.7660   11.8930   -1.3380 C   0  0  0  0  0  0  0  0  0  0  0  0
    8.0600   12.5180   -1.6490 C   0  0  0  0  0  0  0  0  0  0  0  0
    8.2360   13.4040   -2.7060 C   0  0  0  0  0  0  0  0  0  0  0  0
    9.4840   13.9470   -2.9300 C   0  0  0  0  0  0  0  0  0  0  0  0
   10.5580   13.6190   -2.1140 C   0  0  0  0  0  0  0  0  0  0  0  0
   10.4040   12.7420   -1.0620 C   0  0  0  0  0  0  0  0  0  0  0  0
    9.1530   12.1880   -0.8140 C   0  0  0  0  0  0  0  0  0  0  0  0
    8.9040   11.2400    0.2850 C   0  0  0  0  0  0  0  0  0  0  0  0
    5.7800   12.1340   -2.0100 O   0  0  0  0  0  0  0  0  0  0  0  0
    7.6970   10.7550    0.4510 N   0  0  0  0  0  0  0  0  0  0  0  0
    5.3130   10.1530    1.5190 C   0  0  0  0  0  0  0  0  0  0  0  0
    5.4040   10.4270    0.0160 C   0  0  0  0  0  0  0  0  0  0  0  0
   14.4460   10.5460    2.6190 C   0  0  0  0  0  0  0  0  0  0  0  0
   13.8090   10.4120    4.3120 S   0  0  0  0  0  0  0  0  0  0  0  0
   13.8510   12.1170    4.9330 C   0  0  1  0  0  0  0  0  0  0  0  0
   15.2810   12.6540    4.8530 C   0  0  0  0  0  0  0  0  0  0  0  0
   12.9440   12.9790    4.0940 C   0  0  0  0  0  0  0  0  0  0  0  0
   11.6200   12.7280    4.0560 N   0  0  0  0  0  0  0  0  0  0  0  0
   11.2460   11.9810    4.5770 H   0  0  0  0  0  0  0  0  0  0  0  0
   13.4040   13.8990    3.4520 O   0  0  0  0  0  0  0  0  0  0  0  0
   10.7800   13.5250    3.2790 C   0  0  0  0  0  0  0  0  0  0  0  0
   11.1240   14.2170    2.0860 C   0  0  0  0  0  0  0  0  0  0  0  0
    9.9760   14.8340    1.7250 C   0  0  0  0  0  0  0  0  0  0  0  0
    9.7690   15.7140    0.5190 C   0  0  0  0  0  0  0  0  0  0  0  0
    9.0590   14.5110    2.6490 O   0  0  0  0  0  0  0  0  0  0  0  0
    9.5170   13.7830    3.4980 N   0  0  0  0  0  0  0  0  0  0  0  0
  1  3  1  0  0  0  0
  1  2  1  0  0  0  0
  3 22  1  0  0  0  0
  4  3  2  0  0  0  0
  5  8  2  0  0  0  0
  6  5  1  0  0  0  0
  6  1  1  0  0  0  0
  7  6  1  0  0  0  0
  9 21  1  0  0  0  0
  9 19  1  0  0  0  0
 10  9  1  0  0  0  0
 11 10  1  0  0  0  0
 11 16  2  0  0  0  0
 12 11  1  0  0  0  0
 13 12  2  0  0  0  0
 13 14  1  0  0  0  0
 14 15  2  0  0  0  0
 15 16  1  0  0  0  0
 16 17  1  0  0  0  0
 17 19  2  0  0  0  0
 17  5  1  0  0  0  0
 18 10  2  0  0  0  0
 21 20  1  0  0  0  0
 22 23  1  0  0  0  0
 23 24  1  0  0  0  0
 24 26  1  6  0  0  0
 25 24  1  0  0  0  0
 27 26  1  0  0  0  0
 27 28  1  0  0  0  0
 29 26  2  0  0  0  0
 30 35  2  0  0  0  0
 30 27  1  0  0  0  0
 31 30  1  0  0  0  0
 32 31  2  0  0  0  0
 32 34  1  0  0  0  0
 33 32  1  0  0  0  0
 34 35  1  0  0  0  0
M  END
>  <MODEL>
1

>  <REMARK>
 VINA RESULT:      -2.6      0.000      0.000
  Name = ZINC15939612
                            x       y       z     vdW  Elec       q    Type
                         _______ _______ _______ _____ _____    ______ ____

>  <TORSDO>
F 8

>  <vina_score>
-2.6

$$$$
ZINC22754895
 OpenBabel01081722413D

 30 31  0  0  1  0  0  0  0  0999 V2000
    9.4900   11.7520    1.7830 C   0  0  0  0  0  0  0  0  0  0  0  0
   10.2490   11.5700    0.6250 C   0  0  0  0  0  0  0  0  0  0  0  0
    9.7510   11.9840   -0.5930 C   0  0  0  0  0  0  0  0  0  0  0  0
    8.5040   12.5770   -0.6700 C   0  0  0  0  0  0  0  0  0  0  0  0
    7.7490   12.7650    0.4750 C   0  0  0  0  0  0  0  0  0  0  0  0
    8.2330   12.3510    1.6990 C   0  0  0  0  0  0  0  0  0  0  0  0
   11.3090   10.9450    3.2090 N   0  0  0  0  0  0  0  0  0  0  0  0
   11.9020   10.9710    2.4230 H   0  0  0  0  0  0  0  0  0  0  0  0
   10.0180   11.3110    3.0920 C   0  0  0  0  0  0  0  0  0  0  0  0
    9.2860   11.2790    4.0620 O   0  0  0  0  0  0  0  0  0  0  0  0
   11.8330   10.5090    4.5060 C   0  0  0  0  0  0  0  0  0  0  0  0
   13.2130   11.1280    4.7350 C   0  0  1  0  0  0  0  0  0  0  0  0
   14.2510   10.1540    4.3720 N   0  0  0  0  0  0  0  0  0  0  0  0
   13.9110    9.2260    4.6200 H   0  0  0  0  0  0  0  0  0  0  0  0
   15.4890   10.3990    5.1270 C   0  0  0  0  0  0  0  0  0  0  0  0
   14.5070   10.1710    2.9260 C   0  0  0  0  0  0  0  0  0  0  0  0
   12.1470   13.2880    4.0700 C   0  0  0  0  0  0  0  0  0  0  0  0
   13.3610   12.3790    3.8660 C   0  0  0  0  0  0  0  0  0  0  0  0
   14.6330   13.1290    4.2640 C   0  0  0  0  0  0  0  0  0  0  0  0
    7.8760   13.1010   -2.2300 S   0  0  0  0  0  0  0  0  0  0  0  0
    8.1420   12.0490   -3.1480 O   0  0  0  0  0  0  0  0  0  0  0  0
    6.5640   13.5950   -1.9960 O   0  0  0  0  0  0  0  0  0  0  0  0
    8.7880   14.3950   -2.7170 N   0  0  0  0  0  0  0  0  0  0  0  0
   10.0400   14.6250   -2.1370 C   0  0  0  0  0  0  0  0  0  0  0  0
   10.1510   15.4440   -1.0220 C   0  0  0  0  0  0  0  0  0  0  0  0
   11.3890   15.6700   -0.4510 C   0  0  0  0  0  0  0  0  0  0  0  0
   12.5170   15.0800   -0.9890 C   0  0  0  0  0  0  0  0  0  0  0  0
   12.4140   14.2650   -2.1000 C   0  0  0  0  0  0  0  0  0  0  0  0
   11.1780   14.0350   -2.6770 C   0  0  0  0  0  0  0  0  0  0  0  0
   11.0750   13.2320   -3.7600 F   0  0  0  0  0  0  0  0  0  0  0  0
  1  9  1  0  0  0  0
  2  1  2  0  0  0  0
  3  2  1  0  0  0  0
  4  3  2  0  0  0  0
  4  5  1  0  0  0  0
  5  6  2  0  0  0  0
  6  1  1  0  0  0  0
  7 11  1  0  0  0  0
  8  7  1  0  0  0  0
  9  7  1  0  0  0  0
  9 10  2  0  0  0  0
 11 12  1  0  0  0  0
 12 18  1  6  0  0  0
 13 14  1  0  0  0  0
 13 12  1  0  0  0  0
 13 15  1  0  0  0  0
 16 13  1  0  0  0  0
 18 17  1  0  0  0  0
 18 19  1  0  0  0  0
 20 22  2  0  0  0  0
 20  4  1  0  0  0  0
 21 20  2  0  0  0  0
 23 20  1  0  0  0  0
 23 24  1  0  0  0  0
 24 25  1  0  0  0  0
 25 26  2  0  0  0  0
 27 26  1  0  0  0  0
 28 27  2  0  0  0  0
 29 24  2  0  0  0  0
 29 28  1  0  0  0  0
 30 29  1  0  0  0  0
M  END
>  <MODEL>
1

>  <REMARK>
 VINA RESULT:      -2.6      0.000      0.000
  Name = ZINC22754895
                            x       y       z     vdW  Elec       q    Type
                         _______ _______ _______ _____ _____    ______ ____

>  <TORSDO>
F 8

>  <vina_score>
-2.6

$$$$
ZINC19848804
 OpenBabel01081722503D

 33 35  0  0  1  0  0  0  0  0999 V2000
   10.5460   14.3430    1.2440 N   0  0  0  0  0  0  0  0  0  0  0  0
   10.6260   13.5800    2.3410 C   0  0  0  0  0  0  0  0  0  0  0  0
    9.3720   12.7440    2.4620 C   0  0  2  0  0  0  0  0  0  0  0  0
    9.7240   11.2620    2.2170 C   0  0  1  0  0  0  0  0  0  0  0  0
    9.6480   11.0950    0.7420 N   0  0  0  0  0  0  0  0  0  0  0  0
   10.5010   11.3980    0.2720 H   0  0  0  0  0  0  0  0  0  0  0  0
    9.5200   10.1140    0.4960 H   0  0  0  0  0  0  0  0  0  0  0  0
    8.4640   11.8990    0.3450 C   0  0  2  0  0  0  0  0  0  0  0  0
    8.5380   13.1660    1.2230 C   0  0  2  0  0  0  0  0  0  0  0  0
   11.5590   13.5610    3.1150 O   0  0  0  0  0  0  0  0  0  0  0  0
    9.4170   14.1910    0.5430 C   0  0  0  0  0  0  0  0  0  0  0  0
    9.1420   14.7840   -0.4790 O   0  0  0  0  0  0  0  0  0  0  0  0
   11.1180   10.9650    2.7070 C   0  0  0  0  0  0  0  0  0  0  0  0
   12.2040   11.2020    1.8870 C   0  0  0  0  0  0  0  0  0  0  0  0
   13.4830   10.9300    2.3350 C   0  0  0  0  0  0  0  0  0  0  0  0
   13.6790   10.4190    3.6110 C   0  0  0  0  0  0  0  0  0  0  0  0
   12.5900   10.1820    4.4360 C   0  0  0  0  0  0  0  0  0  0  0  0
   11.3090   10.4590    3.9860 C   0  0  0  0  0  0  0  0  0  0  0  0
   14.9360   10.1530    4.0500 O   0  0  0  0  0  0  0  0  0  0  0  0
   15.2310   10.4810    5.4100 C   0  0  0  0  0  0  0  0  0  0  0  0
   10.2400   10.2320    4.7940 O   0  0  0  0  0  0  0  0  0  0  0  0
   10.3040   10.4030    5.7130 H   0  0  0  0  0  0  0  0  0  0  0  0
    7.1950   11.1370    0.6260 C   0  0  0  0  0  0  0  0  0  0  0  0
    6.3650   11.5500    1.5970 O   0  0  0  0  0  0  0  0  0  0  0  0
    6.9240   10.1530   -0.0220 O   0  0  0  0  0  0  0  0  0  0  0  0
   11.6080   15.2700    0.8450 C   0  0  0  0  0  0  0  0  0  0  0  0
   12.4610   14.6260   -0.2500 C   0  0  0  0  0  0  0  0  0  0  0  0
   11.9350   14.2250   -2.6610 C   0  0  0  0  0  0  0  0  0  0  0  0
   12.1590   15.2970   -1.5930 C   0  0  0  0  0  0  0  0  0  0  0  0
    8.5460   12.2710   -1.1360 C   0  0  0  0  0  0  0  0  0  0  0  0
    7.3370   13.1300   -1.5140 C   0  0  0  0  0  0  0  0  0  0  0  0
    6.2590   12.2440   -2.1420 C   0  0  0  0  0  0  0  0  0  0  0  0
    7.7660   14.2010   -2.5190 C   0  0  0  0  0  0  0  0  0  0  0  0
  1  2  1  0  0  0  0
  2 10  2  0  0  0  0
  3  2  1  6  0  0  0
  4  3  1  0  0  0  0
  4 13  1  6  0  0  0
  5  4  1  0  0  0  0
  6  5  1  0  0  0  0
  7  5  1  0  0  0  0
  8 30  1  6  0  0  0
  8 23  1  0  0  0  0
  8  5  1  0  0  0  0
  8  9  1  0  0  0  0
  9 11  1  6  0  0  0
  9  3  1  0  0  0  0
 11  1  1  0  0  0  0
 12 11  2  0  0  0  0
 13 18  2  0  0  0  0
 14 15  2  0  0  0  0
 14 13  1  0  0  0  0
 15 16  1  0  0  0  0
 16 19  1  0  0  0  0
 16 17  2  0  0  0  0
 18 17  1  0  0  0  0
 18 21  1  0  0  0  0
 19 20  1  0  0  0  0
 21 22  1  0  0  0  0
 23 24  1  0  0  0  0
 25 23  2  0  0  0  0
 26  1  1  0  0  0  0
 27 26  1  0  0  0  0
 28 29  1  0  0  0  0
 29 27  1  0  0  0  0
 31 30  1  0  0  0  0
 32 31  1  0  0  0  0
 33 31  1  0  0  0  0
M  END
>  <MODEL>
1

>  <REMARK>
 VINA RESULT:      -2.4      0.000      0.000
  Name = ZINC19848804
                            x       y       z     vdW  Elec       q    Type
                         _______ _______ _______ _____ _____    ______ ____

>  <TORSDO>
F 9

>  <vina_score>
-2.4

$$$$
ZINC20920233
 OpenBabel01081722373D

 32 34  0  0  0  0  0  0  0  0999 V2000
   10.3640   14.9490   -2.9860 C   0  0  0  0  0  0  0  0  0  0  0  0
   10.8040   16.1490   -2.6850 N   0  0  0  0  0  0  0  0  0  0  0  0
   11.9740   16.0040   -1.9280 N   0  0  0  0  0  0  0  0  0  0  0  0
   12.2110   14.7210   -1.7910 C   0  0  0  0  0  0  0  0  0  0  0  0
   11.2180   14.0370   -2.4360 N   0  0  0  0  0  0  0  0  0  0  0  0
   11.1040   12.6780   -2.5190 N   0  0  0  0  0  0  0  0  0  0  0  0
   11.0190   12.1400   -1.6990 H   0  0  0  0  0  0  0  0  0  0  0  0
   11.1070   12.2370   -3.3980 H   0  0  0  0  0  0  0  0  0  0  0  0
   13.2790   14.1580   -1.1070 N   0  0  0  0  0  0  0  0  0  0  0  0
   14.2010   14.3430   -1.3950 H   0  0  0  0  0  0  0  0  0  0  0  0
   13.0440   13.3270   -0.0040 N   0  0  0  0  0  0  0  0  0  0  0  0
   11.9740   13.4860    0.7150 C   0  0  0  0  0  0  0  0  0  0  0  0
   11.7280   12.6110    1.8740 C   0  0  0  0  0  0  0  0  0  0  0  0
   12.7970   12.1620    2.6530 C   0  0  0  0  0  0  0  0  0  0  0  0
   12.5630   11.3450    3.7440 C   0  0  0  0  0  0  0  0  0  0  0  0
   11.2630   10.9610    4.0610 C   0  0  0  0  0  0  0  0  0  0  0  0
   10.1960   11.4020    3.2840 C   0  0  0  0  0  0  0  0  0  0  0  0
   10.4240   12.2240    2.1950 C   0  0  0  0  0  0  0  0  0  0  0  0
   13.6040   10.9110    4.5050 O   0  0  0  0  0  0  0  0  0  0  0  0
   14.7450   11.7670    4.5910 C   0  0  0  0  0  0  0  0  0  0  0  0
   11.0360   10.1530    5.1320 O   0  0  0  0  0  0  0  0  0  0  0  0
    9.7510   10.2440    5.7510 C   0  0  0  0  0  0  0  0  0  0  0  0
    8.9270   11.0240    3.5980 O   0  0  0  0  0  0  0  0  0  0  0  0
    8.2390   10.2110    2.6450 C   0  0  0  0  0  0  0  0  0  0  0  0
    8.9200   14.5810   -3.9260 S   0  0  0  0  0  0  0  0  0  0  0  0
    7.5730   14.6770   -2.7160 C   0  0  0  0  0  0  0  0  0  0  0  0
    6.4470   10.2940   -0.5100 C   0  0  0  0  0  0  0  0  0  0  0  0
    7.1240   11.5860   -0.8850 C   0  0  0  0  0  0  0  0  0  0  0  0
    8.2200   12.0620   -0.3670 N   0  0  0  0  0  0  0  0  0  0  0  0
    8.5080   13.1820   -0.9330 N   0  0  0  0  0  0  0  0  0  0  0  0
    7.6060   13.4580   -1.8300 C   0  0  0  0  0  0  0  0  0  0  0  0
    6.7110   12.4570   -1.8220 O   0  0  0  0  0  0  0  0  0  0  0  0
  1  2  2  0  0  0  0
  1  5  1  0  0  0  0
  2  3  1  0  0  0  0
  3  4  2  0  0  0  0
  4  9  1  0  0  0  0
  5  4  1  0  0  0  0
  6  5  1  0  0  0  0
  6  7  1  0  0  0  0
  8  6  1  0  0  0  0
  9 11  1  0  0  0  0
 10  9  1  0  0  0  0
 11 12  2  0  0  0  0
 12 13  1  0  0  0  0
 13 18  2  0  0  0  0
 13 14  1  0  0  0  0
 14 15  2  0  0  0  0
 15 16  1  0  0  0  0
 15 19  1  0  0  0  0
 16 21  1  0  0  0  0
 17 23  1  0  0  0  0
 17 16  2  0  0  0  0
 18 17  1  0  0  0  0
 19 20  1  0  0  0  0
 21 22  1  0  0  0  0
 24 23  1  0  0  0  0
 25  1  1  0  0  0  0
 25 26  1  0  0  0  0
 26 31  1  0  0  0  0
 28 27  1  0  0  0  0
 28 29  2  0  0  0  0
 30 29  1  0  0  0  0
 31 32  1  0  0  0  0
 31 30  2  0  0  0  0
 32 28  1  0  0  0  0
M  END
>  <MODEL>
1

>  <REMARK>
 VINA RESULT:      -2.2      0.000      0.000
  Name = ZINC20920233
                            x       y       z     vdW  Elec       q    Type
                         _______ _______ _______ _____ _____    ______ ____

>  <TORSDO>
F 10

>  <vina_score>
-2.2

$$$$
ZINC30521525
 OpenBabel01081722323D

 29 30  0  0  1  0  0  0  0  0999 V2000
   12.7130   12.8210    2.2990 C   0  0  0  0  0  0  0  0  0  0  0  0
   12.2970   11.5030    2.0940 C   0  0  0  0  0  0  0  0  0  0  0  0
   11.3630   11.2220    1.1220 C   0  0  0  0  0  0  0  0  0  0  0  0
   10.8410   12.2470    0.3390 C   0  0  0  0  0  0  0  0  0  0  0  0
   11.2580   13.5590    0.5380 C   0  0  0  0  0  0  0  0  0  0  0  0
   12.1880   13.8480    1.5110 C   0  0  0  0  0  0  0  0  0  0  0  0
   13.9390   12.2460    4.3380 N   0  0  0  0  0  0  0  0  0  0  0  0
   13.4390   11.3970    4.3670 H   0  0  0  0  0  0  0  0  0  0  0  0
   13.7110   13.1270    3.3440 C   0  0  0  0  0  0  0  0  0  0  0  0
   14.3260   14.1760    3.3080 O   0  0  0  0  0  0  0  0  0  0  0  0
   14.9280   12.5500    5.3730 C   0  0  0  0  0  0  0  0  0  0  0  0
   15.7330   11.2880    5.6960 C   0  0  0  0  0  0  0  0  0  0  0  0
   13.7230   10.1580    4.9560 C   0  0  0  0  0  0  0  0  0  0  0  0
   15.1920   10.1540    4.9350 N   0  0  0  0  0  0  0  0  0  0  0  0
   15.5090    9.2950    5.3860 H   0  0  0  0  0  0  0  0  0  0  0  0
   15.6990   10.1560    3.5570 C   0  0  0  0  0  0  0  0  0  0  0  0
    9.8990   11.9570   -0.6470 N   0  0  0  0  0  0  0  0  0  0  0  0
    9.2130   11.2700   -0.4860 H   0  0  0  0  0  0  0  0  0  0  0  0
    9.9280   12.6190   -1.8210 C   0  0  0  0  0  0  0  0  0  0  0  0
   10.8270   13.3970   -2.0570 O   0  0  0  0  0  0  0  0  0  0  0  0
    8.8420   12.3910   -2.8410 C   0  0  2  0  0  0  0  0  0  0  0  0
    9.1430   13.2040   -4.1020 C   0  0  0  0  0  0  0  0  0  0  0  0
    8.9600   14.6690   -3.8290 C   0  0  0  0  0  0  0  0  0  0  0  0
    8.3080   15.1410   -2.8140 C   0  0  0  0  0  0  0  0  0  0  0  0
    7.6540   14.2910   -1.7660 C   0  0  0  0  0  0  0  0  0  0  0  0
    7.4960   12.8560   -2.2730 C   0  0  2  0  0  0  0  0  0  0  0  0
    7.0880   11.9580   -1.1340 C   0  0  0  0  0  0  0  0  0  0  0  0
    7.3910   12.2950    0.1290 O   0  0  0  0  0  0  0  0  0  0  0  0
    6.4900   10.9320   -1.3580 O   0  0  0  0  0  0  0  0  0  0  0  0
  1  9  1  0  0  0  0
  2  1  1  0  0  0  0
  3  2  2  0  0  0  0
  4  5  2  0  0  0  0
  4  3  1  0  0  0  0
  5  6  1  0  0  0  0
  6  1  2  0  0  0  0
  7  8  1  0  0  0  0
  7 11  1  0  0  0  0
  9  7  1  0  0  0  0
 10  9  2  0  0  0  0
 11 12  1  0  0  0  0
 14 13  1  0  0  0  0
 14 15  1  0  0  0  0
 14 12  1  0  0  0  0
 16 14  1  0  0  0  0
 17 18  1  0  0  0  0
 17  4  1  0  0  0  0
 19 17  1  0  0  0  0
 20 19  2  0  0  0  0
 21 26  1  0  0  0  0
 21 19  1  1  0  0  0
 22 23  1  0  0  0  0
 22 21  1  0  0  0  0
 23 24  2  0  0  0  0
 24 25  1  0  0  0  0
 26 25  1  0  0  0  0
 26 27  1  1  0  0  0
 27 28  1  0  0  0  0
 29 27  2  0  0  0  0
M  END
>  <MODEL>
1

>  <REMARK>
 VINA RESULT:      -2.1      0.000      0.000
  Name = ZINC30521525
                            x       y       z     vdW  Elec       q    Type
                         _______ _______ _______ _____ _____    ______ ____

>  <TORSDO>
F 7

>  <vina_score>
-2.1

$$$$
ZINC09915296
 OpenBabel01081722303D

 26 27  0  0  0  0  0  0  0  0999 V2000
   10.9790   12.7450    0.5750 C   0  0  0  0  0  0  0  0  0  0  0  0
   11.4980   13.4430   -0.4560 N   0  0  0  0  0  0  0  0  0  0  0  0
   12.4590   13.6550   -0.4720 H   0  0  0  0  0  0  0  0  0  0  0  0
    9.7810   12.5550    0.6370 O   0  0  0  0  0  0  0  0  0  0  0  0
   10.6710   13.8630   -1.5020 C   0  0  0  0  0  0  0  0  0  0  0  0
   11.2290   14.3180   -2.6900 C   0  0  0  0  0  0  0  0  0  0  0  0
   10.4100   14.7290   -3.7230 C   0  0  0  0  0  0  0  0  0  0  0  0
    9.0330   14.6970   -3.5720 C   0  0  0  0  0  0  0  0  0  0  0  0
    8.2340   15.1030   -4.5820 F   0  0  0  0  0  0  0  0  0  0  0  0
    8.4750   14.2490   -2.3860 C   0  0  0  0  0  0  0  0  0  0  0  0
    9.2910   13.8320   -1.3520 C   0  0  0  0  0  0  0  0  0  0  0  0
    7.0040   14.2150   -2.2280 N   0  0  0  0  0  0  0  0  0  0  0  0
    6.4420   13.1620   -1.9850 O   0  0  0  0  0  0  0  0  0  0  0  0
    6.3550   15.2400   -2.3400 O   0  0  0  0  0  0  0  0  0  0  0  0
   11.7650   12.6400    2.9050 N   0  0  0  0  0  0  0  0  0  0  0  0
   11.0910   13.3200    3.1320 H   0  0  0  0  0  0  0  0  0  0  0  0
   11.8780   12.2010    1.6360 C   0  0  0  0  0  0  0  0  0  0  0  0
   12.7100   11.3630    1.3540 O   0  0  0  0  0  0  0  0  0  0  0  0
   15.7330   10.1830    5.9040 C   0  0  0  0  0  0  0  0  0  0  0  0
   14.8580   10.7110    4.8360 N   0  0  0  0  0  0  0  0  0  0  0  0
   15.2360   10.4340    3.9300 H   0  0  0  0  0  0  0  0  0  0  0  0
   14.8080   12.1870    4.9060 C   0  0  0  0  0  0  0  0  0  0  0  0
   13.9400   12.7070    3.7570 C   0  0  0  0  0  0  0  0  0  0  0  0
   12.5890   12.1420    3.8750 N   0  0  0  0  0  0  0  0  0  0  0  0
   12.6280   10.6740    3.8300 C   0  0  0  0  0  0  0  0  0  0  0  0
   13.4960   10.1540    4.9790 C   0  0  0  0  0  0  0  0  0  0  0  0
  1  4  2  0  0  0  0
  1 17  1  0  0  0  0
  2  1  1  0  0  0  0
  3  2  1  0  0  0  0
  5 11  1  0  0  0  0
  5  2  1  0  0  0  0
  6  5  2  0  0  0  0
  7  8  2  0  0  0  0
  7  6  1  0  0  0  0
  8 10  1  0  0  0  0
  9  8  1  0  0  0  0
 10 12  1  0  0  0  0
 10 11  2  0  0  0  0
 12 13  2  0  0  0  0
 14 12  2  0  0  0  0
 15 16  1  0  0  0  0
 15 24  1  0  0  0  0
 17 15  1  0  0  0  0
 18 17  2  0  0  0  0
 20 22  1  0  0  0  0
 20 26  1  0  0  0  0
 20 19  1  0  0  0  0
 21 20  1  0  0  0  0
 23 24  1  0  0  0  0
 23 22  1  0  0  0  0
 25 24  1  0  0  0  0
 25 26  1  0  0  0  0
M  END
>  <MODEL>
1

>  <REMARK>
 VINA RESULT:      -1.8      0.000      0.000
  Name = ZINC09915296
                            x       y       z     vdW  Elec       q    Type
                         _______ _______ _______ _____ _____    ______ ____

>  <TORSDO>
F 4

>  <vina_score>
-1.8

$$$$
ZINC17255921
 OpenBabel01081722453D

 35 37  0  0  1  0  0  0  0  0999 V2000
    7.0150   11.5490    0.5060 C   0  0  0  0  0  0  0  0  0  0  0  0
    5.9190   10.9170    1.0800 C   0  0  0  0  0  0  0  0  0  0  0  0
    6.0540   10.2420    2.2780 C   0  0  0  0  0  0  0  0  0  0  0  0
    7.2760   10.2010    2.9200 C   0  0  0  0  0  0  0  0  0  0  0  0
    8.3810   10.8380    2.3540 C   0  0  0  0  0  0  0  0  0  0  0  0
    8.2460   11.5140    1.1410 C   0  0  0  0  0  0  0  0  0  0  0  0
    7.8370   12.1340   -1.6490 C   0  0  0  0  0  0  0  0  0  0  0  0
    6.8740   12.2270   -0.7100 N   0  0  0  0  0  0  0  0  0  0  0  0
    6.0720   12.7710   -0.8810 H   0  0  0  0  0  0  0  0  0  0  0  0
    8.8630   11.5320   -1.4080 O   0  0  0  0  0  0  0  0  0  0  0  0
    7.6370   12.7710   -2.9990 C   0  0  0  0  0  0  0  0  0  0  0  0
   10.2670   14.7860   -1.2170 C   0  0  0  0  0  0  0  0  0  0  0  0
   10.7350   14.0620   -2.2210 N   0  0  0  0  0  0  0  0  0  0  0  0
   10.0040   13.6180   -3.2100 C   0  0  0  0  0  0  0  0  0  0  0  0
    8.5340   14.0050   -3.1200 C   0  0  2  0  0  0  0  0  0  0  0  0
   10.4590   12.9540   -4.1220 O   0  0  0  0  0  0  0  0  0  0  0  0
    8.5730   14.9620   -1.5520 S   0  0  0  0  0  0  0  0  0  0  0  0
   10.9630   15.2830   -0.1540 N   0  0  0  0  0  0  0  0  0  0  0  0
    9.5860   14.9580    1.8400 C   0  0  0  0  0  0  0  0  0  0  0  0
   10.2560   15.9810    0.9220 C   0  0  0  0  0  0  0  0  0  0  0  0
   12.4170   15.1180   -0.0890 C   0  0  0  0  0  0  0  0  0  0  0  0
   12.7490   13.8070    0.6270 C   0  0  0  0  0  0  0  0  0  0  0  0
    9.6920   10.7960    3.0380 C   0  0  0  0  0  0  0  0  0  0  0  0
   10.7830   11.3100    2.4380 N   0  0  0  0  0  0  0  0  0  0  0  0
   10.7070   11.7130    1.5430 H   0  0  0  0  0  0  0  0  0  0  0  0
    9.7850   10.2960    4.1440 O   0  0  0  0  0  0  0  0  0  0  0  0
   12.0240   11.2690    3.0860 N   0  0  0  0  0  0  0  0  0  0  0  0
   12.5310   10.4250    3.1260 H   0  0  0  0  0  0  0  0  0  0  0  0
   12.5250   12.3830    3.6560 C   0  0  0  0  0  0  0  0  0  0  0  0
   11.8970   13.4250    3.6070 O   0  0  0  0  0  0  0  0  0  0  0  0
   13.8240   12.3400    4.3350 C   0  0  0  0  0  0  0  0  0  0  0  0
   14.5020   11.2130    4.6990 C   0  0  0  0  0  0  0  0  0  0  0  0
   15.6900   11.6380    5.3140 C   0  0  0  0  0  0  0  0  0  0  0  0
   15.6850   12.9890    5.2980 C   0  0  0  0  0  0  0  0  0  0  0  0
   14.5610   13.4090    4.7020 O   0  0  0  0  0  0  0  0  0  0  0  0
  1  2  2  0  0  0  0
  1  6  1  0  0  0  0
  2  3  1  0  0  0  0
  3  4  2  0  0  0  0
  5  4  1  0  0  0  0
  5 23  1  0  0  0  0
  6  5  2  0  0  0  0
  7 10  2  0  0  0  0
  7  8  1  0  0  0  0
  8  1  1  0  0  0  0
  9  8  1  0  0  0  0
 11  7  1  0  0  0  0
 12 18  1  0  0  0  0
 13 12  2  0  0  0  0
 14 15  1  0  0  0  0
 14 13  1  0  0  0  0
 15 11  1  1  0  0  0
 15 17  1  0  0  0  0
 16 14  2  0  0  0  0
 17 12  1  0  0  0  0
 18 21  1  0  0  0  0
 18 20  1  0  0  0  0
 20 19  1  0  0  0  0
 21 22  1  0  0  0  0
 23 26  2  0  0  0  0
 24 23  1  0  0  0  0
 24 27  1  0  0  0  0
 25 24  1  0  0  0  0
 27 28  1  0  0  0  0
 27 29  1  0  0  0  0
 29 31  1  0  0  0  0
 30 29  2  0  0  0  0
 31 32  2  0  0  0  0
 31 35  1  0  0  0  0
 32 33  1  0  0  0  0
 34 33  2  0  0  0  0
 35 34  1  0  0  0  0
M  END
>  <MODEL>
1

>  <REMARK>
 VINA RESULT:      -1.5      0.000      0.000
  Name = ZINC17255921
                            x       y       z     vdW  Elec       q    Type
                         _______ _______ _______ _____ _____    ______ ____

>  <TORSDO>
F 9

>  <vina_score>
-1.5

$$$$
ZINC15636405
 OpenBabel01081722403D

 36 39  0  0  1  0  0  0  0  0999 V2000
   10.5530   12.5900   -1.4760 C   0  0  0  0  0  0  0  0  0  0  0  0
   10.7060   11.5940   -0.6580 N   0  0  0  0  0  0  0  0  0  0  0  0
   13.0640   15.9970   -1.1660 C   0  0  0  0  0  0  0  0  0  0  0  0
   12.1720   15.8930   -2.2180 C   0  0  0  0  0  0  0  0  0  0  0  0
   11.3520   14.7890   -2.3250 C   0  0  0  0  0  0  0  0  0  0  0  0
   11.4250   13.7740   -1.3680 C   0  0  0  0  0  0  0  0  0  0  0  0
   12.3240   13.8890   -0.3050 C   0  0  0  0  0  0  0  0  0  0  0  0
   13.1410   14.9960   -0.2130 C   0  0  0  0  0  0  0  0  0  0  0  0
   11.7800   11.5840    0.2400 N   0  0  0  0  0  0  0  0  0  0  0  0
   12.6800   11.8380   -0.0670 H   0  0  0  0  0  0  0  0  0  0  0  0
   11.5820   11.2270    1.5240 C   0  0  0  0  0  0  0  0  0  0  0  0
   10.4700   10.9130    1.9030 O   0  0  0  0  0  0  0  0  0  0  0  0
   12.7160   11.2170    2.4730 C   0  0  0  0  0  0  0  0  0  0  0  0
   13.6220   10.1550    2.4710 C   0  0  0  0  0  0  0  0  0  0  0  0
   14.6810   10.1540    3.3550 C   0  0  0  0  0  0  0  0  0  0  0  0
   14.8390   11.1980    4.2510 C   0  0  0  0  0  0  0  0  0  0  0  0
   13.9440   12.2530    4.2580 C   0  0  0  0  0  0  0  0  0  0  0  0
   12.8840   12.2680    3.3750 C   0  0  0  0  0  0  0  0  0  0  0  0
   14.1240   13.3670    5.2150 N   0  0  0  0  0  0  0  0  0  0  0  0
   13.1580   14.0040    5.5970 O   0  0  0  0  0  0  0  0  0  0  0  0
   15.2380   13.6490    5.6200 O   0  0  0  0  0  0  0  0  0  0  0  0
    9.4830   12.5360   -2.5370 C   0  0  0  0  0  0  0  0  0  0  0  0
    8.1340   12.9100   -1.9200 C   0  0  1  0  0  0  0  0  0  0  0  0
    8.2240   12.8080   -0.4190 C   0  0  1  0  0  0  0  0  0  0  0  0
    7.6020   11.9190    0.3650 C   0  0  0  0  0  0  0  0  0  0  0  0
    7.8950   12.1550    1.6990 N   0  0  0  0  0  0  0  0  0  0  0  0
    7.9060   11.4950    2.4290 H   0  0  0  0  0  0  0  0  0  0  0  0
    8.1770   13.5600    1.8010 C   0  0  1  0  0  0  0  0  0  0  0  0
    9.0280   14.0910    2.9050 C   0  0  0  0  0  0  0  0  0  0  0  0
    9.6930   15.2360    2.6000 C   0  0  0  0  0  0  0  0  0  0  0  0
    9.4820   15.8860    1.2900 C   0  0  0  0  0  0  0  0  0  0  0  0
    9.1580   15.1340    0.2160 C   0  0  0  0  0  0  0  0  0  0  0  0
    9.0300   13.6770    0.4920 C   0  0  2  0  0  0  0  0  0  0  0  0
    7.7780   14.3220   -2.3080 C   0  0  0  0  0  0  0  0  0  0  0  0
    8.4850   14.9550   -3.2570 O   0  0  0  0  0  0  0  0  0  0  0  0
    6.8560   14.8840   -1.7660 O   0  0  0  0  0  0  0  0  0  0  0  0
  1  6  1  0  0  0  0
  1  2  2  0  0  0  0
  2  9  1  0  0  0  0
  3  8  2  0  0  0  0
  4  3  1  0  0  0  0
  5  4  2  0  0  0  0
  5  6  1  0  0  0  0
  6  7  2  0  0  0  0
  7  8  1  0  0  0  0
  9 11  1  0  0  0  0
 10  9  1  0  0  0  0
 11 12  2  0  0  0  0
 11 13  1  0  0  0  0
 13 18  1  0  0  0  0
 14 13  2  0  0  0  0
 14 15  1  0  0  0  0
 15 16  2  0  0  0  0
 16 17  1  0  0  0  0
 17 19  1  0  0  0  0
 18 17  2  0  0  0  0
 19 20  2  0  0  0  0
 19 21  2  0  0  0  0
 22  1  1  0  0  0  0
 23 22  1  6  0  0  0
 23 24  1  0  0  0  0
 24 25  1  6  0  0  0
 24 33  1  0  0  0  0
 25 26  1  0  0  0  0
 26 27  1  0  0  0  0
 28 26  1  1  0  0  0
 28 29  1  0  0  0  0
 30 29  1  0  0  0  0
 31 30  1  0  0  0  0
 32 31  1  0  0  0  0
 33 32  1  6  0  0  0
 33 28  1  0  0  0  0
 34 23  1  0  0  0  0
 34 36  1  0  0  0  0
 35 34  2  0  0  0  0
M  END
>  <MODEL>
1

>  <REMARK>
 VINA RESULT:      -1.0      0.000      0.000
  Name = ZINC15636405
                            x       y       z     vdW  Elec       q    Type
                         _______ _______ _______ _____ _____    ______ ____

>  <TORSDO>
F 8

>  <vina_score>
-1.0

$$$$
ZINC27249941
 OpenBabel01081722523D

 35 37  0  0  0  0  0  0  0  0999 V2000
   11.3240   15.7360   -2.1390 C   0  0  0  0  0  0  0  0  0  0  0  0
    9.5880   13.9710   -2.7210 N   0  0  0  0  0  0  0  0  0  0  0  0
    8.6810   13.1950   -2.0270 C   0  0  0  0  0  0  0  0  0  0  0  0
    7.7500   12.2340   -2.3960 C   0  0  0  0  0  0  0  0  0  0  0  0
    6.9710   11.6320   -1.4300 C   0  0  0  0  0  0  0  0  0  0  0  0
    7.1120   11.9800   -0.0950 C   0  0  0  0  0  0  0  0  0  0  0  0
    8.0240   12.9240    0.2860 C   0  0  0  0  0  0  0  0  0  0  0  0
    8.8240   13.5470   -0.6750 C   0  0  0  0  0  0  0  0  0  0  0  0
    9.7940   14.4960   -0.6130 N   0  0  0  0  0  0  0  0  0  0  0  0
   10.2420   14.7410   -1.8100 C   0  0  0  0  0  0  0  0  0  0  0  0
    6.1050   11.1990    1.1220 S   0  0  0  0  0  0  0  0  0  0  0  0
    5.4070   10.1540    0.4600 O   0  0  0  0  0  0  0  0  0  0  0  0
    5.4350   12.2380    1.8220 O   0  0  0  0  0  0  0  0  0  0  0  0
    7.1230   10.4750    2.2080 N   0  0  0  0  0  0  0  0  0  0  0  0
    8.4990   10.1550    1.8210 C   0  0  0  0  0  0  0  0  0  0  0  0
    6.6480   10.1540    3.5570 C   0  0  0  0  0  0  0  0  0  0  0  0
   11.2030   13.4150   -4.4710 C   0  0  0  0  0  0  0  0  0  0  0  0
    9.8080   13.9640   -4.1700 C   0  0  0  0  0  0  0  0  0  0  0  0
   12.6780   15.1860   -1.6870 C   0  0  0  0  0  0  0  0  0  0  0  0
   12.4620   14.0660   -0.7010 C   0  0  0  0  0  0  0  0  0  0  0  0
   12.5880   14.2990    0.6200 N   0  0  0  0  0  0  0  0  0  0  0  0
   12.8950   15.1780    0.9390 H   0  0  0  0  0  0  0  0  0  0  0  0
   12.1750   12.9560   -1.0970 O   0  0  0  0  0  0  0  0  0  0  0  0
   12.2830   13.2890    1.5400 C   0  0  0  0  0  0  0  0  0  0  0  0
   13.0720   12.1470    1.6050 C   0  0  0  0  0  0  0  0  0  0  0  0
   12.7750   11.1460    2.5110 C   0  0  0  0  0  0  0  0  0  0  0  0
   11.6920   11.2750    3.3570 C   0  0  0  0  0  0  0  0  0  0  0  0
   10.8940   12.4190    3.3010 C   0  0  0  0  0  0  0  0  0  0  0  0
   11.1970   13.4300    2.3900 C   0  0  0  0  0  0  0  0  0  0  0  0
   10.3440   14.6700    2.3250 C   0  0  0  0  0  0  0  0  0  0  0  0
    9.7340   12.5600    4.2070 C   0  0  0  0  0  0  0  0  0  0  0  0
    8.6110   13.1660    3.7740 N   0  0  0  0  0  0  0  0  0  0  0  0
    7.8380   13.2610    4.3790 H   0  0  0  0  0  0  0  0  0  0  0  0
    8.5630   13.5150    2.8550 H   0  0  0  0  0  0  0  0  0  0  0  0
    9.7940   12.1290    5.3420 O   0  0  0  0  0  0  0  0  0  0  0  0
  1 10  1  0  0  0  0
  1 19  1  0  0  0  0
  2  3  1  0  0  0  0
  2 10  1  0  0  0  0
  3  8  1  0  0  0  0
  4  3  2  0  0  0  0
  4  5  1  0  0  0  0
  5  6  2  0  0  0  0
  6  7  1  0  0  0  0
  6 11  1  0  0  0  0
  8  9  1  0  0  0  0
  8  7  2  0  0  0  0
 10  9  2  0  0  0  0
 11 13  2  0  0  0  0
 11 14  1  0  0  0  0
 12 11  2  0  0  0  0
 14 16  1  0  0  0  0
 15 14  1  0  0  0  0
 17 18  1  0  0  0  0
 18  2  1  0  0  0  0
 19 20  1  0  0  0  0
 20 21  1  0  0  0  0
 21 22  1  0  0  0  0
 21 24  1  0  0  0  0
 23 20  2  0  0  0  0
 24 25  2  0  0  0  0
 24 29  1  0  0  0  0
 25 26  1  0  0  0  0
 26 27  2  0  0  0  0
 28 27  1  0  0  0  0
 28 31  1  0  0  0  0
 29 28  2  0  0  0  0
 30 29  1  0  0  0  0
 31 35  2  0  0  0  0
 32 31  1  0  0  0  0
 32 33  1  0  0  0  0
 34 32  1  0  0  0  0
M  END
>  <MODEL>
1

>  <REMARK>
 VINA RESULT:       0.2      0.000      0.000
  Name = ZINC27249941
                            x       y       z     vdW  Elec       q    Type
                         _______ _______ _______ _____ _____    ______ ____

>  <TORSDO>
F 8

>  <vina_score>
0.2

$$$$
ZINC27856025
 OpenBabel01081722393D

 36 39  0  0  1  0  0  0  0  0999 V2000
    8.8690   13.8220    2.0570 C   0  0  0  0  0  0  0  0  0  0  0  0
    9.8500   14.0490    3.0010 C   0  0  0  0  0  0  0  0  0  0  0  0
   10.2740   13.0170    3.8260 C   0  0  0  0  0  0  0  0  0  0  0  0
    9.7060   11.7550    3.7050 C   0  0  0  0  0  0  0  0  0  0  0  0
    8.7210   11.5280    2.7650 C   0  0  0  0  0  0  0  0  0  0  0  0
    8.2980   12.5620    1.9400 C   0  0  0  0  0  0  0  0  0  0  0  0
   11.2740   13.2460    4.7790 N   0  0  0  0  0  0  0  0  0  0  0  0
   11.0350   13.3440    5.7300 H   0  0  0  0  0  0  0  0  0  0  0  0
   12.5630   13.3360    4.3950 C   0  0  0  0  0  0  0  0  0  0  0  0
   13.5140   13.6490    5.2960 N   0  0  0  0  0  0  0  0  0  0  0  0
   13.2680   13.8140    6.2350 H   0  0  0  0  0  0  0  0  0  0  0  0
   12.8670   13.1320    3.2350 O   0  0  0  0  0  0  0  0  0  0  0  0
   14.9150   13.7460    4.8790 C   0  0  0  0  0  0  0  0  0  0  0  0
   15.5560   12.3570    4.9160 C   0  0  2  0  0  0  0  0  0  0  0  0
   15.3370   11.6260    3.5740 C   0  0  0  0  0  0  0  0  0  0  0  0
   15.1070   10.1540    3.9800 C   0  0  0  0  0  0  0  0  0  0  0  0
   15.2140   10.1690    5.5220 C   0  0  0  0  0  0  0  0  0  0  0  0
   14.9000   11.5270    5.9000 O   0  0  0  0  0  0  0  0  0  0  0  0
    7.2970   12.3320    0.9860 N   0  0  0  0  0  0  0  0  0  0  0  0
    6.5410   12.9570    0.9060 H   0  0  0  0  0  0  0  0  0  0  0  0
    7.3720   11.2570    0.1770 C   0  0  0  0  0  0  0  0  0  0  0  0
    8.3450   10.5340    0.2170 O   0  0  0  0  0  0  0  0  0  0  0  0
    6.2470   10.9520   -0.7770 C   0  0  0  0  0  0  0  0  0  0  0  0
    6.1420   12.0690   -1.8180 C   0  0  0  0  0  0  0  0  0  0  0  0
    7.4050   12.0800   -2.6820 C   0  0  0  0  0  0  0  0  0  0  0  0
    8.2900   13.1600   -2.2380 N   0  0  0  0  0  0  0  0  0  0  0  0
    9.6210   13.0240   -2.0540 C   0  0  0  0  0  0  0  0  0  0  0  0
   10.1020   14.3810   -1.6070 C   0  0  0  0  0  0  0  0  0  0  0  0
    8.8940   15.2090   -1.5850 N   0  0  0  0  0  0  0  0  0  0  0  0
   11.1420   14.9460   -2.5840 C   0  0  0  0  0  0  0  0  0  0  0  0
   12.1260   15.7270   -1.6740 C   0  0  0  0  0  0  0  0  0  0  0  0
   12.1990   14.8390   -0.4050 C   0  0  0  0  0  0  0  0  0  0  0  0
   10.7580   14.3130   -0.2270 C   0  0  0  0  0  0  0  0  0  0  0  0
   10.2870   12.0240   -2.2130 O   0  0  0  0  0  0  0  0  0  0  0  0
    7.8810   14.4070   -1.9700 C   0  0  0  0  0  0  0  0  0  0  0  0
    6.7260   14.7740   -2.0620 O   0  0  0  0  0  0  0  0  0  0  0  0
  1  2  1  0  0  0  0
  2  3  2  0  0  0  0
  3  7  1  0  0  0  0
  4  3  1  0  0  0  0
  5  4  2  0  0  0  0
  6  1  2  0  0  0  0
  6  5  1  0  0  0  0
  7  8  1  0  0  0  0
  9  7  1  0  0  0  0
  9 10  1  0  0  0  0
 10 11  1  0  0  0  0
 12  9  2  0  0  0  0
 13 10  1  0  0  0  0
 14 13  1  6  0  0  0
 14 18  1  0  0  0  0
 15 16  1  0  0  0  0
 15 14  1  0  0  0  0
 16 17  1  0  0  0  0
 17 18  1  0  0  0  0
 19  6  1  0  0  0  0
 20 19  1  0  0  0  0
 21 22  2  0  0  0  0
 21 19  1  0  0  0  0
 23 21  1  0  0  0  0
 24 23  1  0  0  0  0
 25 26  1  0  0  0  0
 25 24  1  0  0  0  0
 26 27  1  0  0  0  0
 26 35  1  0  0  0  0
 27 28  1  0  0  0  0
 28 29  1  0  0  0  0
 28 33  1  0  0  0  0
 30 31  1  0  0  0  0
 30 28  1  0  0  0  0
 31 32  1  0  0  0  0
 32 33  1  0  0  0  0
 34 27  2  0  0  0  0
 35 29  1  0  0  0  0
 36 35  2  0  0  0  0
M  END
>  <MODEL>
1

>  <REMARK>
 VINA RESULT:       1.5      0.000      0.000
  Name = ZINC27856025
                            x       y       z     vdW  Elec       q    Type
                         _______ _______ _______ _____ _____    ______ ____

>  <TORSDO>
F 8

>  <vina_score>
1.5

$$$$
ZINC25049844
 OpenBabel01081722333D

 35 37  0  0  0  0  0  0  0  0999 V2000
    9.6900   15.0090   -1.6820 N   0  0  0  0  0  0  0  0  0  0  0  0
    8.7280   15.1550   -1.5330 H   0  0  0  0  0  0  0  0  0  0  0  0
   10.1840   14.9950   -2.9360 C   0  0  0  0  0  0  0  0  0  0  0  0
   11.3680   14.8150   -3.1200 O   0  0  0  0  0  0  0  0  0  0  0  0
   10.9750   13.5770   -0.2800 C   0  0  0  0  0  0  0  0  0  0  0  0
   10.5470   14.8170   -0.5900 N   0  0  0  0  0  0  0  0  0  0  0  0
   10.8360   15.5870   -0.0500 H   0  0  0  0  0  0  0  0  0  0  0  0
   10.6180   12.6250   -0.9490 O   0  0  0  0  0  0  0  0  0  0  0  0
   13.5270   15.2160    0.3830 C   0  0  0  0  0  0  0  0  0  0  0  0
   13.0200   14.0670    1.2160 C   0  0  0  0  0  0  0  0  0  0  0  0
   11.8700   13.3760    0.8590 C   0  0  0  0  0  0  0  0  0  0  0  0
   11.7900   12.1700    2.1750 S   0  0  0  0  0  0  0  0  0  0  0  0
   13.2120   12.6740    3.0320 C   0  0  0  0  0  0  0  0  0  0  0  0
   13.6470   13.6880    2.2990 N   0  0  0  0  0  0  0  0  0  0  0  0
   13.7560   12.1500    4.1870 N   0  0  0  0  0  0  0  0  0  0  0  0
   14.9990   12.8460    4.5470 C   0  0  0  0  0  0  0  0  0  0  0  0
   15.5340   12.2740    5.8630 C   0  0  0  0  0  0  0  0  0  0  0  0
   15.7250   10.8640    5.7210 O   0  0  0  0  0  0  0  0  0  0  0  0
   14.5340   10.1550    5.3710 C   0  0  0  0  0  0  0  0  0  0  0  0
   13.9880   10.7050    4.0500 C   0  0  0  0  0  0  0  0  0  0  0  0
    9.2620   15.2020   -4.1100 C   0  0  0  0  0  0  0  0  0  0  0  0
    7.9040   14.5630   -3.8100 C   0  0  0  0  0  0  0  0  0  0  0  0
    8.0530   13.0400   -3.7810 C   0  0  0  0  0  0  0  0  0  0  0  0
    8.3350   12.6030   -2.4110 N   0  0  0  0  0  0  0  0  0  0  0  0
    9.2670   12.4800   -2.1170 H   0  0  0  0  0  0  0  0  0  0  0  0
    7.3210   12.3690   -1.5560 C   0  0  0  0  0  0  0  0  0  0  0  0
    6.1710   12.5220   -1.9190 O   0  0  0  0  0  0  0  0  0  0  0  0
    7.6060   11.9280   -0.1760 C   0  0  0  0  0  0  0  0  0  0  0  0
    7.8460   12.8730    0.8260 C   0  0  0  0  0  0  0  0  0  0  0  0
    8.1120   12.4580    2.1120 C   0  0  0  0  0  0  0  0  0  0  0  0
    8.1420   11.1000    2.4130 C   0  0  0  0  0  0  0  0  0  0  0  0
    7.9040   10.1580    1.4190 C   0  0  0  0  0  0  0  0  0  0  0  0
    7.6380   10.5660    0.1310 C   0  0  0  0  0  0  0  0  0  0  0  0
    8.4040   10.6960    3.6820 O   0  0  0  0  0  0  0  0  0  0  0  0
    9.1940   11.5690    4.4910 C   0  0  0  0  0  0  0  0  0  0  0  0
  1  2  1  0  0  0  0
  1  6  1  0  0  0  0
  3  1  1  0  0  0  0
  4  3  2  0  0  0  0
  5 11  1  0  0  0  0
  6  5  1  0  0  0  0
  6  7  1  0  0  0  0
  8  5  2  0  0  0  0
  9 10  1  0  0  0  0
 10 14  1  0  0  0  0
 11 10  2  0  0  0  0
 11 12  1  0  0  0  0
 12 13  1  0  0  0  0
 13 15  1  0  0  0  0
 14 13  2  0  0  0  0
 15 16  1  0  0  0  0
 16 17  1  0  0  0  0
 18 17  1  0  0  0  0
 19 18  1  0  0  0  0
 20 15  1  0  0  0  0
 20 19  1  0  0  0  0
 21 22  1  0  0  0  0
 21  3  1  0  0  0  0
 22 23  1  0  0  0  0
 23 24  1  0  0  0  0
 24 25  1  0  0  0  0
 24 26  1  0  0  0  0
 26 28  1  0  0  0  0
 27 26  2  0  0  0  0
 28 33  2  0  0  0  0
 28 29  1  0  0  0  0
 29 30  2  0  0  0  0
 30 31  1  0  0  0  0
 31 34  1  0  0  0  0
 32 31  2  0  0  0  0
 33 32  1  0  0  0  0
 34 35  1  0  0  0  0
M  END
>  <MODEL>
1

>  <REMARK>
 VINA RESULT:       2.0      0.000      0.000
  Name = ZINC25049844
                            x       y       z     vdW  Elec       q    Type
                         _______ _______ _______ _____ _____    ______ ____

>  <TORSDO>
F 9

>  <vina_score>
2.0

$$$$
ZINC02905111
 OpenBabel01081722433D

 28 29  0  0  0  0  0  0  0  0999 V2000
   11.7430   12.8430   -1.5470 N   0  0  0  0  0  0  0  0  0  0  0  0
   12.0490   11.9100   -1.6320 H   0  0  0  0  0  0  0  0  0  0  0  0
   11.8180   13.4700   -0.3560 C   0  0  0  0  0  0  0  0  0  0  0  0
   11.4420   14.6190   -0.2520 O   0  0  0  0  0  0  0  0  0  0  0  0
   12.3660   12.7520    0.8320 C   0  0  0  0  0  0  0  0  0  0  0  0
   11.5670   11.9460    1.5600 N   0  0  0  0  0  0  0  0  0  0  0  0
   10.6410   11.7800    1.2700 H   0  0  0  0  0  0  0  0  0  0  0  0
   13.5310   12.8930    1.1440 O   0  0  0  0  0  0  0  0  0  0  0  0
   12.0540   11.3450    2.7250 C   0  0  0  0  0  0  0  0  0  0  0  0
   13.4190   11.3160    2.9750 C   0  0  0  0  0  0  0  0  0  0  0  0
   13.8970   10.7240    4.1330 C   0  0  0  0  0  0  0  0  0  0  0  0
   13.0140   10.1530    5.0380 C   0  0  0  0  0  0  0  0  0  0  0  0
   11.6540   10.1770    4.7900 C   0  0  0  0  0  0  0  0  0  0  0  0
   11.1690   10.7710    3.6370 C   0  0  0  0  0  0  0  0  0  0  0  0
   15.2340   10.7000    4.3810 O   0  0  0  0  0  0  0  0  0  0  0  0
   15.6680   11.1930    5.6500 C   0  0  0  0  0  0  0  0  0  0  0  0
    9.8310   10.7950    3.3930 O   0  0  0  0  0  0  0  0  0  0  0  0
    8.9850   10.1730    4.3630 C   0  0  0  0  0  0  0  0  0  0  0  0
   11.2300   13.5160   -2.6630 N   0  0  0  0  0  0  0  0  0  0  0  0
   11.8100   13.6960   -3.4390 H   0  0  0  0  0  0  0  0  0  0  0  0
    5.9320   15.2920   -2.4810 C   0  0  0  0  0  0  0  0  0  0  0  0
    7.3740   14.9870   -2.3820 N   0  0  0  0  0  0  0  0  0  0  0  0
    7.7990   15.6140   -1.6990 H   0  0  0  0  0  0  0  0  0  0  0  0
    7.5680   13.5920   -1.9400 C   0  0  0  0  0  0  0  0  0  0  0  0
    9.0260   13.2410   -1.9920 C   0  0  0  0  0  0  0  0  0  0  0  0
    9.9040   13.9280   -2.6770 C   0  0  0  0  0  0  0  0  0  0  0  0
    9.5370   15.1460   -3.4780 C   0  0  0  0  0  0  0  0  0  0  0  0
    8.0210   15.1860   -3.6930 C   0  0  0  0  0  0  0  0  0  0  0  0
  1  3  1  0  0  0  0
  2  1  1  0  0  0  0
  3  4  2  0  0  0  0
  3  5  1  0  0  0  0
  5  8  2  0  0  0  0
  5  6  1  0  0  0  0
  6  9  1  0  0  0  0
  7  6  1  0  0  0  0
  9 10  2  0  0  0  0
  9 14  1  0  0  0  0
 10 11  1  0  0  0  0
 11 15  1  0  0  0  0
 11 12  2  0  0  0  0
 13 12  1  0  0  0  0
 14 13  2  0  0  0  0
 15 16  1  0  0  0  0
 17 14  1  0  0  0  0
 17 18  1  0  0  0  0
 19  1  1  0  0  0  0
 20 19  1  0  0  0  0
 21 22  1  0  0  0  0
 22 24  1  0  0  0  0
 22 23  1  0  0  0  0
 25 24  1  0  0  0  0
 26 19  1  0  0  0  0
 26 25  2  0  0  0  0
 27 26  1  0  0  0  0
 28 27  1  0  0  0  0
 28 22  1  0  0  0  0
M  END
>  <MODEL>
1

>  <REMARK>
 VINA RESULT:       2.8      0.000      0.000
  Name = ZINC02905111
                            x       y       z     vdW  Elec       q    Type
                         _______ _______ _______ _____ _____    ______ ____

>  <TORSDO>
F 6

>  <vina_score>
2.8

$$$$
ZINC19925920
 OpenBabel01081722383D

 37 40  0  0  0  0  0  0  0  0999 V2000
   10.8700   10.5640    3.5590 C   0  0  0  0  0  0  0  0  0  0  0  0
    9.9000   10.5230    4.5280 C   0  0  0  0  0  0  0  0  0  0  0  0
   10.5260   10.2680    5.6770 N   0  0  0  0  0  0  0  0  0  0  0  0
   11.7880   10.1540    5.4610 N   0  0  0  0  0  0  0  0  0  0  0  0
   12.0530   10.3160    4.2120 N   0  0  0  0  0  0  0  0  0  0  0  0
   13.3200   10.2540    3.6250 C   0  0  0  0  0  0  0  0  0  0  0  0
   14.5980   10.2260    4.3420 C   0  0  0  0  0  0  0  0  0  0  0  0
   15.5590   10.1660    3.4630 N   0  0  0  0  0  0  0  0  0  0  0  0
   14.9710   10.1540    2.1740 O   0  0  0  0  0  0  0  0  0  0  0  0
   13.5660   10.2050    2.3450 N   0  0  0  0  0  0  0  0  0  0  0  0
   14.7560   10.2580    5.7220 N   0  0  0  0  0  0  0  0  0  0  0  0
   15.1370   11.0560    6.1550 H   0  0  0  0  0  0  0  0  0  0  0  0
   14.4880    9.4840    6.2680 H   0  0  0  0  0  0  0  0  0  0  0  0
   11.4120   11.7640    1.5040 N   0  0  0  0  0  0  0  0  0  0  0  0
   12.0240   12.3330    2.0250 H   0  0  0  0  0  0  0  0  0  0  0  0
   10.6820   10.8150    2.1220 C   0  0  0  0  0  0  0  0  0  0  0  0
    9.8690   10.1660    1.4920 O   0  0  0  0  0  0  0  0  0  0  0  0
   11.2180   13.1410   -0.3770 C   0  0  0  0  0  0  0  0  0  0  0  0
   11.2990   11.9430    0.1190 N   0  0  0  0  0  0  0  0  0  0  0  0
    9.7720   13.7980   -3.7870 C   0  0  0  0  0  0  0  0  0  0  0  0
   10.9030   13.6830   -4.5800 C   0  0  0  0  0  0  0  0  0  0  0  0
   12.1300   13.3940   -4.0080 C   0  0  0  0  0  0  0  0  0  0  0  0
   12.2390   13.2170   -2.6450 C   0  0  0  0  0  0  0  0  0  0  0  0
   11.1060   13.3290   -1.8340 C   0  0  0  0  0  0  0  0  0  0  0  0
    9.8650   13.6160   -2.4130 C   0  0  0  0  0  0  0  0  0  0  0  0
    8.2750   15.4600   -4.5950 C   0  0  0  0  0  0  0  0  0  0  0  0
    8.5700   14.0830   -4.3560 O   0  0  0  0  0  0  0  0  0  0  0  0
    8.7560   13.7210   -1.6340 O   0  0  0  0  0  0  0  0  0  0  0  0
    7.6010   12.9870   -2.0450 C   0  0  0  0  0  0  0  0  0  0  0  0
    8.4200   10.7260    4.3320 C   0  0  0  0  0  0  0  0  0  0  0  0
    8.1530   11.0600    2.9260 N   0  0  0  0  0  0  0  0  0  0  0  0
    9.0060   10.8810    2.3960 H   0  0  0  0  0  0  0  0  0  0  0  0
    7.8140   12.4820    2.7770 C   0  0  0  0  0  0  0  0  0  0  0  0
    7.6030   12.7990    1.2950 C   0  0  0  0  0  0  0  0  0  0  0  0
    6.5850   11.9430    0.7700 O   0  0  0  0  0  0  0  0  0  0  0  0
    6.8830   10.5490    0.8970 C   0  0  0  0  0  0  0  0  0  0  0  0
    7.0870   10.2110    2.3760 C   0  0  0  0  0  0  0  0  0  0  0  0
  1  5  1  0  0  0  0
  1  2  2  0  0  0  0
  2  3  1  0  0  0  0
  4  3  2  0  0  0  0
  5  4  1  0  0  0  0
  6  5  1  0  0  0  0
  6  7  1  0  0  0  0
  7 11  1  0  0  0  0
  8  7  2  0  0  0  0
  9 10  1  0  0  0  0
  9  8  1  0  0  0  0
 10  6  2  0  0  0  0
 11 12  1  0  0  0  0
 11 13  1  0  0  0  0
 14 15  1  0  0  0  0
 14 16  1  0  0  0  0
 16  1  1  0  0  0  0
 17 16  2  0  0  0  0
 18 19  2  0  0  0  0
 19 14  1  0  0  0  0
 20 25  2  0  0  0  0
 21 22  2  0  0  0  0
 21 20  1  0  0  0  0
 22 23  1  0  0  0  0
 23 24  2  0  0  0  0
 24 18  1  0  0  0  0
 25 24  1  0  0  0  0
 25 28  1  0  0  0  0
 26 27  1  0  0  0  0
 27 20  1  0  0  0  0
 29 28  1  0  0  0  0
 30  2  1  0  0  0  0
 31 30  1  0  0  0  0
 32 31  1  0  0  0  0
 33 31  1  0  0  0  0
 34 33  1  0  0  0  0
 35 36  1  0  0  0  0
 35 34  1  0  0  0  0
 36 37  1  0  0  0  0
 37 31  1  0  0  0  0
M  END
>  <MODEL>
1

>  <REMARK>
 VINA RESULT:       3.2      0.000      0.000
  Name = ZINC19925920
                            x       y       z     vdW  Elec       q    Type
                         _______ _______ _______ _____ _____    ______ ____

>  <TORSDO>
F 9

>  <vina_score>
3.2

$$$$
ZINC13216929
 OpenBabel01081722333D

 29 30  0  0  0  0  0  0  0  0999 V2000
   10.1360   12.5440    1.5740 C   0  0  0  0  0  0  0  0  0  0  0  0
   10.1010   12.8790    2.9240 C   0  0  0  0  0  0  0  0  0  0  0  0
   10.9930   12.3040    3.8000 C   0  0  0  0  0  0  0  0  0  0  0  0
   11.9340   11.3820    3.3330 C   0  0  0  0  0  0  0  0  0  0  0  0
   11.9690   11.0510    1.9760 C   0  0  0  0  0  0  0  0  0  0  0  0
   11.0710   11.6250    1.1050 C   0  0  0  0  0  0  0  0  0  0  0  0
    9.4750   13.1060   -0.6360 C   0  0  0  0  0  0  0  0  0  0  0  0
    9.2310   13.1280    0.6890 N   0  0  0  0  0  0  0  0  0  0  0  0
    8.4140   13.5560    1.0320 H   0  0  0  0  0  0  0  0  0  0  0  0
   10.4330   12.4940   -1.0680 O   0  0  0  0  0  0  0  0  0  0  0  0
    9.5660   12.9810   -3.7320 C   0  0  0  0  0  0  0  0  0  0  0  0
    8.6250   13.7630   -2.9270 N   0  0  0  0  0  0  0  0  0  0  0  0
    7.6370   14.5620   -3.3930 C   0  0  0  0  0  0  0  0  0  0  0  0
    7.0090   15.0920   -2.3150 C   0  0  0  0  0  0  0  0  0  0  0  0
    7.5960   14.6250   -1.2170 N   0  0  0  0  0  0  0  0  0  0  0  0
    8.5800   13.8220   -1.5620 C   0  0  0  0  0  0  0  0  0  0  0  0
    5.8620   16.0280   -2.3540 N   0  0  0  0  0  0  0  0  0  0  0  0
    5.5190   16.5280   -3.4100 O   0  0  0  0  0  0  0  0  0  0  0  0
    5.2610   16.2980   -1.3280 O   0  0  0  0  0  0  0  0  0  0  0  0
   12.8910   10.7620    4.2710 C   0  0  0  0  0  0  0  0  0  0  0  0
   14.2150   10.8500    4.0380 N   0  0  0  0  0  0  0  0  0  0  0  0
   14.5440   11.3310    3.2440 H   0  0  0  0  0  0  0  0  0  0  0  0
   12.4830   10.1680    5.2510 O   0  0  0  0  0  0  0  0  0  0  0  0
   15.1650   10.2310    4.9650 C   0  0  0  0  0  0  0  0  0  0  0  0
   15.7300   11.2980    5.9050 C   0  0  0  0  0  0  0  0  0  0  0  0
   15.5660   12.6250    5.2760 N   0  0  0  0  0  0  0  0  0  0  0  0
   16.3170   13.2380    5.5940 H   0  0  0  0  0  0  0  0  0  0  0  0
   14.2680   13.2130    5.6670 C   0  0  0  0  0  0  0  0  0  0  0  0
   15.6410   12.4980    3.8050 C   0  0  0  0  0  0  0  0  0  0  0  0
  1  2  1  0  0  0  0
  2  3  2  0  0  0  0
  4  3  1  0  0  0  0
  4 20  1  0  0  0  0
  5  4  2  0  0  0  0
  6  1  2  0  0  0  0
  6  5  1  0  0  0  0
  7  8  1  0  0  0  0
  8  9  1  0  0  0  0
  8  1  1  0  0  0  0
 10  7  2  0  0  0  0
 11 12  1  0  0  0  0
 12 16  1  0  0  0  0
 13 12  1  0  0  0  0
 13 14  2  0  0  0  0
 14 15  1  0  0  0  0
 16 15  2  0  0  0  0
 16  7  1  0  0  0  0
 17 14  1  0  0  0  0
 17 19  2  0  0  0  0
 18 17  2  0  0  0  0
 20 23  2  0  0  0  0
 21 20  1  0  0  0  0
 21 24  1  0  0  0  0
 22 21  1  0  0  0  0
 24 25  1  0  0  0  0
 26 27  1  0  0  0  0
 26 28  1  0  0  0  0
 26 25  1  0  0  0  0
 29 26  1  0  0  0  0
M  END
>  <MODEL>
1

>  <REMARK>
 VINA RESULT:      11.6      0.000      0.000
  Name = ZINC13216929
                            x       y       z     vdW  Elec       q    Type
                         _______ _______ _______ _____ _____    ______ ____

>  <TORSDO>
F 7

>  <vina_score>
11.6

$$$$
ZINC04661650
 OpenBabel01081722363D

 30 32  0  0  1  0  0  0  0  0999 V2000
    9.7510   11.9030    0.3410 C   0  0  0  0  0  0  0  0  0  0  0  0
   10.7950   11.5710    1.1810 C   0  0  0  0  0  0  0  0  0  0  0  0
   12.0030   12.2510    1.0890 C   0  0  0  0  0  0  0  0  0  0  0  0
   12.1590   13.2650    0.1530 C   0  0  0  0  0  0  0  0  0  0  0  0
   11.1150   13.5960   -0.6870 C   0  0  0  0  0  0  0  0  0  0  0  0
    9.9080   12.9160   -0.5950 C   0  0  0  0  0  0  0  0  0  0  0  0
   13.0600   11.9150    1.9410 N   0  0  0  0  0  0  0  0  0  0  0  0
   13.3130   10.4680    1.9240 C   0  0  0  0  0  0  0  0  0  0  0  0
   14.5250   10.1540    2.8050 C   0  0  0  0  0  0  0  0  0  0  0  0
   14.2440   10.6120    4.1820 N   0  0  0  0  0  0  0  0  0  0  0  0
   13.4050   10.1420    4.5230 H   0  0  0  0  0  0  0  0  0  0  0  0
   14.0150   12.0730    4.1900 C   0  0  0  0  0  0  0  0  0  0  0  0
   12.8040   12.3860    3.3100 C   0  0  0  0  0  0  0  0  0  0  0  0
   15.3780   10.2730    5.0680 C   0  0  0  0  0  0  0  0  0  0  0  0
   15.7310   11.5040    5.9050 C   0  0  0  0  0  0  0  0  0  0  0  0
   15.7300   12.6640    5.0700 O   0  0  0  0  0  0  0  0  0  0  0  0
   16.6260   13.0360    5.0340 H   0  0  0  0  0  0  0  0  0  0  0  0
    8.8480   13.2540   -1.4470 N   0  0  0  0  0  0  0  0  0  0  0  0
    8.5040   12.5930   -2.0910 H   0  0  0  0  0  0  0  0  0  0  0  0
    8.2970   14.4830   -1.3840 C   0  0  0  0  0  0  0  0  0  0  0  0
    8.6630   15.2680   -0.5370 O   0  0  0  0  0  0  0  0  0  0  0  0
    7.2280   14.8800   -2.3700 C   0  0  1  0  0  0  0  0  0  0  0  0
    6.2020   15.7820   -1.6780 C   0  0  0  0  0  0  0  0  0  0  0  0
    5.2870   16.3980   -2.6960 C   0  0  0  0  0  0  0  0  0  0  0  0
    5.5440   16.4530   -3.9640 C   0  0  0  0  0  0  0  0  0  0  0  0
    6.7880   15.8990   -4.5940 C   0  0  0  0  0  0  0  0  0  0  0  0
    7.8600   15.6640   -3.5270 C   0  0  2  0  0  0  0  0  0  0  0  0
    8.9950   14.8680   -4.1180 C   0  0  0  0  0  0  0  0  0  0  0  0
    8.7940   13.6000   -4.5070 O   0  0  0  0  0  0  0  0  0  0  0  0
   10.0860   15.3720   -4.2410 O   0  0  0  0  0  0  0  0  0  0  0  0
  1  2  2  0  0  0  0
  3  2  1  0  0  0  0
  3  7  1  0  0  0  0
  4  3  2  0  0  0  0
  5  6  2  0  0  0  0
  5  4  1  0  0  0  0
  6  1  1  0  0  0  0
  7 13  1  0  0  0  0
  8  7  1  0  0  0  0
  8  9  1  0  0  0  0
  9 10  1  0  0  0  0
 10 12  1  0  0  0  0
 10 11  1  0  0  0  0
 10 14  1  0  0  0  0
 13 12  1  0  0  0  0
 14 15  1  0  0  0  0
 16 15  1  0  0  0  0
 17 16  1  0  0  0  0
 18 20  1  0  0  0  0
 18  6  1  0  0  0  0
 19 18  1  0  0  0  0
 20 21  2  0  0  0  0
 22 23  1  0  0  0  0
 22 20  1  1  0  0  0
 24 23  1  0  0  0  0
 25 24  2  0  0  0  0
 26 25  1  0  0  0  0
 26 27  1  0  0  0  0
 27 28  1  6  0  0  0
 27 22  1  0  0  0  0
 29 28  2  0  0  0  0
 30 28  1  0  0  0  0
M  END
>  <MODEL>
1

>  <REMARK>
 VINA RESULT:      18.4      0.000      0.000
  Name = ZINC04661650
                            x       y       z     vdW  Elec       q    Type
                         _______ _______ _______ _____ _____    ______ ____

>  <TORSDO>
F 7

>  <vina_score>
18.4

$$$$
ZINC30516950
 OpenBabel01081722323D

 28 30  0  0  0  0  0  0  0  0999 V2000
    9.7090   13.2390    2.4960 C   0  0  0  0  0  0  0  0  0  0  0  0
    9.1960   14.4680    2.7010 N   0  0  0  0  0  0  0  0  0  0  0  0
    9.4430   14.9770    3.5080 H   0  0  0  0  0  0  0  0  0  0  0  0
    9.4020   12.6090    1.5030 O   0  0  0  0  0  0  0  0  0  0  0  0
   12.4400   11.7600    4.4170 C   0  0  0  0  0  0  0  0  0  0  0  0
   11.9620   12.2150    3.2160 C   0  0  0  0  0  0  0  0  0  0  0  0
   10.6490   12.6580    3.4780 C   0  0  0  0  0  0  0  0  0  0  0  0
   10.4150   12.4610    4.7610 N   0  0  0  0  0  0  0  0  0  0  0  0
   11.4390   11.9350    5.3290 N   0  0  0  0  0  0  0  0  0  0  0  0
   11.4940   11.6930    6.2820 H   0  0  0  0  0  0  0  0  0  0  0  0
   15.7330   10.1670    4.4400 C   0  0  0  0  0  0  0  0  0  0  0  0
   14.5500   10.5320    3.7690 C   0  0  0  0  0  0  0  0  0  0  0  0
   13.7750   11.1910    4.6740 C   0  0  0  0  0  0  0  0  0  0  0  0
   14.4420   11.2360    5.8430 O   0  0  0  0  0  0  0  0  0  0  0  0
   15.6250   10.6130    5.7060 C   0  0  0  0  0  0  0  0  0  0  0  0
    8.3100   15.0220    1.7670 N   0  0  0  0  0  0  0  0  0  0  0  0
    7.5250   15.5290    2.0750 H   0  0  0  0  0  0  0  0  0  0  0  0
    8.5330   14.8590    0.4480 C   0  0  0  0  0  0  0  0  0  0  0  0
    9.5040   14.2320    0.0680 O   0  0  0  0  0  0  0  0  0  0  0  0
    7.6040   15.4380   -0.5290 C   0  0  0  0  0  0  0  0  0  0  0  0
    7.1820   14.8460   -1.7010 C   0  0  0  0  0  0  0  0  0  0  0  0
    6.3050   15.7430   -2.3200 C   0  0  0  0  0  0  0  0  0  0  0  0
    6.2160   16.8450   -1.5370 C   0  0  0  0  0  0  0  0  0  0  0  0
    7.0010   16.6720   -0.4460 N   0  0  0  0  0  0  0  0  0  0  0  0
    7.1200   17.3210    0.2850 H   0  0  0  0  0  0  0  0  0  0  0  0
    5.6030   15.5280   -3.6050 N   0  0  0  0  0  0  0  0  0  0  0  0
    5.3850   14.3960   -3.9980 O   0  0  0  0  0  0  0  0  0  0  0  0
    5.2430   16.4820   -4.2700 O   0  0  0  0  0  0  0  0  0  0  0  0
  1  2  1  0  0  0  0
  1  7  1  0  0  0  0
  2  3  1  0  0  0  0
  4  1  2  0  0  0  0
  5 13  1  0  0  0  0
  5  9  1  0  0  0  0
  6  7  1  0  0  0  0
  6  5  2  0  0  0  0
  7  8  2  0  0  0  0
  8  9  1  0  0  0  0
  9 10  1  0  0  0  0
 11 15  2  0  0  0  0
 12 11  1  0  0  0  0
 12 13  2  0  0  0  0
 13 14  1  0  0  0  0
 15 14  1  0  0  0  0
 16 17  1  0  0  0  0
 16  2  1  0  0  0  0
 18 16  1  0  0  0  0
 19 18  2  0  0  0  0
 20 24  1  0  0  0  0
 20 18  1  0  0  0  0
 21 20  2  0  0  0  0
 22 21  1  0  0  0  0
 22 23  2  0  0  0  0
 23 24  1  0  0  0  0
 24 25  1  0  0  0  0
 26 22  1  0  0  0  0
 27 26  2  0  0  0  0
 28 26  2  0  0  0  0
M  END
>  <MODEL>
1

>  <REMARK>
 VINA RESULT:      36.8      0.000      0.000
  Name = ZINC30516950
                            x       y       z     vdW  Elec       q    Type
                         _______ _______ _______ _____ _____    ______ ____

>  <TORSDO>
F 5

>  <vina_score>
36.8

$$$$
