ZINC06157444
  SciTegic06141217593D

 43 45  0  0  1  0            999 V2000
    1.1873    3.5946   -0.0908 C   0  0  0  0  0  0  0  0  0  0  0  0
    1.1744    2.0910    0.0099 C   0  0  0  0  0  0  0  0  0  0  0  0
   -0.0289    1.4087    0.0193 C   0  0  0  0  0  0  0  0  0  0  0  0
   -0.0405   -0.0229   -0.0124 C   0  0  0  0  0  0  0  0  0  0  0  0
   -0.0497   -1.1586   -0.0376 N   0  0  0  0  0  0  0  0  0  0  0  0
   -1.2492    2.1258    0.0543 C   0  0  0  0  0  0  0  0  0  0  0  0
   -1.2431    3.3381   -0.0143 O   0  0  0  0  0  0  0  0  0  0  0  0
   -2.5556    1.3846    0.1768 C   0  0  0  0  0  0  0  0  0  0  0  0
   -3.6622    2.3446    0.1911 N   0  0  0  0  0  0  0  0  0  0  0  0
   -4.1688    2.8991    1.3100 C   0  0  0  0  0  0  0  0  0  0  0  0
   -3.8086    2.7052    2.4512 O   0  0  0  0  0  0  0  0  0  0  0  0
   -5.2816    3.8173    0.8446 C   0  0  1  0  0  0  0  0  0  0  0  0
   -5.2769    3.6525   -0.6192 N   0  5  0  0  0  0  0  0  0  0  0  0
   -4.2983    2.7746   -0.9045 C   0  0  0  0  0  0  0  0  0  0  0  0
   -4.0229    2.4125   -2.0315 O   0  0  0  0  0  0  0  0  0  0  0  0
   -6.6223    3.3721    1.4322 C   0  0  0  0  0  0  0  0  0  0  0  0
   -7.7096    4.3060    0.9668 C   0  0  0  0  0  0  0  0  0  0  0  0
   -8.1799    5.3760    1.6271 C   0  0  0  0  0  0  0  0  0  0  0  0
   -9.1641    5.9811    0.8940 N   0  0  0  0  0  0  0  0  0  0  0  0
   -9.3561    5.2980   -0.2860 C   0  0  0  0  0  0  0  0  0  0  0  0
   -8.4493    4.2221   -0.2948 C   0  0  0  0  0  0  0  0  0  0  0  0
   -8.4219    3.3435   -1.3792 C   0  0  0  0  0  0  0  0  0  0  0  0
   -9.2699    3.5393   -2.4328 C   0  0  0  0  0  0  0  0  0  0  0  0
  -10.1622    4.6024   -2.4314 C   0  0  0  0  0  0  0  0  0  0  0  0
  -10.2098    5.4786   -1.3690 C   0  0  0  0  0  0  0  0  0  0  0  0
    2.3365    1.4105    0.0909 N   0  3  0  0  0  0  0  0  0  0  0  0
    0.5763    3.9429    0.7550 H   0  0  0  0  0  0  0  0  0  0  0  0
    0.6298    3.8242   -1.0109 H   0  0  0  0  0  0  0  0  0  0  0  0
    2.1965    4.0322   -0.0896 H   0  0  0  0  0  0  0  0  0  0  0  0
    0.0040    1.4087    1.1188 H   0  0  0  0  0  0  0  0  0  0  0  0
   -2.5628    0.8039    1.1110 H   0  0  0  0  0  0  0  0  0  0  0  0
   -2.6727    0.7037   -0.6791 H   0  0  0  0  0  0  0  0  0  0  0  0
   -5.1376    4.8618    1.1581 H   0  0  0  0  0  0  0  0  0  0  0  0
   -6.5675    3.3929    2.5306 H   0  0  0  0  0  0  0  0  0  0  0  0
   -6.8489    2.3497    1.0956 H   0  0  0  0  0  0  0  0  0  0  0  0
   -7.8264    5.7160    2.6117 H   0  0  0  0  0  0  0  0  0  0  0  0
   -9.6840    6.8224    1.1820 H   0  0  0  0  0  0  0  0  0  0  0  0
   -7.7201    2.4965   -1.3856 H   0  0  0  0  0  0  0  0  0  0  0  0
   -9.2451    2.8489   -3.2888 H   0  0  0  0  0  0  0  0  0  0  0  0
  -10.8382    4.7469   -3.2870 H   0  0  0  0  0  0  0  0  0  0  0  0
  -10.9206    6.3181   -1.3774 H   0  0  0  0  0  0  0  0  0  0  0  0
    3.2325    1.9185    0.0839 H   0  0  0  0  0  0  0  0  0  0  0  0
    2.3277    0.3828    0.1597 H   0  0  0  0  0  0  0  0  0  0  0  0
  1  2  1  0  0  0  0
  2  3  1  0  0  0  0
  2 26  2  0  0  0  0
  3  4  1  0  0  0  0
  3  6  1  0  0  0  0
  4  5  3  0  0  0  0
  6  7  2  0  0  0  0
  6  8  1  0  0  0  0
  8  9  1  0  0  0  0
  9 14  1  0  0  0  0
  9 10  1  0  0  0  0
 10 11  2  0  0  0  0
 10 12  1  0  0  0  0
 12 13  1  0  0  0  0
 12 16  1  0  0  0  0
 13 14  1  0  0  0  0
 14 15  2  0  0  0  0
 16 17  1  0  0  0  0
 17 21  1  0  0  0  0
 17 18  2  0  0  0  0
 18 19  1  0  0  0  0
 19 20  1  0  0  0  0
 20 25  2  0  0  0  0
 20 21  1  0  0  0  0
 21 22  2  0  0  0  0
 22 23  1  0  0  0  0
 23 24  2  0  0  0  0
 24 25  1  0  0  0  0
  1 27  1  0  0  0  0
  1 28  1  0  0  0  0
  1 29  1  0  0  0  0
  3 30  1  0  0  0  0
  8 31  1  0  0  0  0
  8 32  1  0  0  0  0
 12 33  1  0  0  0  0
 16 34  1  0  0  0  0
 16 35  1  0  0  0  0
 18 36  1  0  0  0  0
 19 37  1  0  0  0  0
 22 38  1  0  0  0  0
 23 39  1  0  0  0  0
 24 40  1  0  0  0  0
 25 41  1  0  0  0  0
 26 42  1  0  0  0  0
 26 43  1  0  0  0  0
M  CHG  2  13  -1  26   1
M  END
> <Name>
ZINC06157444

> <reference>
BDB5244

> <quality>
0.665

> <status>
decoy

$$$$
ZINC23696717
  SciTegic06141217593D

 57 57  0  0  1  0            999 V2000
    2.2194   -5.5017    4.5490 C   0  0  0  0  0  0  0  0  0  0  0  0
    2.2049   -4.3368    3.5572 C   0  0  0  0  0  0  0  0  0  0  0  0
    0.9524   -4.4268    2.6831 C   0  0  0  0  0  0  0  0  0  0  0  0
    0.9379   -3.2619    1.6913 C   0  0  0  0  0  0  0  0  0  0  0  0
   -0.2613   -3.3481    0.8543 N   0  0  0  0  0  0  0  0  0  0  0  0
   -0.2204   -4.0485   -0.3289 C   0  0  0  0  0  0  0  0  0  0  0  0
   -1.3585   -4.1266   -1.1052 C   0  0  0  0  0  0  0  0  0  0  0  0
   -2.5264   -3.4754   -0.6661 C   0  0  0  0  0  0  0  0  0  0  0  0
   -3.5449   -3.5244   -1.3348 O   0  0  0  0  0  0  0  0  0  0  0  0
   -2.5117   -2.7978    0.4984 N   0  0  0  0  0  0  0  0  0  0  0  0
   -1.3946   -2.7371    1.2447 C   0  0  0  0  0  0  0  0  0  0  0  0
   -1.4091   -2.1189    2.2918 O   0  0  0  0  0  0  0  0  0  0  0  0
   -1.3499   -4.8422   -2.3212 N   0  0  0  0  0  0  0  0  0  0  0  0
   -1.1675   -6.2958   -2.3144 C   0  0  0  0  0  0  0  0  0  0  0  0
   -2.5348   -6.9815   -2.3490 C   0  0  0  0  0  0  0  0  0  0  0  0
   -1.5098   -4.1878   -3.4903 C   0  0  0  0  0  0  0  0  0  0  0  0
   -1.5706   -2.9761   -3.5039 O   0  0  0  0  0  0  0  0  0  0  0  0
   -1.6126   -4.9618   -4.7792 C   0  0  0  0  0  0  0  0  0  0  0  0
   -1.7809   -4.0269   -5.8998 N   0  3  0  0  0  0  0  0  0  0  0  0
   -0.5790   -3.2022   -6.0824 C   0  0  0  0  0  0  0  0  0  0  0  0
   -2.1207   -4.7432   -7.1365 C   0  0  0  0  0  0  0  0  0  0  0  0
   -2.5304   -3.7361   -8.2130 C   0  0  0  0  0  0  0  0  0  0  0  0
   -2.8844   -4.4821   -9.5010 C   0  0  0  0  0  0  0  0  0  0  0  0
   -3.2940   -3.4750  -10.5775 C   0  0  0  0  0  0  0  0  0  0  0  0
    0.9391   -4.6675   -0.7305 N   0  0  0  0  0  0  0  0  0  0  0  0
    2.2254   -6.4537    3.9980 H   0  0  0  0  0  0  0  0  0  0  0  0
    1.3241   -5.4532    5.1863 H   0  0  0  0  0  0  0  0  0  0  0  0
    3.1197   -5.4376    5.1778 H   0  0  0  0  0  0  0  0  0  0  0  0
    2.1986   -3.3853    4.1090 H   0  0  0  0  0  0  0  0  0  0  0  0
    3.1001   -4.3852    2.9199 H   0  0  0  0  0  0  0  0  0  0  0  0
    0.9582   -5.3780    2.1306 H   0  0  0  0  0  0  0  0  0  0  0  0
    0.0560   -4.3774    3.3187 H   0  0  0  0  0  0  0  0  0  0  0  0
    1.8332   -3.3103    1.0540 H   0  0  0  0  0  0  0  0  0  0  0  0
    0.9316   -2.3104    2.2432 H   0  0  0  0  0  0  0  0  0  0  0  0
   -3.3658   -2.3208    0.8207 H   0  0  0  0  0  0  0  0  0  0  0  0
   -0.5847   -6.5965   -3.1975 H   0  0  0  0  0  0  0  0  0  0  0  0
   -0.6311   -6.5949   -1.4018 H   0  0  0  0  0  0  0  0  0  0  0  0
   -3.0722   -6.6844   -3.2617 H   0  0  0  0  0  0  0  0  0  0  0  0
   -3.1189   -6.6818   -1.4664 H   0  0  0  0  0  0  0  0  0  0  0  0
   -2.3986   -8.0730   -2.3439 H   0  0  0  0  0  0  0  0  0  0  0  0
   -2.4788   -5.6383   -4.7338 H   0  0  0  0  0  0  0  0  0  0  0  0
   -0.6952   -5.5502   -4.9279 H   0  0  0  0  0  0  0  0  0  0  0  0
   -2.5646   -3.3983   -5.6726 H   0  0  0  0  0  0  0  0  0  0  0  0
    0.2783   -3.8623   -6.2805 H   0  0  0  0  0  0  0  0  0  0  0  0
   -0.3919   -2.6369   -5.1575 H   0  0  0  0  0  0  0  0  0  0  0  0
   -0.7192   -2.5078   -6.9239 H   0  0  0  0  0  0  0  0  0  0  0  0
   -1.2459   -5.3133   -7.4824 H   0  0  0  0  0  0  0  0  0  0  0  0
   -2.9555   -5.4333   -6.9443 H   0  0  0  0  0  0  0  0  0  0  0  0
   -3.4055   -3.1659   -7.8679 H   0  0  0  0  0  0  0  0  0  0  0  0
   -1.6963   -3.0458   -8.4074 H   0  0  0  0  0  0  0  0  0  0  0  0
   -3.7193   -5.1721   -9.3088 H   0  0  0  0  0  0  0  0  0  0  0  0
   -2.0096   -5.0523   -9.8469 H   0  0  0  0  0  0  0  0  0  0  0  0
   -2.4598   -2.7848  -10.7719 H   0  0  0  0  0  0  0  0  0  0  0  0
   -4.1689   -2.9040  -10.2331 H   0  0  0  0  0  0  0  0  0  0  0  0
   -3.5487   -4.0107  -11.5039 H   0  0  0  0  0  0  0  0  0  0  0  0
    1.7815   -4.6057   -0.1411 H   0  0  0  0  0  0  0  0  0  0  0  0
    0.9664   -5.1912   -1.6170 H   0  0  0  0  0  0  0  0  0  0  0  0
  1  2  1  0  0  0  0
  2  3  1  0  0  0  0
  3  4  1  0  0  0  0
  4  5  1  0  0  0  0
  5 11  1  0  0  0  0
  5  6  1  0  0  0  0
  6  7  2  0  0  0  0
  6 25  1  0  0  0  0
  7  8  1  0  0  0  0
  7 13  1  0  0  0  0
  8  9  2  0  0  0  0
  8 10  1  0  0  0  0
 10 11  1  0  0  0  0
 11 12  2  0  0  0  0
 13 14  1  0  0  0  0
 13 16  1  0  0  0  0
 14 15  1  0  0  0  0
 16 17  2  0  0  0  0
 16 18  1  0  0  0  0
 18 19  1  0  0  0  0
 19 20  1  0  0  0  0
 19 21  1  0  0  0  0
 21 22  1  0  0  0  0
 22 23  1  0  0  0  0
 23 24  1  0  0  0  0
  1 26  1  0  0  0  0
  1 27  1  0  0  0  0
  1 28  1  0  0  0  0
  2 29  1  0  0  0  0
  2 30  1  0  0  0  0
  3 31  1  0  0  0  0
  3 32  1  0  0  0  0
  4 33  1  0  0  0  0
  4 34  1  0  0  0  0
 10 35  1  0  0  0  0
 14 36  1  0  0  0  0
 14 37  1  0  0  0  0
 15 38  1  0  0  0  0
 15 39  1  0  0  0  0
 15 40  1  0  0  0  0
 18 41  1  0  0  0  0
 18 42  1  0  0  0  0
 19 43  1  0  0  0  0
 20 44  1  0  0  0  0
 20 45  1  0  0  0  0
 20 46  1  0  0  0  0
 21 47  1  0  0  0  0
 21 48  1  0  0  0  0
 22 49  1  0  0  0  0
 22 50  1  0  0  0  0
 23 51  1  0  0  0  0
 23 52  1  0  0  0  0
 24 53  1  0  0  0  0
 24 54  1  0  0  0  0
 24 55  1  0  0  0  0
 25 56  1  0  0  0  0
 25 57  1  0  0  0  0
M  CHG  1  19   1
M  END
> <Name>
ZINC23696717

> <reference>
BDB4997

> <quality>
0.670

> <status>
decoy

$$$$
ZINC20306534
  SciTegic06141217593D

 33 33  0  0  1  0            999 V2000
  -10.4787    7.4789   -3.8396 C   0  0  0  0  0  0  0  0  0  0  0  0
   -9.3316    6.5939   -3.7429 O   0  0  0  0  0  0  0  0  0  0  0  0
   -8.1332    7.1680   -3.5218 C   0  0  0  0  0  0  0  0  0  0  0  0
   -8.0487    8.3749   -3.4128 O   0  0  0  0  0  0  0  0  0  0  0  0
   -6.9216    6.3299   -3.4120 C   0  0  0  0  0  0  0  0  0  0  0  0
   -5.6779    6.9217   -3.1829 C   0  0  0  0  0  0  0  0  0  0  0  0
   -4.5507    6.1331   -3.0810 C   0  0  0  0  0  0  0  0  0  0  0  0
   -4.6506    4.7586   -3.2053 C   0  0  0  0  0  0  0  0  0  0  0  0
   -5.8791    4.1661   -3.4376 C   0  0  0  0  0  0  0  0  0  0  0  0
   -7.0152    4.9423   -3.5364 C   0  0  0  0  0  0  0  0  0  0  0  0
   -3.4146    3.9036   -3.0932 C   0  0  0  0  0  0  0  0  0  0  0  0
   -3.1648    3.4259   -1.3612 S   0  0  0  0  0  0  0  0  0  0  0  0
   -1.6590    2.4150   -1.3976 C   0  0  0  0  0  0  0  0  0  0  0  0
   -1.3295    1.9397    0.0189 C   0  0  2  0  0  0  0  0  0  0  0  0
   -0.0143    1.2041    0.0087 C   0  0  0  0  0  0  0  0  0  0  0  0
    0.0021   -0.0041    0.0020 O   0  0  0  0  0  0  0  0  0  0  0  0
    1.1389    1.8910    0.0013 O   0  5  0  0  0  0  0  0  0  0  0  0
   -2.3900    1.0404    0.4927 N   0  3  0  0  0  0  0  0  0  0  0  0
  -10.2566    8.1864   -4.6521 H   0  0  0  0  0  0  0  0  0  0  0  0
  -10.5130    8.0458   -2.8976 H   0  0  0  0  0  0  0  0  0  0  0  0
  -11.4184    6.9364   -4.0204 H   0  0  0  0  0  0  0  0  0  0  0  0
   -5.5971    8.0143   -3.0839 H   0  0  0  0  0  0  0  0  0  0  0  0
   -3.5702    6.5980   -2.9005 H   0  0  0  0  0  0  0  0  0  0  0  0
   -5.9501    3.0735   -3.5438 H   0  0  0  0  0  0  0  0  0  0  0  0
   -7.9925    4.4692   -3.7128 H   0  0  0  0  0  0  0  0  0  0  0  0
   -3.5367    2.9998   -3.7082 H   0  0  0  0  0  0  0  0  0  0  0  0
   -2.5411    4.4718   -3.4456 H   0  0  0  0  0  0  0  0  0  0  0  0
   -1.8184    1.5428   -2.0487 H   0  0  0  0  0  0  0  0  0  0  0  0
   -0.8227    3.0148   -1.7862 H   0  0  0  0  0  0  0  0  0  0  0  0
   -1.2585    2.8084    0.6900 H   0  0  0  0  0  0  0  0  0  0  0  0
   -2.4571    0.2264   -0.1349 H   0  0  0  0  0  0  0  0  0  0  0  0
   -3.2893    1.5425    0.5003 H   0  0  0  0  0  0  0  0  0  0  0  0
   -2.1688    0.7201    1.4463 H   0  0  0  0  0  0  0  0  0  0  0  0
  1  2  1  0  0  0  0
  2  3  1  0  0  0  0
  3  4  2  0  0  0  0
  3  5  1  0  0  0  0
  5 10  2  0  0  0  0
  5  6  1  0  0  0  0
  6  7  2  0  0  0  0
  7  8  1  0  0  0  0
  8  9  2  0  0  0  0
  8 11  1  0  0  0  0
  9 10  1  0  0  0  0
 11 12  1  0  0  0  0
 12 13  1  0  0  0  0
 13 14  1  0  0  0  0
 14 15  1  0  0  0  0
 14 18  1  0  0  0  0
 15 16  2  0  0  0  0
 15 17  1  0  0  0  0
  1 19  1  0  0  0  0
  1 20  1  0  0  0  0
  1 21  1  0  0  0  0
  6 22  1  0  0  0  0
  7 23  1  0  0  0  0
  9 24  1  0  0  0  0
 10 25  1  0  0  0  0
 11 26  1  0  0  0  0
 11 27  1  0  0  0  0
 13 28  1  0  0  0  0
 13 29  1  0  0  0  0
 14 30  1  0  0  0  0
 18 31  1  0  0  0  0
 18 32  1  0  0  0  0
 18 33  1  0  0  0  0
M  CHG  2  17  -1  18   1
M  END
> <Name>
ZINC20306534

> <reference>
BDB5232

> <quality>
0.752

> <status>
decoy

$$$$
ZINC05736586
  SciTegic06141217593D

 51 52  0  0  1  0            999 V2000
    1.1081   12.2289   -5.9453 C   0  0  0  0  0  0  0  0  0  0  0  0
    1.7397   10.9381   -5.4200 C   0  0  0  0  0  0  0  0  0  0  0  0
    1.0368   10.5153   -4.1285 C   0  0  0  0  0  0  0  0  0  0  0  0
    1.6684    9.2245   -3.6033 C   0  0  0  0  0  0  0  0  0  0  0  0
    0.9953    8.8196   -2.3666 N   0  0  0  0  0  0  0  0  0  0  0  0
   -0.0783    8.0048   -2.4421 C   0  0  0  0  0  0  0  0  0  0  0  0
   -0.4908    7.6056   -3.5099 O   0  0  0  0  0  0  0  0  0  0  0  0
   -0.7493    7.6068   -1.1410 C   0  5  0  0  0  0  0  0  0  0  0  0
   -0.1389    8.1710    0.1281 C   0  0  0  0  0  0  0  0  0  0  0  0
   -0.6028    7.9120    1.2178 O   0  0  0  0  0  0  0  0  0  0  0  0
    0.9395    8.9726   -0.0011 N   0  0  0  0  0  0  0  0  0  0  0  0
    1.4629    9.2687   -1.1963 C   0  0  0  0  0  0  0  0  0  0  0  0
    2.4339    9.9984   -1.2206 O   0  0  0  0  0  0  0  0  0  0  0  0
   -0.7279    6.1031   -1.0433 C   0  0  0  0  0  0  0  0  0  0  0  0
   -1.8609    5.4310   -0.9603 C   0  0  0  0  0  0  0  0  0  0  0  0
   -3.1770    6.1546   -1.0844 C   0  0  0  0  0  0  0  0  0  0  0  0
    0.4841    5.4243   -1.0404 N   0  0  0  0  0  0  0  0  0  0  0  0
    0.5021    4.0586   -1.0574 N   0  0  0  0  0  0  0  0  0  0  0  0
    1.2968    3.5564   -2.1870 C   0  0  0  0  0  0  0  0  0  0  0  0
    1.2265    2.0278   -2.2171 C   0  0  0  0  0  0  0  0  0  0  0  0
    0.9338    1.9940    0.1854 C   0  0  0  0  0  0  0  0  0  0  0  0
    1.0041    3.5226    0.2155 C   0  0  0  0  0  0  0  0  0  0  0  0
    1.7479    0.0231   -0.9624 C   0  0  0  0  0  0  0  0  0  0  0  0
    1.7545    1.5014   -0.9407 N   0  3  0  0  0  0  0  0  0  0  0  0
    1.2161   13.0239   -5.1928 H   0  0  0  0  0  0  0  0  0  0  0  0
    0.0403   12.0597   -6.1483 H   0  0  0  0  0  0  0  0  0  0  0  0
    1.6130   12.5335   -6.8739 H   0  0  0  0  0  0  0  0  0  0  0  0
    1.6309   10.1436   -6.1730 H   0  0  0  0  0  0  0  0  0  0  0  0
    2.8075   11.1072   -5.2170 H   0  0  0  0  0  0  0  0  0  0  0  0
    1.1456   11.3092   -3.3749 H   0  0  0  0  0  0  0  0  0  0  0  0
   -0.0311   10.3446   -4.3299 H   0  0  0  0  0  0  0  0  0  0  0  0
    1.5596    8.4301   -4.3564 H   0  0  0  0  0  0  0  0  0  0  0  0
    2.7362    9.3936   -3.4003 H   0  0  0  0  0  0  0  0  0  0  0  0
    1.3724    9.3681    0.8457 H   0  0  0  0  0  0  0  0  0  0  0  0
   -1.8445    4.3428   -0.8006 H   0  0  0  0  0  0  0  0  0  0  0  0
   -3.1325    6.6700   -2.0552 H   0  0  0  0  0  0  0  0  0  0  0  0
   -3.1565    6.9270   -0.3015 H   0  0  0  0  0  0  0  0  0  0  0  0
   -4.0528    5.4945   -0.9996 H   0  0  0  0  0  0  0  0  0  0  0  0
    1.3692    5.9508   -1.0254 H   0  0  0  0  0  0  0  0  0  0  0  0
    0.8940    3.9603   -3.1275 H   0  0  0  0  0  0  0  0  0  0  0  0
    2.3439    3.8725   -2.0698 H   0  0  0  0  0  0  0  0  0  0  0  0
    1.8337    1.6465   -3.0513 H   0  0  0  0  0  0  0  0  0  0  0  0
    0.1810    1.7095   -2.3419 H   0  0  0  0  0  0  0  0  0  0  0  0
    1.3246    1.5886    1.1304 H   0  0  0  0  0  0  0  0  0  0  0  0
   -0.1098    1.6749    0.0470 H   0  0  0  0  0  0  0  0  0  0  0  0
    0.3867    3.9013    1.0434 H   0  0  0  0  0  0  0  0  0  0  0  0
    2.0477    3.8386    0.3608 H   0  0  0  0  0  0  0  0  0  0  0  0
    2.3764   -0.3311   -1.7928 H   0  0  0  0  0  0  0  0  0  0  0  0
    0.7176   -0.3338   -1.1077 H   0  0  0  0  0  0  0  0  0  0  0  0
    2.1414   -0.3642   -0.0110 H   0  0  0  0  0  0  0  0  0  0  0  0
    2.7231    1.8294   -0.8179 H   0  0  0  0  0  0  0  0  0  0  0  0
  1  2  1  0  0  0  0
  2  3  1  0  0  0  0
  3  4  1  0  0  0  0
  4  5  1  0  0  0  0
  5 12  1  0  0  0  0
  5  6  1  0  0  0  0
  6  7  2  0  0  0  0
  6  8  1  0  0  0  0
  8  9  1  0  0  0  0
  8 14  1  0  0  0  0
  9 10  2  0  0  0  0
  9 11  1  0  0  0  0
 11 12  1  0  0  0  0
 12 13  2  0  0  0  0
 14 15  2  0  0  0  0
 14 17  1  0  0  0  0
 15 16  1  0  0  0  0
 17 18  1  0  0  0  0
 18 22  1  0  0  0  0
 18 19  1  0  0  0  0
 19 20  1  0  0  0  0
 20 24  1  0  0  0  0
 21 22  1  0  0  0  0
 21 24  1  0  0  0  0
 23 24  1  0  0  0  0
  1 25  1  0  0  0  0
  1 26  1  0  0  0  0
  1 27  1  0  0  0  0
  2 28  1  0  0  0  0
  2 29  1  0  0  0  0
  3 30  1  0  0  0  0
  3 31  1  0  0  0  0
  4 32  1  0  0  0  0
  4 33  1  0  0  0  0
 11 34  1  0  0  0  0
 15 35  1  0  0  0  0
 16 36  1  0  0  0  0
 16 37  1  0  0  0  0
 16 38  1  0  0  0  0
 17 39  1  0  0  0  0
 19 40  1  0  0  0  0
 19 41  1  0  0  0  0
 20 42  1  0  0  0  0
 20 43  1  0  0  0  0
 21 44  1  0  0  0  0
 21 45  1  0  0  0  0
 22 46  1  0  0  0  0
 22 47  1  0  0  0  0
 23 48  1  0  0  0  0
 23 49  1  0  0  0  0
 23 50  1  0  0  0  0
 24 51  1  0  0  0  0
M  CHG  2   8  -1  24   1
M  END
> <Name>
ZINC05736586

> <reference>
BDB5195

> <quality>
0.766

> <status>
decoy

$$$$
ZINC20261639
  SciTegic06141217593D

 36 36  0  0  1  0            999 V2000
    2.1015   -1.2524    4.0947 C   0  0  0  0  0  0  0  0  0  0  0  0
    0.5775   -1.2694    3.9607 C   0  0  0  0  0  0  0  0  0  0  0  0
    0.1632   -0.2077    3.0986 O   0  0  0  0  0  0  0  0  0  0  0  0
   -1.1719   -0.0816    2.8720 C   0  0  0  0  0  0  0  0  0  0  0  0
   -2.0630   -0.9596    3.4665 C   0  0  0  0  0  0  0  0  0  0  0  0
   -3.4202   -0.8296    3.2360 C   0  0  0  0  0  0  0  0  0  0  0  0
   -3.8922    0.1757    2.4125 C   0  0  0  0  0  0  0  0  0  0  0  0
   -3.0100    1.0590    1.8192 C   0  0  0  0  0  0  0  0  0  0  0  0
   -1.6466    0.9314    2.0417 C   0  0  0  0  0  0  0  0  0  0  0  0
   -0.7508    1.8216    1.4382 N   0  0  0  0  0  0  0  0  0  0  0  0
   -0.4623    3.1114    2.0701 C   0  0  0  0  0  0  0  0  0  0  0  0
   -0.0172    1.4168    0.0098 S   0  0  0  0  0  0  0  0  0  0  0  0
    0.0021   -0.0041    0.0020 O   0  0  0  0  0  0  0  0  0  0  0  0
    1.1953    2.1578    0.0022 O   0  0  0  0  0  0  0  0  0  0  0  0
   -1.1345    2.0336   -1.2793 C   0  0  0  0  0  0  0  0  0  0  0  0
   -0.5510    1.7117   -2.6566 C   0  0  0  0  0  0  0  0  0  0  0  0
   -1.4558    2.2112   -3.7005 N   0  3  0  0  0  0  0  0  0  0  0  0
    2.4225   -0.2898    4.5193 H   0  0  0  0  0  0  0  0  0  0  0  0
    2.5593   -1.3861    3.1034 H   0  0  0  0  0  0  0  0  0  0  0  0
    2.4211   -2.0695    4.7582 H   0  0  0  0  0  0  0  0  0  0  0  0
    0.2574   -2.2322    3.5358 H   0  0  0  0  0  0  0  0  0  0  0  0
    0.1197   -1.1357    4.9519 H   0  0  0  0  0  0  0  0  0  0  0  0
   -1.6909   -1.7606    4.1222 H   0  0  0  0  0  0  0  0  0  0  0  0
   -4.1263   -1.5279    3.7091 H   0  0  0  0  0  0  0  0  0  0  0  0
   -4.9724    0.2728    2.2290 H   0  0  0  0  0  0  0  0  0  0  0  0
   -3.3888    1.8628    1.1709 H   0  0  0  0  0  0  0  0  0  0  0  0
   -0.1060    2.8600    3.0800 H   0  0  0  0  0  0  0  0  0  0  0  0
   -1.4423    3.5977    2.1844 H   0  0  0  0  0  0  0  0  0  0  0  0
    0.2540    3.7338    1.5138 H   0  0  0  0  0  0  0  0  0  0  0  0
   -2.1168    1.5496   -1.1756 H   0  0  0  0  0  0  0  0  0  0  0  0
   -1.2495    3.1227   -1.1760 H   0  0  0  0  0  0  0  0  0  0  0  0
    0.4312    2.1957   -2.7611 H   0  0  0  0  0  0  0  0  0  0  0  0
   -0.4363    0.6228   -2.7621 H   0  0  0  0  0  0  0  0  0  0  0  0
   -1.5634    3.2310   -3.6038 H   0  0  0  0  0  0  0  0  0  0  0  0
   -2.3760    1.7587   -3.6040 H   0  0  0  0  0  0  0  0  0  0  0  0
   -1.0636    1.9948   -4.6280 H   0  0  0  0  0  0  0  0  0  0  0  0
  1  2  1  0  0  0  0
  2  3  1  0  0  0  0
  3  4  1  0  0  0  0
  4  9  2  0  0  0  0
  4  5  1  0  0  0  0
  5  6  2  0  0  0  0
  6  7  1  0  0  0  0
  7  8  2  0  0  0  0
  8  9  1  0  0  0  0
  9 10  1  0  0  0  0
 10 11  1  0  0  0  0
 10 12  1  0  0  0  0
 12 13  2  0  0  0  0
 12 14  2  0  0  0  0
 12 15  1  0  0  0  0
 15 16  1  0  0  0  0
 16 17  1  0  0  0  0
  1 18  1  0  0  0  0
  1 19  1  0  0  0  0
  1 20  1  0  0  0  0
  2 21  1  0  0  0  0
  2 22  1  0  0  0  0
  5 23  1  0  0  0  0
  6 24  1  0  0  0  0
  7 25  1  0  0  0  0
  8 26  1  0  0  0  0
 11 27  1  0  0  0  0
 11 28  1  0  0  0  0
 11 29  1  0  0  0  0
 15 30  1  0  0  0  0
 15 31  1  0  0  0  0
 16 32  1  0  0  0  0
 16 33  1  0  0  0  0
 17 34  1  0  0  0  0
 17 35  1  0  0  0  0
 17 36  1  0  0  0  0
M  CHG  1  17   1
M  END
> <Name>
ZINC20261639

> <reference>
BDB5204

> <quality>
0.750

> <status>
decoy

$$$$
ZINC04189752
  SciTegic06141217593D

 43 44  0  0  1  0            999 V2000
   -6.6999    9.3259   -5.5759 C   0  0  0  0  0  0  0  0  0  0  0  0
   -5.5930    8.7283   -4.8977 O   0  0  0  0  0  0  0  0  0  0  0  0
   -5.8388    7.5859   -4.2024 C   0  0  0  0  0  0  0  0  0  0  0  0
   -7.1168    7.0516   -4.1739 C   0  0  0  0  0  0  0  0  0  0  0  0
   -7.3650    5.8898   -3.4669 C   0  0  0  0  0  0  0  0  0  0  0  0
   -6.3403    5.2577   -2.7867 C   0  0  0  0  0  0  0  0  0  0  0  0
   -5.0616    5.7811   -2.8149 C   0  0  0  0  0  0  0  0  0  0  0  0
   -4.8062    6.9497   -3.5174 C   0  0  0  0  0  0  0  0  0  0  0  0
   -3.5116    7.4855   -3.5427 N   0  0  0  0  0  0  0  0  0  0  0  0
   -2.6484    7.2092   -2.5452 C   0  0  0  0  0  0  0  0  0  0  0  0
   -3.0213    6.5809   -1.5770 O   0  0  0  0  0  0  0  0  0  0  0  0
   -1.2198    7.6810   -2.6327 C   0  0  0  0  0  0  0  0  0  0  0  0
   -0.4590    7.2386   -1.3811 C   0  0  2  0  0  0  0  0  0  0  0  0
    0.9336    7.8137   -1.4103 C   0  0  0  0  0  0  0  0  0  0  0  0
    1.8915    7.0773   -1.4037 O   0  0  0  0  0  0  0  0  0  0  0  0
   -0.2205    5.2847    0.0288 C   0  0  0  0  0  0  0  0  0  0  0  0
   -0.1460    3.7795    0.0233 C   0  0  0  0  0  0  0  0  0  0  0  0
    1.0878    3.1567    0.0059 C   0  0  0  0  0  0  0  0  0  0  0  0
    1.1453    1.7716    0.0015 C   0  0  0  0  0  0  0  0  0  0  0  0
   -0.0458    1.0615    0.0147 C   0  0  0  0  0  0  0  0  0  0  0  0
   -1.2419    1.7533    0.0260 C   0  0  0  0  0  0  0  0  0  0  0  0
   -1.2586    3.0720    0.0356 N   0  0  0  0  0  0  0  0  0  0  0  0
    1.1098    9.1439   -1.4436 O   0  5  0  0  0  0  0  0  0  0  0  0
   -0.3832    5.7657   -1.3561 N   0  3  0  0  0  0  0  0  0  0  0  0
   -7.4639    9.5207   -4.8089 H   0  0  0  0  0  0  0  0  0  0  0  0
   -7.0949    8.5591   -6.2585 H   0  0  0  0  0  0  0  0  0  0  0  0
   -6.4233   10.2442   -6.1147 H   0  0  0  0  0  0  0  0  0  0  0  0
   -7.9341    7.5519   -4.7139 H   0  0  0  0  0  0  0  0  0  0  0  0
   -8.3803    5.4671   -3.4454 H   0  0  0  0  0  0  0  0  0  0  0  0
   -6.5435    4.3360   -2.2218 H   0  0  0  0  0  0  0  0  0  0  0  0
   -4.2465    5.2712   -2.2804 H   0  0  0  0  0  0  0  0  0  0  0  0
   -3.2197    8.0904   -4.3236 H   0  0  0  0  0  0  0  0  0  0  0  0
   -0.7436    7.2456   -3.5236 H   0  0  0  0  0  0  0  0  0  0  0  0
   -1.1987    8.7784   -2.7049 H   0  0  0  0  0  0  0  0  0  0  0  0
   -0.9827    7.5975   -0.4828 H   0  0  0  0  0  0  0  0  0  0  0  0
   -1.0809    5.6080    0.6331 H   0  0  0  0  0  0  0  0  0  0  0  0
    0.7059    5.6980    0.4542 H   0  0  0  0  0  0  0  0  0  0  0  0
    2.0124    3.7526   -0.0043 H   0  0  0  0  0  0  0  0  0  0  0  0
    2.1127    1.2482   -0.0121 H   0  0  0  0  0  0  0  0  0  0  0  0
   -0.0385   -0.0385    0.0162 H   0  0  0  0  0  0  0  0  0  0  0  0
   -2.1912    1.1976    0.0270 H   0  0  0  0  0  0  0  0  0  0  0  0
   -1.2480    5.3725   -1.7540 H   0  0  0  0  0  0  0  0  0  0  0  0
    0.4197    5.4546   -1.9212 H   0  0  0  0  0  0  0  0  0  0  0  0
  1  2  1  0  0  0  0
  2  3  1  0  0  0  0
  3  8  2  0  0  0  0
  3  4  1  0  0  0  0
  4  5  2  0  0  0  0
  5  6  1  0  0  0  0
  6  7  2  0  0  0  0
  7  8  1  0  0  0  0
  8  9  1  0  0  0  0
  9 10  1  0  0  0  0
 10 11  2  0  0  0  0
 10 12  1  0  0  0  0
 12 13  1  0  0  0  0
 13 14  1  0  0  0  0
 13 24  1  0  0  0  0
 14 15  2  0  0  0  0
 14 23  1  0  0  0  0
 16 17  1  0  0  0  0
 16 24  1  0  0  0  0
 17 22  2  0  0  0  0
 17 18  1  0  0  0  0
 18 19  2  0  0  0  0
 19 20  1  0  0  0  0
 20 21  2  0  0  0  0
 21 22  1  0  0  0  0
  1 25  1  0  0  0  0
  1 26  1  0  0  0  0
  1 27  1  0  0  0  0
  4 28  1  0  0  0  0
  5 29  1  0  0  0  0
  6 30  1  0  0  0  0
  7 31  1  0  0  0  0
  9 32  1  0  0  0  0
 12 33  1  0  0  0  0
 12 34  1  0  0  0  0
 13 35  1  0  0  0  0
 16 36  1  0  0  0  0
 16 37  1  0  0  0  0
 18 38  1  0  0  0  0
 19 39  1  0  0  0  0
 20 40  1  0  0  0  0
 21 41  1  0  0  0  0
 24 42  1  0  0  0  0
 24 43  1  0  0  0  0
M  CHG  2  23  -1  24   1
M  END
> <Name>
ZINC04189752

> <reference>
BDB5013

> <quality>
0.734

> <status>
decoy

$$$$
ZINC30924904
  SciTegic06141217593D

 52 53  0  0  0  0            999 V2000
   -3.1479    3.0428    4.8958 C   0  0  0  0  0  0  0  0  0  0  0  0
   -2.3631    2.6373    3.6749 C   0  0  0  0  0  0  0  0  0  0  0  0
   -2.5595    1.3913    3.1094 C   0  0  0  0  0  0  0  0  0  0  0  0
   -1.8396    1.0193    1.9895 C   0  0  0  0  0  0  0  0  0  0  0  0
   -0.9240    1.8937    1.4345 C   0  0  0  0  0  0  0  0  0  0  0  0
   -0.7241    3.1378    2.0028 C   0  0  0  0  0  0  0  0  0  0  0  0
   -1.4472    3.5115    3.1202 C   0  0  0  0  0  0  0  0  0  0  0  0
   -0.0064    1.4195    0.0070 S   0  0  0  0  0  0  0  0  0  0  0  0
    0.0217   -0.0011   -0.0044 O   0  0  0  0  0  0  0  0  0  0  0  0
    1.1778    2.2050    0.0060 O   0  0  0  0  0  0  0  0  0  0  0  0
   -0.8849    1.8861   -1.3170 N   0  0  0  0  0  0  0  0  0  0  0  0
   -1.1201    3.3088   -1.5758 C   0  0  0  0  0  0  0  0  0  0  0  0
   -1.6057    3.4883   -2.9911 C   0  0  0  0  0  0  0  0  0  0  0  0
   -1.7418    2.5230   -3.7125 O   0  0  0  0  0  0  0  0  0  0  0  0
   -1.8886    4.7217   -3.4551 N   0  0  0  0  0  0  0  0  0  0  0  0
   -2.3606    4.8962   -4.8309 C   0  0  0  0  0  0  0  0  0  0  0  0
   -2.6026    6.3597   -5.0971 C   0  0  0  0  0  0  0  0  0  0  0  0
   -2.4006    7.1765   -4.2235 O   0  0  0  0  0  0  0  0  0  0  0  0
   -3.0434    6.7609   -6.3059 N   0  0  0  0  0  0  0  0  0  0  0  0
   -3.3603    8.1062   -6.5239 C   0  0  0  0  0  0  0  0  0  0  0  0
   -4.4086    8.4456   -7.3700 C   0  0  0  0  0  0  0  0  0  0  0  0
   -4.7248    9.7735   -7.5810 C   0  0  0  0  0  0  0  0  0  0  0  0
   -3.9930   10.7679   -6.9598 C   0  0  0  0  0  0  0  0  0  0  0  0
   -2.9412   10.4349   -6.1181 C   0  0  0  0  0  0  0  0  0  0  0  0
   -2.6243    9.1032   -5.8997 C   0  0  0  0  0  0  0  0  0  0  0  0
   -2.2220   11.4138   -5.5086 O   0  0  0  0  0  0  0  0  0  0  0  0
   -2.6043   12.7638   -5.7793 C   0  0  0  0  0  0  0  0  0  0  0  0
   -1.7011   13.7030   -5.0222 C   0  0  0  0  0  0  0  0  0  0  0  0
   -0.8172   13.2599   -4.3199 O   0  0  0  0  0  0  0  0  0  0  0  0
   -1.8757   15.0355   -5.1254 N   0  0  0  0  0  0  0  0  0  0  0  0
   -3.6583    3.9746    4.6110 H   0  0  0  0  0  0  0  0  0  0  0  0
   -2.3900    3.3044    5.6489 H   0  0  0  0  0  0  0  0  0  0  0  0
   -3.8469    2.2717    5.2520 H   0  0  0  0  0  0  0  0  0  0  0  0
   -3.2887    0.6958    3.5506 H   0  0  0  0  0  0  0  0  0  0  0  0
   -1.9953    0.0275    1.5400 H   0  0  0  0  0  0  0  0  0  0  0  0
    0.0103    3.8305    1.5659 H   0  0  0  0  0  0  0  0  0  0  0  0
   -1.2937    4.5045    3.5679 H   0  0  0  0  0  0  0  0  0  0  0  0
   -1.2659    1.1761   -1.9585 H   0  0  0  0  0  0  0  0  0  0  0  0
   -0.1829    3.8678   -1.4368 H   0  0  0  0  0  0  0  0  0  0  0  0
   -1.8803    3.6880   -0.8770 H   0  0  0  0  0  0  0  0  0  0  0  0
   -1.7729    5.5415   -2.8424 H   0  0  0  0  0  0  0  0  0  0  0  0
   -3.2984    4.3387   -4.9715 H   0  0  0  0  0  0  0  0  0  0  0  0
   -1.6006    4.5176   -5.5302 H   0  0  0  0  0  0  0  0  0  0  0  0
   -3.1470    6.0772   -7.0692 H   0  0  0  0  0  0  0  0  0  0  0  0
   -4.9872    7.6563   -7.8722 H   0  0  0  0  0  0  0  0  0  0  0  0
   -5.5606   10.0401   -8.2446 H   0  0  0  0  0  0  0  0  0  0  0  0
   -4.2447   11.8247   -7.1328 H   0  0  0  0  0  0  0  0  0  0  0  0
   -1.7909    8.8373   -5.2328 H   0  0  0  0  0  0  0  0  0  0  0  0
   -3.6455   12.9220   -5.4617 H   0  0  0  0  0  0  0  0  0  0  0  0
   -2.5159   12.9608   -6.8579 H   0  0  0  0  0  0  0  0  0  0  0  0
   -2.6265   15.4119   -5.7217 H   0  0  0  0  0  0  0  0  0  0  0  0
   -1.2584   15.6774   -4.6079 H   0  0  0  0  0  0  0  0  0  0  0  0
  1  2  1  0  0  0  0
  2  7  2  0  0  0  0
  2  3  1  0  0  0  0
  3  4  2  0  0  0  0
  4  5  1  0  0  0  0
  5  6  2  0  0  0  0
  5  8  1  0  0  0  0
  6  7  1  0  0  0  0
  8  9  2  0  0  0  0
  8 10  2  0  0  0  0
  8 11  1  0  0  0  0
 11 12  1  0  0  0  0
 12 13  1  0  0  0  0
 13 14  2  0  0  0  0
 13 15  1  0  0  0  0
 15 16  1  0  0  0  0
 16 17  1  0  0  0  0
 17 18  2  0  0  0  0
 17 19  1  0  0  0  0
 19 20  1  0  0  0  0
 20 25  2  0  0  0  0
 20 21  1  0  0  0  0
 21 22  2  0  0  0  0
 22 23  1  0  0  0  0
 23 24  2  0  0  0  0
 24 25  1  0  0  0  0
 24 26  1  0  0  0  0
 26 27  1  0  0  0  0
 27 28  1  0  0  0  0
 28 29  2  0  0  0  0
 28 30  1  0  0  0  0
  1 31  1  0  0  0  0
  1 32  1  0  0  0  0
  1 33  1  0  0  0  0
  3 34  1  0  0  0  0
  4 35  1  0  0  0  0
  6 36  1  0  0  0  0
  7 37  1  0  0  0  0
 11 38  1  0  0  0  0
 12 39  1  0  0  0  0
 12 40  1  0  0  0  0
 15 41  1  0  0  0  0
 16 42  1  0  0  0  0
 16 43  1  0  0  0  0
 19 44  1  0  0  0  0
 21 45  1  0  0  0  0
 22 46  1  0  0  0  0
 23 47  1  0  0  0  0
 25 48  1  0  0  0  0
 27 49  1  0  0  0  0
 27 50  1  0  0  0  0
 30 51  1  0  0  0  0
 30 52  1  0  0  0  0
M  END
> <Name>
ZINC30924904

> <reference>
BDB4946

> <quality>
0.757

> <status>
decoy

$$$$
ZINC29530525
  SciTegic06141217593D

 38 39  0  0  0  0            999 V2000
   -1.3803    3.8808    3.8878 C   0  0  0  0  0  0  0  0  0  0  0  0
   -1.9395    4.2793    2.2088 S   0  0  0  0  0  0  0  0  0  0  0  0
   -1.7206    5.6562    1.9339 O   0  0  0  0  0  0  0  0  0  0  0  0
   -3.2053    3.6833    1.9601 O   0  0  0  0  0  0  0  0  0  0  0  0
   -0.8909    3.4769    1.2093 N   0  0  0  0  0  0  0  0  0  0  0  0
   -0.8571    2.0123    1.2069 C   0  0  0  0  0  0  0  0  0  0  0  0
   -0.1049    1.5216   -0.0318 C   0  0  0  0  0  0  0  0  0  0  0  0
   -0.0697   -0.0080   -0.0343 C   0  0  0  0  0  0  0  0  0  0  0  0
    0.6506   -0.4779   -1.2203 N   0  0  0  0  0  0  0  0  0  0  0  0
    0.8127   -1.8424   -1.4408 C   0  0  0  0  0  0  0  0  0  0  0  0
    0.3977   -2.7474   -0.4768 C   0  0  0  0  0  0  0  0  0  0  0  0
    0.5618   -4.1123   -0.7015 C   0  0  0  0  0  0  0  0  0  0  0  0
    1.1499   -4.5497   -1.9115 C   0  0  0  0  0  0  0  0  0  0  0  0
    1.5600   -3.6206   -2.8675 C   0  0  0  0  0  0  0  0  0  0  0  0
    1.3865   -2.2867   -2.6336 C   0  0  0  0  0  0  0  0  0  0  0  0
    1.8163   -1.3019   -3.6517 N   0  0  0  0  0  0  0  0  0  0  0  0
    2.2164   -1.6832   -4.7371 O   0  0  0  0  0  0  0  0  0  0  0  0
    1.7699   -0.1102   -3.4041 O   0  0  0  0  0  0  0  0  0  0  0  0
    1.3087   -5.9947   -2.1167 C   0  0  0  0  0  0  0  0  0  0  0  0
    1.8075   -6.4374   -3.1354 O   0  0  0  0  0  0  0  0  0  0  0  0
    0.8800   -6.8158   -1.1301 N   0  0  0  0  0  0  0  0  0  0  0  0
    0.3256   -6.3082    0.0018 C   0  0  0  0  0  0  0  0  0  0  0  0
    0.1716   -5.0364    0.2126 N   0  0  0  0  0  0  0  0  0  0  0  0
   -1.9401    4.4919    4.6111 H   0  0  0  0  0  0  0  0  0  0  0  0
   -0.3070    4.1054    3.9754 H   0  0  0  0  0  0  0  0  0  0  0  0
   -1.5529    2.8140    4.0931 H   0  0  0  0  0  0  0  0  0  0  0  0
   -0.2625    4.0076    0.5893 H   0  0  0  0  0  0  0  0  0  0  0  0
   -0.3438    1.6557    2.1121 H   0  0  0  0  0  0  0  0  0  0  0  0
   -1.8849    1.6207    1.1899 H   0  0  0  0  0  0  0  0  0  0  0  0
   -0.6179    1.8775   -0.9374 H   0  0  0  0  0  0  0  0  0  0  0  0
    0.9236    1.9113   -0.0159 H   0  0  0  0  0  0  0  0  0  0  0  0
    0.4435   -0.3646    0.8709 H   0  0  0  0  0  0  0  0  0  0  0  0
   -1.0975   -0.3995   -0.0514 H   0  0  0  0  0  0  0  0  0  0  0  0
    1.0371    0.2016   -1.8910 H   0  0  0  0  0  0  0  0  0  0  0  0
   -0.0578   -2.3906    0.4587 H   0  0  0  0  0  0  0  0  0  0  0  0
    2.0214   -3.9612   -3.8062 H   0  0  0  0  0  0  0  0  0  0  0  0
   -0.0098   -7.0105    0.7791 H   0  0  0  0  0  0  0  0  0  0  0  0
   -0.2569   -4.7213    1.0946 H   0  0  0  0  0  0  0  0  0  0  0  0
  1  2  1  0  0  0  0
  2  3  2  0  0  0  0
  2  4  2  0  0  0  0
  2  5  1  0  0  0  0
  5  6  1  0  0  0  0
  6  7  1  0  0  0  0
  7  8  1  0  0  0  0
  8  9  1  0  0  0  0
  9 10  1  0  0  0  0
 10 15  2  0  0  0  0
 10 11  1  0  0  0  0
 11 12  2  0  0  0  0
 12 23  1  0  0  0  0
 12 13  1  0  0  0  0
 13 14  2  0  0  0  0
 13 19  1  0  0  0  0
 14 15  1  0  0  0  0
 15 16  1  0  0  0  0
 16 17  2  0  0  0  0
 16 18  2  0  0  0  0
 19 20  2  0  0  0  0
 19 21  1  0  0  0  0
 21 22  2  0  0  0  0
 22 23  1  0  0  0  0
  1 24  1  0  0  0  0
  1 25  1  0  0  0  0
  1 26  1  0  0  0  0
  5 27  1  0  0  0  0
  6 28  1  0  0  0  0
  6 29  1  0  0  0  0
  7 30  1  0  0  0  0
  7 31  1  0  0  0  0
  8 32  1  0  0  0  0
  8 33  1  0  0  0  0
  9 34  1  0  0  0  0
 11 35  1  0  0  0  0
 14 36  1  0  0  0  0
 22 37  1  0  0  0  0
 23 38  1  0  0  0  0
M  END
> <Name>
ZINC29530525

> <reference>
BDB4942

> <quality>
0.623

> <status>
decoy

$$$$
ZINC22047827
  SciTegic06141217593D

 41 42  0  0  1  0            999 V2000
    0.0738    4.1638   -0.3767 C   0  0  0  0  0  0  0  0  0  0  0  0
   -1.1491    3.5017   -0.2986 C   0  0  0  0  0  0  0  0  0  0  0  0
   -1.2100    2.1402   -0.2442 C   0  0  0  0  0  0  0  0  0  0  0  0
   -0.0242    1.3988   -0.2567 C   0  0  0  0  0  0  0  0  0  0  0  0
    1.2225    2.0724   -0.3362 C   0  0  0  0  0  0  0  0  0  0  0  0
    1.2483    3.4717   -0.3960 C   0  0  0  0  0  0  0  0  0  0  0  0
    2.3910    1.2886   -0.3517 C   0  0  0  0  0  0  0  0  0  0  0  0
    2.2839   -0.0191   -0.2930 N   0  0  0  0  0  0  0  0  0  0  0  0
    1.1628   -0.6344   -0.2212 N   0  0  0  0  0  0  0  0  0  0  0  0
   -0.0043   -0.0136   -0.1988 C   0  0  0  0  0  0  0  0  0  0  0  0
   -1.1849   -0.7333   -0.1207 N   0  0  0  0  0  0  0  0  0  0  0  0
   -1.1498   -2.1327   -0.0639 N   0  0  0  0  0  0  0  0  0  0  0  0
   -2.2331   -2.7939    0.1040 C   0  0  0  0  0  0  0  0  0  0  0  0
   -3.5586   -2.0770    0.1202 C   0  0  0  0  0  0  0  0  0  0  0  0
   -3.7997   -1.5509    1.4268 O   0  0  0  0  0  0  0  0  0  0  0  0
   -2.1828   -4.2891    0.2856 C   0  0  1  0  0  0  0  0  0  0  0  0
   -2.8974   -4.6695    1.5839 C   0  0  2  0  0  0  0  0  0  0  0  0
   -2.9557   -6.1935    1.7062 C   0  0  2  0  0  0  0  0  0  0  0  0
   -3.6704   -6.5739    3.0045 C   0  0  0  0  0  0  0  0  0  0  0  0
   -3.8283   -7.9929    3.0632 O   0  0  0  0  0  0  0  0  0  0  0  0
   -1.6279   -6.7213    1.7212 O   0  0  0  0  0  0  0  0  0  0  0  0
   -4.2253   -4.1417    1.5690 O   0  0  0  0  0  0  0  0  0  0  0  0
   -2.8300   -4.9250   -0.8184 O   0  0  0  0  0  0  0  0  0  0  0  0
    0.0923    5.2626   -0.4236 H   0  0  0  0  0  0  0  0  0  0  0  0
   -2.0808    4.0862   -0.2805 H   0  0  0  0  0  0  0  0  0  0  0  0
   -2.1830    1.6299   -0.1910 H   0  0  0  0  0  0  0  0  0  0  0  0
    2.2072    4.0071   -0.4580 H   0  0  0  0  0  0  0  0  0  0  0  0
    3.3808    1.7647   -0.4122 H   0  0  0  0  0  0  0  0  0  0  0  0
   -2.0888   -0.2397   -0.1044 H   0  0  0  0  0  0  0  0  0  0  0  0
   -4.3610   -2.7814   -0.1444 H   0  0  0  0  0  0  0  0  0  0  0  0
   -3.5389   -1.2531   -0.6084 H   0  0  0  0  0  0  0  0  0  0  0  0
   -3.0789   -0.9159    1.6660 H   0  0  0  0  0  0  0  0  0  0  0  0
   -1.1341   -4.6175    0.3346 H   0  0  0  0  0  0  0  0  0  0  0  0
   -2.3471   -4.2536    2.4408 H   0  0  0  0  0  0  0  0  0  0  0  0
   -3.5059   -6.6094    0.8493 H   0  0  0  0  0  0  0  0  0  0  0  0
   -4.6598   -6.0941    3.0338 H   0  0  0  0  0  0  0  0  0  0  0  0
   -3.0734   -6.2360    3.8644 H   0  0  0  0  0  0  0  0  0  0  0  0
   -2.9385   -8.4262    3.0380 H   0  0  0  0  0  0  0  0  0  0  0  0
   -1.1320   -6.3478    2.4923 H   0  0  0  0  0  0  0  0  0  0  0  0
   -4.7215   -4.5157    0.7982 H   0  0  0  0  0  0  0  0  0  0  0  0
   -2.3681   -4.6796   -1.6589 H   0  0  0  0  0  0  0  0  0  0  0  0
  1  6  1  0  0  0  0
  1  2  2  0  0  0  0
  2  3  1  0  0  0  0
  3  4  2  0  0  0  0
  4 10  1  0  0  0  0
  4  5  1  0  0  0  0
  5  6  2  0  0  0  0
  5  7  1  0  0  0  0
  7  8  2  0  0  0  0
  8  9  1  0  0  0  0
  9 10  2  0  0  0  0
 10 11  1  0  0  0  0
 11 12  1  0  0  0  0
 12 13  2  0  0  0  0
 13 14  1  0  0  0  0
 13 16  1  0  0  0  0
 14 15  1  0  0  0  0
 16 17  1  0  0  0  0
 16 23  1  0  0  0  0
 17 18  1  0  0  0  0
 17 22  1  0  0  0  0
 18 19  1  0  0  0  0
 18 21  1  0  0  0  0
 19 20  1  0  0  0  0
  1 24  1  0  0  0  0
  2 25  1  0  0  0  0
  3 26  1  0  0  0  0
  6 27  1  0  0  0  0
  7 28  1  0  0  0  0
 11 29  1  0  0  0  0
 14 30  1  0  0  0  0
 14 31  1  0  0  0  0
 15 32  1  0  0  0  0
 16 33  1  0  0  0  0
 17 34  1  0  0  0  0
 18 35  1  0  0  0  0
 19 36  1  0  0  0  0
 19 37  1  0  0  0  0
 20 38  1  0  0  0  0
 21 39  1  0  0  0  0
 22 40  1  0  0  0  0
 23 41  1  0  0  0  0
M  END
> <Name>
ZINC22047827

> <reference>
BDB5013

> <quality>
0.688

> <status>
decoy

$$$$
ZINC20395712
  SciTegic06141217593D

 26 26  0  0  0  0            999 V2000
    2.9604   -4.5886   -2.9756 C   0  0  0  0  0  0  0  0  0  0  0  0
    2.7382   -3.9954   -1.5829 C   0  0  0  0  0  0  0  0  0  0  0  0
    2.0776   -2.3133   -1.7406 S   0  0  0  0  0  0  0  0  0  0  0  0
    1.8733   -1.7595   -0.0253 C   0  0  0  0  0  0  0  0  0  0  0  0
    1.3234   -0.3565   -0.0125 C   0  0  0  0  0  0  0  0  0  0  0  0
    2.0187    0.7454   -0.0132 N   0  0  0  0  0  0  0  0  0  0  0  0
    1.2334    1.7628   -0.0003 N   0  0  0  0  0  0  0  0  0  0  0  0
   -0.0164    1.3612    0.0095 C   0  0  0  0  0  0  0  0  0  0  0  0
    0.0021   -0.0041    0.0020 N   0  0  0  0  0  0  0  0  0  0  0  0
   -1.0755   -0.8436    0.0078 N   0  0  0  0  0  0  0  0  0  0  0  0
   -1.4472    2.3895    0.0222 S   0  0  0  0  0  0  0  0  0  0  0  0
   -0.6621    4.0204    0.0272 C   0  0  0  0  0  0  0  0  0  0  0  0
   -1.7243    5.0892    0.0382 C   0  0  0  0  0  0  0  0  0  0  0  0
   -2.8924    4.7801    0.0424 O   0  0  0  0  0  0  0  0  0  0  0  0
   -1.3729    6.3847    0.0435 O   0  5  0  0  0  0  0  0  0  0  0  0
    3.6764   -3.9650   -3.5311 H   0  0  0  0  0  0  0  0  0  0  0  0
    2.0043   -4.6205   -3.5186 H   0  0  0  0  0  0  0  0  0  0  0  0
    3.3610   -5.6087   -2.8808 H   0  0  0  0  0  0  0  0  0  0  0  0
    2.0220   -4.6195   -1.0283 H   0  0  0  0  0  0  0  0  0  0  0  0
    3.6943   -3.9636   -1.0398 H   0  0  0  0  0  0  0  0  0  0  0  0
    2.8478   -1.7753    0.4848 H   0  0  0  0  0  0  0  0  0  0  0  0
    1.1755   -2.4311    0.4963 H   0  0  0  0  0  0  0  0  0  0  0  0
   -0.8437   -1.8471    0.0002 H   0  0  0  0  0  0  0  0  0  0  0  0
   -2.0525   -0.5178    0.0189 H   0  0  0  0  0  0  0  0  0  0  0  0
   -0.0401    4.1319   -0.8732 H   0  0  0  0  0  0  0  0  0  0  0  0
   -0.0319    4.1213    0.9231 H   0  0  0  0  0  0  0  0  0  0  0  0
  1  2  1  0  0  0  0
  2  3  1  0  0  0  0
  3  4  1  0  0  0  0
  4  5  1  0  0  0  0
  5  9  1  0  0  0  0
  5  6  2  0  0  0  0
  6  7  1  0  0  0  0
  7  8  2  0  0  0  0
  8  9  1  0  0  0  0
  8 11  1  0  0  0  0
  9 10  1  0  0  0  0
 11 12  1  0  0  0  0
 12 13  1  0  0  0  0
 13 14  2  0  0  0  0
 13 15  1  0  0  0  0
  1 16  1  0  0  0  0
  1 17  1  0  0  0  0
  1 18  1  0  0  0  0
  2 19  1  0  0  0  0
  2 20  1  0  0  0  0
  4 21  1  0  0  0  0
  4 22  1  0  0  0  0
 10 23  1  0  0  0  0
 10 24  1  0  0  0  0
 12 25  1  0  0  0  0
 12 26  1  0  0  0  0
M  CHG  1  15  -1
M  END
> <Name>
ZINC20395712

> <reference>
BDB5015

> <quality>
0.712

> <status>
decoy

$$$$
ZINC25049844
  SciTegic06141217593D

 59 61  0  0  0  0            999 V2000
    8.1861  -12.8098   -0.1291 C   0  0  0  0  0  0  0  0  0  0  0  0
    9.1077  -11.6176   -0.1397 C   0  0  0  0  0  0  0  0  0  0  0  0
    8.6063  -10.3240   -0.1340 C   0  0  0  0  0  0  0  0  0  0  0  0
   10.1255   -9.3827   -0.1436 S   0  0  0  0  0  0  0  0  0  0  0  0
   11.2252  -10.7263   -0.1608 C   0  0  0  0  0  0  0  0  0  0  0  0
   10.4066  -11.7679   -0.1584 N   0  0  0  0  0  0  0  0  0  0  0  0
   12.6035  -10.7126   -0.1731 N   0  0  0  0  0  0  0  0  0  0  0  0
   13.1481  -11.4733    0.9609 C   0  0  0  0  0  0  0  0  0  0  0  0
   14.6767  -11.4824    0.8754 C   0  0  0  0  0  0  0  0  0  0  0  0
   15.1556  -10.1351    0.8473 O   0  0  0  0  0  0  0  0  0  0  0  0
   14.6456   -9.3655   -0.2449 C   0  0  0  0  0  0  0  0  0  0  0  0
   13.1167   -9.3349   -0.1707 C   0  0  0  0  0  0  0  0  0  0  0  0
    7.2198   -9.8597   -0.1182 C   0  0  0  0  0  0  0  0  0  0  0  0
    6.3078  -10.6662   -0.1133 O   0  0  0  0  0  0  0  0  0  0  0  0
    6.9516   -8.5389   -0.1089 N   0  0  0  0  0  0  0  0  0  0  0  0
    5.6231   -8.0940   -0.0937 N   0  0  0  0  0  0  0  0  0  0  0  0
    5.3549   -6.7733   -0.0844 C   0  0  0  0  0  0  0  0  0  0  0  0
    6.2634   -5.9699   -0.0892 O   0  0  0  0  0  0  0  0  0  0  0  0
    3.9259   -6.2947   -0.0680 C   0  0  0  0  0  0  0  0  0  0  0  0
    3.9005   -4.7650   -0.0601 C   0  0  0  0  0  0  0  0  0  0  0  0
    2.4497   -4.2791   -0.0434 C   0  0  0  0  0  0  0  0  0  0  0  0
    2.4254   -2.8144   -0.0358 N   0  0  0  0  0  0  0  0  0  0  0  0
    1.2472   -2.1601   -0.0210 C   0  0  0  0  0  0  0  0  0  0  0  0
    0.2045   -2.7855   -0.0140 O   0  0  0  0  0  0  0  0  0  0  0  0
    1.2226   -0.6843   -0.0133 C   0  0  0  0  0  0  0  0  0  0  0  0
    0.0021   -0.0041    0.0020 C   0  0  0  0  0  0  0  0  0  0  0  0
   -0.0166    1.3728    0.0096 C   0  0  0  0  0  0  0  0  0  0  0  0
    1.1765    2.0859    0.0020 C   0  0  0  0  0  0  0  0  0  0  0  0
    2.3926    1.4130   -0.0133 C   0  0  0  0  0  0  0  0  0  0  0  0
    2.4198    0.0363   -0.0209 C   0  0  0  0  0  0  0  0  0  0  0  0
    1.1539    3.4428    0.0096 O   0  0  0  0  0  0  0  0  0  0  0  0
    2.4161    4.1127    0.0011 C   0  0  0  0  0  0  0  0  0  0  0  0
    8.4935  -13.3943    0.7506 H   0  0  0  0  0  0  0  0  0  0  0  0
    8.4684  -13.3907   -1.0195 H   0  0  0  0  0  0  0  0  0  0  0  0
    7.1174  -12.5497   -0.1134 H   0  0  0  0  0  0  0  0  0  0  0  0
   12.7730  -12.5068    0.9253 H   0  0  0  0  0  0  0  0  0  0  0  0
   12.8365  -11.0005    1.9040 H   0  0  0  0  0  0  0  0  0  0  0  0
   15.0905  -12.0005    1.7531 H   0  0  0  0  0  0  0  0  0  0  0  0
   14.9911  -12.0024   -0.0415 H   0  0  0  0  0  0  0  0  0  0  0  0
   15.0361   -8.3389   -0.1850 H   0  0  0  0  0  0  0  0  0  0  0  0
   14.9572   -9.8233   -1.1954 H   0  0  0  0  0  0  0  0  0  0  0  0
   12.7182   -8.7929   -1.0410 H   0  0  0  0  0  0  0  0  0  0  0  0
   12.8048   -8.8272    0.7540 H   0  0  0  0  0  0  0  0  0  0  0  0
    7.7232   -7.8566   -0.1130 H   0  0  0  0  0  0  0  0  0  0  0  0
    4.8515   -8.7763   -0.0896 H   0  0  0  0  0  0  0  0  0  0  0  0
    3.4048   -6.6649   -0.9632 H   0  0  0  0  0  0  0  0  0  0  0  0
    3.4214   -6.6737    0.8330 H   0  0  0  0  0  0  0  0  0  0  0  0
    4.4212   -4.3941    0.8351 H   0  0  0  0  0  0  0  0  0  0  0  0
    4.4036   -4.3841   -0.9611 H   0  0  0  0  0  0  0  0  0  0  0  0
    1.9286   -4.6493   -0.9386 H   0  0  0  0  0  0  0  0  0  0  0  0
    1.9452   -4.6581    0.8576 H   0  0  0  0  0  0  0  0  0  0  0  0
    3.3087   -2.2846   -0.0418 H   0  0  0  0  0  0  0  0  0  0  0  0
   -0.9425   -0.5678    0.0080 H   0  0  0  0  0  0  0  0  0  0  0  0
   -0.9770    1.9090    0.0217 H   0  0  0  0  0  0  0  0  0  0  0  0
    3.3346    1.9810   -0.0193 H   0  0  0  0  0  0  0  0  0  0  0  0
    3.3826   -0.4955   -0.0329 H   0  0  0  0  0  0  0  0  0  0  0  0
    2.9475    3.7600   -0.8951 H   0  0  0  0  0  0  0  0  0  0  0  0
    2.9646    3.7503    0.8831 H   0  0  0  0  0  0  0  0  0  0  0  0
    2.3163    5.2081    0.0080 H   0  0  0  0  0  0  0  0  0  0  0  0
  1  2  1  0  0  0  0
  2  6  1  0  0  0  0
  2  3  2  0  0  0  0
  3  4  1  0  0  0  0
  3 13  1  0  0  0  0
  4  5  1  0  0  0  0
  5  6  2  0  0  0  0
  5  7  1  0  0  0  0
  7 12  1  0  0  0  0
  7  8  1  0  0  0  0
  8  9  1  0  0  0  0
  9 10  1  0  0  0  0
 10 11  1  0  0  0  0
 11 12  1  0  0  0  0
 13 14  2  0  0  0  0
 13 15  1  0  0  0  0
 15 16  1  0  0  0  0
 16 17  1  0  0  0  0
 17 18  2  0  0  0  0
 17 19  1  0  0  0  0
 19 20  1  0  0  0  0
 20 21  1  0  0  0  0
 21 22  1  0  0  0  0
 22 23  1  0  0  0  0
 23 24  2  0  0  0  0
 23 25  1  0  0  0  0
 25 30  2  0  0  0  0
 25 26  1  0  0  0  0
 26 27  2  0  0  0  0
 27 28  1  0  0  0  0
 28 29  2  0  0  0  0
 28 31  1  0  0  0  0
 29 30  1  0  0  0  0
 31 32  1  0  0  0  0
  1 33  1  0  0  0  0
  1 34  1  0  0  0  0
  1 35  1  0  0  0  0
  8 36  1  0  0  0  0
  8 37  1  0  0  0  0
  9 38  1  0  0  0  0
  9 39  1  0  0  0  0
 11 40  1  0  0  0  0
 11 41  1  0  0  0  0
 12 42  1  0  0  0  0
 12 43  1  0  0  0  0
 15 44  1  0  0  0  0
 16 45  1  0  0  0  0
 19 46  1  0  0  0  0
 19 47  1  0  0  0  0
 20 48  1  0  0  0  0
 20 49  1  0  0  0  0
 21 50  1  0  0  0  0
 21 51  1  0  0  0  0
 22 52  1  0  0  0  0
 26 53  1  0  0  0  0
 27 54  1  0  0  0  0
 29 55  1  0  0  0  0
 30 56  1  0  0  0  0
 32 57  1  0  0  0  0
 32 58  1  0  0  0  0
 32 59  1  0  0  0  0
M  END
> <Name>
ZINC25049844

> <reference>
BDB4972

> <quality>
0.668

> <status>
decoy

$$$$
ZINC04794950
  SciTegic06141217593D

 54 54  0  0  0  0            999 V2000
    2.5045   -2.6000    3.5293 C   0  0  0  0  0  0  0  0  0  0  0  0
    1.5174   -1.6085    3.0814 N   0  0  0  0  0  0  0  0  0  0  0  0
    2.1270   -0.6790    1.8177 P   0  0  0  0  0  0  0  0  0  0  0  0
    1.0090    0.3567    1.3213 N   0  0  0  0  0  0  0  0  0  0  0  0
    1.4415    1.5349    0.3253 P   0  0  0  0  0  0  0  0  0  0  0  0
    2.7521    2.2420    0.9178 N   0  0  0  0  0  0  0  0  0  0  0  0
    3.9752    1.3207    1.3895 P   0  0  0  0  0  0  0  0  0  0  0  0
    3.3980    0.1543    2.3250 N   0  0  0  0  0  0  0  0  0  0  0  0
    5.0814    2.2470    2.2559 N   0  0  0  0  0  0  0  0  0  0  0  0
    4.4315    2.9207    3.3881 C   0  0  0  0  0  0  0  0  0  0  0  0
    6.2130    1.4276    2.7099 C   0  0  0  0  0  0  0  0  0  0  0  0
    4.7294    0.6473    0.0440 N   0  0  0  0  0  0  0  0  0  0  0  0
    5.5853    1.6338   -0.6285 C   0  0  0  0  0  0  0  0  0  0  0  0
    5.4964   -0.5496    0.4144 C   0  0  0  0  0  0  0  0  0  0  0  0
    1.7799    0.8965   -1.1947 N   0  0  0  0  0  0  0  0  0  0  0  0
    0.5435    0.6454   -1.9473 C   0  0  0  0  0  0  0  0  0  0  0  0
    2.6840    1.7773   -1.9462 C   0  0  0  0  0  0  0  0  0  0  0  0
    0.1960    2.6603    0.2039 N   0  0  0  0  0  0  0  0  0  0  0  0
   -0.2199    3.1306    1.5320 C   0  0  0  0  0  0  0  0  0  0  0  0
    0.5860    3.7864   -0.6550 C   0  0  0  0  0  0  0  0  0  0  0  0
    2.5779   -1.6805    0.5426 N   0  0  0  0  0  0  0  0  0  0  0  0
    1.4298   -2.4518    0.0475 C   0  0  0  0  0  0  0  0  0  0  0  0
    3.4104   -2.0727    3.8630 H   0  0  0  0  0  0  0  0  0  0  0  0
    2.7610   -3.2527    2.6818 H   0  0  0  0  0  0  0  0  0  0  0  0
    2.0946   -3.2006    4.3547 H   0  0  0  0  0  0  0  0  0  0  0  0
    0.6667   -2.0958    2.7656 H   0  0  0  0  0  0  0  0  0  0  0  0
    3.9910    2.1591    4.0484 H   0  0  0  0  0  0  0  0  0  0  0  0
    3.6301    3.5682    3.0027 H   0  0  0  0  0  0  0  0  0  0  0  0
    5.1642    3.5223    3.9459 H   0  0  0  0  0  0  0  0  0  0  0  0
    6.7079    0.9886    1.8310 H   0  0  0  0  0  0  0  0  0  0  0  0
    5.8305    0.6174    3.3481 H   0  0  0  0  0  0  0  0  0  0  0  0
    6.9283    2.0439    3.2743 H   0  0  0  0  0  0  0  0  0  0  0  0
    6.3465    1.9863    0.0831 H   0  0  0  0  0  0  0  0  0  0  0  0
    4.9649    2.4864   -0.9417 H   0  0  0  0  0  0  0  0  0  0  0  0
    6.0721    1.1820   -1.5054 H   0  0  0  0  0  0  0  0  0  0  0  0
    4.8113   -1.2858    0.8601 H   0  0  0  0  0  0  0  0  0  0  0  0
    6.2547   -0.2680    1.1598 H   0  0  0  0  0  0  0  0  0  0  0  0
    5.9841   -0.9800   -0.4727 H   0  0  0  0  0  0  0  0  0  0  0  0
   -0.0024    1.5938   -2.0589 H   0  0  0  0  0  0  0  0  0  0  0  0
   -0.0791   -0.0623   -1.3803 H   0  0  0  0  0  0  0  0  0  0  0  0
    0.7778    0.2287   -2.9380 H   0  0  0  0  0  0  0  0  0  0  0  0
    3.6190    1.8933   -1.3784 H   0  0  0  0  0  0  0  0  0  0  0  0
    2.2075    2.7625   -2.0577 H   0  0  0  0  0  0  0  0  0  0  0  0
    2.8973    1.3495   -2.9369 H   0  0  0  0  0  0  0  0  0  0  0  0
    0.6452    3.5905    2.0322 H   0  0  0  0  0  0  0  0  0  0  0  0
   -0.5591    2.2674    2.1235 H   0  0  0  0  0  0  0  0  0  0  0  0
   -1.0336    3.8649    1.4393 H   0  0  0  0  0  0  0  0  0  0  0  0
    0.8331    3.4005   -1.6550 H   0  0  0  0  0  0  0  0  0  0  0  0
    1.4772    4.2675   -0.2258 H   0  0  0  0  0  0  0  0  0  0  0  0
   -0.2356    4.5143   -0.7263 H   0  0  0  0  0  0  0  0  0  0  0  0
    3.3101   -2.3310    0.8614 H   0  0  0  0  0  0  0  0  0  0  0  0
    0.6518   -1.7517   -0.2908 H   0  0  0  0  0  0  0  0  0  0  0  0
    1.0302   -3.0611    0.8715 H   0  0  0  0  0  0  0  0  0  0  0  0
    1.7372   -3.1019   -0.7849 H   0  0  0  0  0  0  0  0  0  0  0  0
  1  2  1  0  0  0  0
  2  3  1  0  0  0  0
  3  8  1  0  0  0  0
  3  4  2  0  0  0  0
  3 21  1  0  0  0  0
  4  5  1  0  0  0  0
  5  6  2  0  0  0  0
  5 15  1  0  0  0  0
  5 18  1  0  0  0  0
  6  7  1  0  0  0  0
  7  8  2  0  0  0  0
  7  9  1  0  0  0  0
  7 12  1  0  0  0  0
  9 10  1  0  0  0  0
  9 11  1  0  0  0  0
 12 13  1  0  0  0  0
 12 14  1  0  0  0  0
 15 16  1  0  0  0  0
 15 17  1  0  0  0  0
 18 19  1  0  0  0  0
 18 20  1  0  0  0  0
 21 22  1  0  0  0  0
  1 23  1  0  0  0  0
  1 24  1  0  0  0  0
  1 25  1  0  0  0  0
  2 26  1  0  0  0  0
 10 27  1  0  0  0  0
 10 28  1  0  0  0  0
 10 29  1  0  0  0  0
 11 30  1  0  0  0  0
 11 31  1  0  0  0  0
 11 32  1  0  0  0  0
 13 33  1  0  0  0  0
 13 34  1  0  0  0  0
 13 35  1  0  0  0  0
 14 36  1  0  0  0  0
 14 37  1  0  0  0  0
 14 38  1  0  0  0  0
 16 39  1  0  0  0  0
 16 40  1  0  0  0  0
 16 41  1  0  0  0  0
 17 42  1  0  0  0  0
 17 43  1  0  0  0  0
 17 44  1  0  0  0  0
 19 45  1  0  0  0  0
 19 46  1  0  0  0  0
 19 47  1  0  0  0  0
 20 48  1  0  0  0  0
 20 49  1  0  0  0  0
 20 50  1  0  0  0  0
 21 51  1  0  0  0  0
 22 52  1  0  0  0  0
 22 53  1  0  0  0  0
 22 54  1  0  0  0  0
M  END
> <Name>
ZINC04794950

> <reference>
BDB4952

> <quality>
0.725

> <status>
decoy

$$$$
ZINC09915296
  SciTegic06141217593D

 40 41  0  0  0  0            999 V2000
    7.7121    3.0576   -0.0652 C   0  0  0  0  0  0  0  0  0  0  0  0
    5.6965    2.5409    1.1739 C   0  0  0  0  0  0  0  0  0  0  0  0
    4.4305    1.6809    1.1691 C   0  0  0  0  0  0  0  0  0  0  0  0
    3.6185    2.0156   -0.0092 N   0  0  0  0  0  0  0  0  0  0  0  0
    4.3721    1.7804   -1.2487 C   0  0  0  0  0  0  0  0  0  0  0  0
    5.6381    2.6404   -1.2439 C   0  0  0  0  0  0  0  0  0  0  0  0
    2.4450    1.3164   -0.0096 N   0  0  0  0  0  0  0  0  0  0  0  0
    1.2687    1.9742    0.0072 C   0  0  0  0  0  0  0  0  0  0  0  0
    1.2521    3.1876    0.0226 O   0  0  0  0  0  0  0  0  0  0  0  0
   -0.0143    1.2098    0.0067 C   0  0  0  0  0  0  0  0  0  0  0  0
    0.0023   -0.0038   -0.0087 O   0  0  0  0  0  0  0  0  0  0  0  0
   -1.1906    1.8676    0.0178 N   0  0  0  0  0  0  0  0  0  0  0  0
   -2.3900    1.1567   -0.0859 C   0  0  0  0  0  0  0  0  0  0  0  0
   -3.4675    1.7061   -0.7697 C   0  0  0  0  0  0  0  0  0  0  0  0
   -4.6491    0.9998   -0.8757 C   0  0  0  0  0  0  0  0  0  0  0  0
   -4.7646   -0.2506   -0.2912 C   0  0  0  0  0  0  0  0  0  0  0  0
   -3.6940   -0.7977    0.3957 C   0  0  0  0  0  0  0  0  0  0  0  0
   -2.5082   -0.0973    0.4994 C   0  0  0  0  0  0  0  0  0  0  0  0
   -3.8203   -2.1344    1.0188 N   0  0  0  0  0  0  0  0  0  0  0  0
   -2.8788   -2.6162    1.6228 O   0  0  0  0  0  0  0  0  0  0  0  0
   -4.8659   -2.7525    0.9276 O   0  0  0  0  0  0  0  0  0  0  0  0
   -5.9235   -0.9377   -0.3919 F   0  0  0  0  0  0  0  0  0  0  0  0
    6.4556    2.2783   -0.0668 N   0  3  0  0  0  0  0  0  0  0  0  0
    8.3194    2.7664    0.8045 H   0  0  0  0  0  0  0  0  0  0  0  0
    7.4748    4.1298   -0.0008 H   0  0  0  0  0  0  0  0  0  0  0  0
    8.2736    2.8591   -0.9901 H   0  0  0  0  0  0  0  0  0  0  0  0
    5.4191    3.6045    1.2174 H   0  0  0  0  0  0  0  0  0  0  0  0
    6.3156    2.2819    2.0455 H   0  0  0  0  0  0  0  0  0  0  0  0
    3.8491    1.8767    2.0821 H   0  0  0  0  0  0  0  0  0  0  0  0
    4.7093    0.6175    1.1319 H   0  0  0  0  0  0  0  0  0  0  0  0
    3.7497    2.0499   -2.1147 H   0  0  0  0  0  0  0  0  0  0  0  0
    4.6510    0.7183   -1.3129 H   0  0  0  0  0  0  0  0  0  0  0  0
    5.3621    3.7037   -1.1869 H   0  0  0  0  0  0  0  0  0  0  0  0
    6.2134    2.4541   -2.1628 H   0  0  0  0  0  0  0  0  0  0  0  0
    2.4591    0.2866   -0.0227 H   0  0  0  0  0  0  0  0  0  0  0  0
   -1.2059    2.8940    0.1027 H   0  0  0  0  0  0  0  0  0  0  0  0
   -3.3792    2.7030   -1.2263 H   0  0  0  0  0  0  0  0  0  0  0  0
   -5.4994    1.4305   -1.4248 H   0  0  0  0  0  0  0  0  0  0  0  0
   -1.6580   -0.5323    1.0452 H   0  0  0  0  0  0  0  0  0  0  0  0
    6.6846    1.2752   -0.1135 H   0  0  0  0  0  0  0  0  0  0  0  0
  1 23  1  0  0  0  0
  2  3  1  0  0  0  0
  2 23  1  0  0  0  0
  3  4  1  0  0  0  0
  4  5  1  0  0  0  0
  4  7  1  0  0  0  0
  5  6  1  0  0  0  0
  6 23  1  0  0  0  0
  7  8  1  0  0  0  0
  8  9  2  0  0  0  0
  8 10  1  0  0  0  0
 10 11  2  0  0  0  0
 10 12  1  0  0  0  0
 12 13  1  0  0  0  0
 13 18  2  0  0  0  0
 13 14  1  0  0  0  0
 14 15  2  0  0  0  0
 15 16  1  0  0  0  0
 16 17  2  0  0  0  0
 16 22  1  0  0  0  0
 17 18  1  0  0  0  0
 17 19  1  0  0  0  0
 19 20  2  0  0  0  0
 19 21  2  0  0  0  0
  1 24  1  0  0  0  0
  1 25  1  0  0  0  0
  1 26  1  0  0  0  0
  2 27  1  0  0  0  0
  2 28  1  0  0  0  0
  3 29  1  0  0  0  0
  3 30  1  0  0  0  0
  5 31  1  0  0  0  0
  5 32  1  0  0  0  0
  6 33  1  0  0  0  0
  6 34  1  0  0  0  0
  7 35  1  0  0  0  0
 12 36  1  0  0  0  0
 14 37  1  0  0  0  0
 15 38  1  0  0  0  0
 18 39  1  0  0  0  0
 23 40  1  0  0  0  0
M  CHG  1  23   1
M  END
> <Name>
ZINC09915296

> <reference>
BDB4977

> <quality>
0.669

> <status>
decoy

$$$$
ZINC05521415
  SciTegic06141217593D

 30 31  0  0  1  0            999 V2000
    4.7842    3.2153   -2.3020 C   0  0  0  0  0  0  0  0  0  0  0  0
    4.0275    2.0931   -2.3060 C   0  0  0  0  0  0  0  0  0  0  0  0
    2.8986    2.3973   -1.6248 N   0  0  0  0  0  0  0  0  0  0  0  0
    2.9811    3.6205   -1.2329 N   0  0  0  0  0  0  0  0  0  0  0  0
    4.0938    4.1366   -1.6207 N   0  0  0  0  0  0  0  0  0  0  0  0
    1.7778    1.4885   -1.3714 C   0  0  2  0  0  0  0  0  0  0  0  0
    0.5519    1.8931   -2.2198 C   0  0  1  0  0  0  0  0  0  0  0  0
   -0.6531    1.6221   -1.2915 C   0  0  1  0  0  0  0  0  0  0  0  0
   -0.0127    1.0858    0.0080 C   0  0  1  0  0  0  0  0  0  0  0  0
    1.3342    1.6070   -0.0021 O   0  0  0  0  0  0  0  0  0  0  0  0
   -0.7738    1.6004    1.2315 C   0  0  0  0  0  0  0  0  0  0  0  0
   -0.2135    1.0297    2.4157 O   0  0  0  0  0  0  0  0  0  0  0  0
   -1.3693    2.8317   -1.0345 O   0  0  0  0  0  0  0  0  0  0  0  0
    0.6167    3.2784   -2.5646 O   0  0  0  0  0  0  0  0  0  0  0  0
    4.3717    0.7716   -2.9433 C   0  0  0  0  0  0  0  0  0  0  0  0
    4.9745   -0.1113   -1.9416 N   0  0  0  0  0  0  0  0  0  0  0  0
    4.4888   -1.0942   -1.6938 N   0  3  0  0  0  0  0  0  0  0  0  0
    4.0032   -2.0771   -1.4460 N   0  5  0  0  0  0  0  0  0  0  0  0
    5.7725    3.3444   -2.7674 H   0  0  0  0  0  0  0  0  0  0  0  0
    2.1309    0.4742   -1.6091 H   0  0  0  0  0  0  0  0  0  0  0  0
    0.4903    1.3382   -3.1676 H   0  0  0  0  0  0  0  0  0  0  0  0
   -1.3761    0.9184   -1.7298 H   0  0  0  0  0  0  0  0  0  0  0  0
   -0.0344   -0.0128    0.0591 H   0  0  0  0  0  0  0  0  0  0  0  0
   -0.6929    2.6964    1.2796 H   0  0  0  0  0  0  0  0  0  0  0  0
   -1.8330    1.3140    1.1530 H   0  0  0  0  0  0  0  0  0  0  0  0
    0.7396    1.2875    2.4883 H   0  0  0  0  0  0  0  0  0  0  0  0
   -1.6909    3.2055   -1.8930 H   0  0  0  0  0  0  0  0  0  0  0  0
    1.4451    3.4446   -3.0805 H   0  0  0  0  0  0  0  0  0  0  0  0
    5.0852    0.9341   -3.7646 H   0  0  0  0  0  0  0  0  0  0  0  0
    3.4570    0.3059   -3.3389 H   0  0  0  0  0  0  0  0  0  0  0  0
  1  5  1  0  0  0  0
  1  2  2  0  0  0  0
  2  3  1  0  0  0  0
  2 15  1  0  0  0  0
  3  4  1  0  0  0  0
  3  6  1  0  0  0  0
  4  5  2  0  0  0  0
  6 10  1  0  0  0  0
  6  7  1  0  0  0  0
  7  8  1  0  0  0  0
  7 14  1  0  0  0  0
  8  9  1  0  0  0  0
  8 13  1  0  0  0  0
  9 10  1  0  0  0  0
  9 11  1  0  0  0  0
 11 12  1  0  0  0  0
 15 16  1  0  0  0  0
 16 17  2  0  0  0  0
 17 18  2  0  0  0  0
  1 19  1  0  0  0  0
  6 20  1  0  0  0  0
  7 21  1  0  0  0  0
  8 22  1  0  0  0  0
  9 23  1  0  0  0  0
 11 24  1  0  0  0  0
 11 25  1  0  0  0  0
 12 26  1  0  0  0  0
 13 27  1  0  0  0  0
 14 28  1  0  0  0  0
 15 29  1  0  0  0  0
 15 30  1  0  0  0  0
M  CHG  2  17   1  18  -1
M  END
> <Name>
ZINC05521415

> <reference>
BDB5233

> <quality>
0.733

> <status>
decoy

$$$$
ZINC20292668
  SciTegic06141217593D

 44 44  0  0  0  0            999 V2000
    2.6654    4.1351    0.1166 C   0  0  0  0  0  0  0  0  0  0  0  0
    1.3327    3.4401    0.0074 C   0  0  0  0  0  0  0  0  0  0  0  0
    1.2721    2.0589   -0.0021 C   0  0  0  0  0  0  0  0  0  0  0  0
   -0.0169    1.3453    0.0334 C   0  0  0  0  0  0  0  0  0  0  0  0
   -1.0685    1.9563    0.0677 O   0  0  0  0  0  0  0  0  0  0  0  0
    0.0005   -0.0035    0.0213 N   0  0  0  0  0  0  0  0  0  0  0  0
    1.1516   -0.6889   -0.0214 C   0  0  0  0  0  0  0  0  0  0  0  0
    1.0984   -1.9031   -0.0293 O   0  0  0  0  0  0  0  0  0  0  0  0
    2.3583   -0.1063   -0.0554 N   0  0  0  0  0  0  0  0  0  0  0  0
    2.4938    1.2358   -0.0491 C   0  0  0  0  0  0  0  0  0  0  0  0
    3.5947    1.7528   -0.0802 O   0  0  0  0  0  0  0  0  0  0  0  0
    3.5576   -0.9464   -0.1009 C   0  0  0  0  0  0  0  0  0  0  0  0
    3.9232   -1.2228   -1.5366 C   0  0  0  0  0  0  0  0  0  0  0  0
    5.1242   -0.9352   -1.9737 C   0  0  0  0  0  0  0  0  0  0  0  0
    0.1997    4.1651   -0.0811 N   0  0  0  0  0  0  0  0  0  0  0  0
    0.2702    5.6246   -0.1858 C   0  0  0  0  0  0  0  0  0  0  0  0
   -1.1453    6.1988   -0.2721 C   0  0  0  0  0  0  0  0  0  0  0  0
   -1.0716    7.7231   -0.3814 C   0  0  0  0  0  0  0  0  0  0  0  0
   -2.4307    8.2743   -0.4642 N   0  3  0  0  0  0  0  0  0  0  0  0
   -2.4144    9.7373   -0.3320 C   0  0  0  0  0  0  0  0  0  0  0  0
   -3.0894    7.8659   -1.7122 C   0  0  0  0  0  0  0  0  0  0  0  0
    3.2589    3.7491   -0.7253 H   0  0  0  0  0  0  0  0  0  0  0  0
    3.1174    3.7431    1.0397 H   0  0  0  0  0  0  0  0  0  0  0  0
    2.5964    5.2329    0.1148 H   0  0  0  0  0  0  0  0  0  0  0  0
   -0.8912   -0.5185    0.0454 H   0  0  0  0  0  0  0  0  0  0  0  0
    3.3605   -1.8971    0.4160 H   0  0  0  0  0  0  0  0  0  0  0  0
    4.3897   -0.4251    0.3949 H   0  0  0  0  0  0  0  0  0  0  0  0
    3.1816   -1.6660   -2.2175 H   0  0  0  0  0  0  0  0  0  0  0  0
    5.8658   -0.4920   -1.2929 H   0  0  0  0  0  0  0  0  0  0  0  0
    5.3911   -1.1369   -3.0216 H   0  0  0  0  0  0  0  0  0  0  0  0
   -0.7156    3.6929   -0.0751 H   0  0  0  0  0  0  0  0  0  0  0  0
    0.7771    6.0319    0.7014 H   0  0  0  0  0  0  0  0  0  0  0  0
    0.8332    5.9018   -1.0893 H   0  0  0  0  0  0  0  0  0  0  0  0
   -1.6526    5.7922   -1.1594 H   0  0  0  0  0  0  0  0  0  0  0  0
   -1.7095    5.9236    0.6312 H   0  0  0  0  0  0  0  0  0  0  0  0
   -0.5086    8.0002   -1.2849 H   0  0  0  0  0  0  0  0  0  0  0  0
   -0.5647    8.1304    0.5058 H   0  0  0  0  0  0  0  0  0  0  0  0
   -2.9758    7.8915    0.3214 H   0  0  0  0  0  0  0  0  0  0  0  0
   -1.7969   10.1602   -1.1381 H   0  0  0  0  0  0  0  0  0  0  0  0
   -1.9695   10.0016    0.6387 H   0  0  0  0  0  0  0  0  0  0  0  0
   -3.4377   10.1357   -0.3958 H   0  0  0  0  0  0  0  0  0  0  0  0
   -3.1359    6.7674   -1.7466 H   0  0  0  0  0  0  0  0  0  0  0  0
   -2.4939    8.2278   -2.5633 H   0  0  0  0  0  0  0  0  0  0  0  0
   -4.1051    8.2855   -1.7604 H   0  0  0  0  0  0  0  0  0  0  0  0
  1  2  1  0  0  0  0
  2  3  2  0  0  0  0
  2 15  1  0  0  0  0
  3 10  1  0  0  0  0
  3  4  1  0  0  0  0
  4  5  2  0  0  0  0
  4  6  1  0  0  0  0
  6  7  1  0  0  0  0
  7  8  2  0  0  0  0
  7  9  1  0  0  0  0
  9 10  1  0  0  0  0
  9 12  1  0  0  0  0
 10 11  2  0  0  0  0
 12 13  1  0  0  0  0
 13 14  2  0  0  0  0
 15 16  1  0  0  0  0
 16 17  1  0  0  0  0
 17 18  1  0  0  0  0
 18 19  1  0  0  0  0
 19 20  1  0  0  0  0
 19 21  1  0  0  0  0
  1 22  1  0  0  0  0
  1 23  1  0  0  0  0
  1 24  1  0  0  0  0
  6 25  1  0  0  0  0
 12 26  1  0  0  0  0
 12 27  1  0  0  0  0
 13 28  1  0  0  0  0
 14 29  1  0  0  0  0
 14 30  1  0  0  0  0
 15 31  1  0  0  0  0
 16 32  1  0  0  0  0
 16 33  1  0  0  0  0
 17 34  1  0  0  0  0
 17 35  1  0  0  0  0
 18 36  1  0  0  0  0
 18 37  1  0  0  0  0
 19 38  1  0  0  0  0
 20 39  1  0  0  0  0
 20 40  1  0  0  0  0
 20 41  1  0  0  0  0
 21 42  1  0  0  0  0
 21 43  1  0  0  0  0
 21 44  1  0  0  0  0
M  CHG  1  19   1
M  END
> <Name>
ZINC20292668

> <reference>
BDB5222

> <quality>
0.800

> <status>
decoy

$$$$
ZINC29491643
  SciTegic06141217593D

 46 47  0  0  1  0            999 V2000
    5.5578   -6.2558   -5.1438 C   0  0  0  0  0  0  0  0  0  0  0  0
    5.3939   -6.0080   -6.5783 N   0  0  0  0  0  0  0  0  0  0  0  0
    6.1066   -6.8395   -7.5514 C   0  0  2  0  0  0  0  0  0  0  0  0
    5.7135   -8.3139   -7.3614 C   0  0  0  0  0  0  0  0  0  0  0  0
    6.6836   -9.2248   -8.1517 C   0  0  0  0  0  0  0  0  0  0  0  0
    8.2325   -8.2336   -8.1838 S   0  0  0  0  0  0  0  0  0  0  0  0
    8.5470   -7.9108   -9.5314 O   0  0  0  0  0  0  0  0  0  0  0  0
    9.2074   -8.8730   -7.3714 O   0  0  0  0  0  0  0  0  0  0  0  0
    7.6405   -6.7143   -7.3259 C   0  0  0  0  0  0  0  0  0  0  0  0
    4.5874   -5.0151   -7.0029 C   0  0  0  0  0  0  0  0  0  0  0  0
    4.4518   -4.8099   -8.1905 O   0  0  0  0  0  0  0  0  0  0  0  0
    3.8543   -4.1598   -6.0019 C   0  0  0  0  0  0  0  0  0  0  0  0
    2.8610   -2.9249   -6.8762 S   0  0  0  0  0  0  0  0  0  0  0  0
    2.1344   -2.0901   -5.5052 C   0  0  0  0  0  0  0  0  0  0  0  0
    2.4146   -2.4719   -4.2804 N   0  0  0  0  0  0  0  0  0  0  0  0
    1.7620   -1.9013   -3.2182 C   0  0  0  0  0  0  0  0  0  0  0  0
    0.3669   -1.8934   -3.1762 C   0  0  0  0  0  0  0  0  0  0  0  0
   -0.2857   -1.3185   -2.1053 C   0  0  0  0  0  0  0  0  0  0  0  0
    0.4429   -0.7488   -1.0707 C   0  0  0  0  0  0  0  0  0  0  0  0
    1.8301   -0.7494   -1.1111 C   0  0  0  0  0  0  0  0  0  0  0  0
    2.4909   -1.3271   -2.1754 C   0  0  0  0  0  0  0  0  0  0  0  0
   -0.2044   -0.1831   -0.0169 O   0  0  0  0  0  0  0  0  0  0  0  0
    0.6065    0.3852    1.0134 C   0  0  0  0  0  0  0  0  0  0  0  0
    1.2744   -1.0395   -5.7176 N   0  3  0  0  0  0  0  0  0  0  0  0
    6.6414   -6.1864   -4.9678 H   0  0  0  0  0  0  0  0  0  0  0  0
    5.2776   -7.3106   -5.0061 H   0  0  0  0  0  0  0  0  0  0  0  0
    4.9808   -5.5777   -4.4978 H   0  0  0  0  0  0  0  0  0  0  0  0
    5.8416   -6.5020   -8.5643 H   0  0  0  0  0  0  0  0  0  0  0  0
    4.6877   -8.4698   -7.7266 H   0  0  0  0  0  0  0  0  0  0  0  0
    5.7611   -8.5702   -6.2927 H   0  0  0  0  0  0  0  0  0  0  0  0
    6.8545  -10.1676   -7.6114 H   0  0  0  0  0  0  0  0  0  0  0  0
    6.3188   -9.3809   -9.1777 H   0  0  0  0  0  0  0  0  0  0  0  0
    8.0381   -5.8204   -7.8287 H   0  0  0  0  0  0  0  0  0  0  0  0
    7.8851   -6.7690   -6.2548 H   0  0  0  0  0  0  0  0  0  0  0  0
    3.1951   -4.7938   -5.3907 H   0  0  0  0  0  0  0  0  0  0  0  0
    4.5806   -3.6510   -5.3510 H   0  0  0  0  0  0  0  0  0  0  0  0
    3.1247   -3.2001   -4.1177 H   0  0  0  0  0  0  0  0  0  0  0  0
   -0.2114   -2.3449   -3.9958 H   0  0  0  0  0  0  0  0  0  0  0  0
   -1.3852   -1.3117   -2.0715 H   0  0  0  0  0  0  0  0  0  0  0  0
    2.4036   -0.2886   -0.2933 H   0  0  0  0  0  0  0  0  0  0  0  0
    3.5905   -1.3352   -2.2022 H   0  0  0  0  0  0  0  0  0  0  0  0
    1.2423    1.1391    0.5261 H   0  0  0  0  0  0  0  0  0  0  0  0
    1.2587   -0.4234    1.3750 H   0  0  0  0  0  0  0  0  0  0  0  0
    0.0128    0.8224    1.8297 H   0  0  0  0  0  0  0  0  0  0  0  0
    1.0546   -0.7400   -6.6783 H   0  0  0  0  0  0  0  0  0  0  0  0
    0.8497   -0.5515   -4.9161 H   0  0  0  0  0  0  0  0  0  0  0  0
  1  2  1  0  0  0  0
  2  3  1  0  0  0  0
  2 10  1  0  0  0  0
  3  9  1  0  0  0  0
  3  4  1  0  0  0  0
  4  5  1  0  0  0  0
  5  6  1  0  0  0  0
  6  7  2  0  0  0  0
  6  8  2  0  0  0  0
  6  9  1  0  0  0  0
 10 11  2  0  0  0  0
 10 12  1  0  0  0  0
 12 13  1  0  0  0  0
 13 14  1  0  0  0  0
 14 15  1  0  0  0  0
 14 24  2  0  0  0  0
 15 16  1  0  0  0  0
 16 21  2  0  0  0  0
 16 17  1  0  0  0  0
 17 18  2  0  0  0  0
 18 19  1  0  0  0  0
 19 20  2  0  0  0  0
 19 22  1  0  0  0  0
 20 21  1  0  0  0  0
 22 23  1  0  0  0  0
  1 25  1  0  0  0  0
  1 26  1  0  0  0  0
  1 27  1  0  0  0  0
  3 28  1  0  0  0  0
  4 29  1  0  0  0  0
  4 30  1  0  0  0  0
  5 31  1  0  0  0  0
  5 32  1  0  0  0  0
  9 33  1  0  0  0  0
  9 34  1  0  0  0  0
 12 35  1  0  0  0  0
 12 36  1  0  0  0  0
 15 37  1  0  0  0  0
 17 38  1  0  0  0  0
 18 39  1  0  0  0  0
 20 40  1  0  0  0  0
 21 41  1  0  0  0  0
 23 42  1  0  0  0  0
 23 43  1  0  0  0  0
 23 44  1  0  0  0  0
 24 45  1  0  0  0  0
 24 46  1  0  0  0  0
M  CHG  1  24   1
M  END
> <Name>
ZINC29491643

> <reference>
BDB4952

> <quality>
0.782

> <status>
decoy

$$$$
ZINC26764321
  SciTegic06141217593D

 41 41  0  0  0  0            999 V2000
   -1.6997    4.8826   -5.1556 C   0  0  0  0  0  0  0  0  0  0  0  0
   -1.6777    4.0899   -3.8741 C   0  0  0  0  0  0  0  0  0  0  0  0
   -0.9285    4.5294   -2.8020 C   0  0  0  0  0  0  0  0  0  0  0  0
   -0.9114    3.8057   -1.6232 C   0  0  0  0  0  0  0  0  0  0  0  0
   -1.6354    2.6314   -1.5145 C   0  0  0  0  0  0  0  0  0  0  0  0
   -2.3885    2.1810   -2.5787 C   0  0  0  0  0  0  0  0  0  0  0  0
   -2.4147    2.9095   -3.7692 C   0  0  0  0  0  0  0  0  0  0  0  0
   -3.2194    2.4324   -4.9141 C   0  0  0  0  0  0  0  0  0  0  0  0
   -3.3322    3.1235   -5.9076 O   0  0  0  0  0  0  0  0  0  0  0  0
   -3.8278    1.2312   -4.8561 N   0  0  0  0  0  0  0  0  0  0  0  0
   -1.6010    1.7134   -0.0109 S   0  0  0  0  0  0  0  0  0  0  0  0
   -2.7962    0.9456    0.0236 O   0  0  0  0  0  0  0  0  0  0  0  0
   -1.2551    2.6311    1.0174 O   0  0  0  0  0  0  0  0  0  0  0  0
   -0.3490    0.6354   -0.1240 N   0  0  0  0  0  0  0  0  0  0  0  0
    1.0303    1.1213   -0.2116 C   0  0  0  0  0  0  0  0  0  0  0  0
    1.9816   -0.0161    0.0575 C   0  0  0  0  0  0  0  0  0  0  0  0
    1.5499   -1.1235    0.2988 O   0  0  0  0  0  0  0  0  0  0  0  0
    3.3121    0.1973    0.0302 N   0  0  0  0  0  0  0  0  0  0  0  0
    4.2368   -0.9084    0.2918 C   0  0  0  0  0  0  0  0  0  0  0  0
    5.6774   -0.4010    0.2003 C   0  0  0  0  0  0  0  0  0  0  0  0
    5.9159    0.5462    1.2434 O   0  0  0  0  0  0  0  0  0  0  0  0
    7.2395    1.0848    1.2479 C   0  0  0  0  0  0  0  0  0  0  0  0
   -2.7628    5.0972   -5.3394 H   0  0  0  0  0  0  0  0  0  0  0  0
   -1.3725    4.1763   -5.9329 H   0  0  0  0  0  0  0  0  0  0  0  0
   -1.0842    5.7939   -5.1276 H   0  0  0  0  0  0  0  0  0  0  0  0
   -0.3435    5.4573   -2.8848 H   0  0  0  0  0  0  0  0  0  0  0  0
   -0.3197    4.1653   -0.7685 H   0  0  0  0  0  0  0  0  0  0  0  0
   -2.9672    1.2498   -2.4895 H   0  0  0  0  0  0  0  0  0  0  0  0
   -3.7322    0.6456   -4.0142 H   0  0  0  0  0  0  0  0  0  0  0  0
   -4.3884    0.8988   -5.6537 H   0  0  0  0  0  0  0  0  0  0  0  0
   -0.5400   -0.3767   -0.1328 H   0  0  0  0  0  0  0  0  0  0  0  0
    1.1887    1.9149    0.5335 H   0  0  0  0  0  0  0  0  0  0  0  0
    1.2147    1.5222   -1.2192 H   0  0  0  0  0  0  0  0  0  0  0  0
    3.6787    1.1378   -0.1746 H   0  0  0  0  0  0  0  0  0  0  0  0
    4.0806   -1.7026   -0.4531 H   0  0  0  0  0  0  0  0  0  0  0  0
    4.0532   -1.3095    1.2995 H   0  0  0  0  0  0  0  0  0  0  0  0
    6.3719   -1.2472    0.3083 H   0  0  0  0  0  0  0  0  0  0  0  0
    5.8361    0.0815   -0.7754 H   0  0  0  0  0  0  0  0  0  0  0  0
    7.4065    1.5623    0.2711 H   0  0  0  0  0  0  0  0  0  0  0  0
    7.9399    0.2425    1.3477 H   0  0  0  0  0  0  0  0  0  0  0  0
    7.3789    1.8077    2.0652 H   0  0  0  0  0  0  0  0  0  0  0  0
  1  2  1  0  0  0  0
  2  7  2  0  0  0  0
  2  3  1  0  0  0  0
  3  4  2  0  0  0  0
  4  5  1  0  0  0  0
  5  6  2  0  0  0  0
  5 11  1  0  0  0  0
  6  7  1  0  0  0  0
  7  8  1  0  0  0  0
  8  9  2  0  0  0  0
  8 10  1  0  0  0  0
 11 12  2  0  0  0  0
 11 13  2  0  0  0  0
 11 14  1  0  0  0  0
 14 15  1  0  0  0  0
 15 16  1  0  0  0  0
 16 17  2  0  0  0  0
 16 18  1  0  0  0  0
 18 19  1  0  0  0  0
 19 20  1  0  0  0  0
 20 21  1  0  0  0  0
 21 22  1  0  0  0  0
  1 23  1  0  0  0  0
  1 24  1  0  0  0  0
  1 25  1  0  0  0  0
  3 26  1  0  0  0  0
  4 27  1  0  0  0  0
  6 28  1  0  0  0  0
 10 29  1  0  0  0  0
 10 30  1  0  0  0  0
 14 31  1  0  0  0  0
 15 32  1  0  0  0  0
 15 33  1  0  0  0  0
 18 34  1  0  0  0  0
 19 35  1  0  0  0  0
 19 36  1  0  0  0  0
 20 37  1  0  0  0  0
 20 38  1  0  0  0  0
 22 39  1  0  0  0  0
 22 40  1  0  0  0  0
 22 41  1  0  0  0  0
M  END
> <Name>
ZINC26764321

> <reference>
BDB5024

> <quality>
0.665

> <status>
decoy

$$$$
ZINC16321740
  SciTegic06141217593D

 34 35  0  0  1  0            999 V2000
    6.1399    3.5069    0.1337 C   0  0  0  0  0  0  0  0  0  0  0  0
    4.8804    3.5414    0.9605 C   0  0  0  0  0  0  0  0  0  0  0  0
    4.7033    4.4347    1.7545 O   0  0  0  0  0  0  0  0  0  0  0  0
    3.9553    2.5798    0.8147 O   0  0  0  0  0  0  0  0  0  0  0  0
    2.7673    2.6768    1.6438 C   0  0  0  0  0  0  0  0  0  0  0  0
    1.8356    1.5020    1.3396 C   0  0  1  0  0  0  0  0  0  0  0  0
    0.6221    1.5320    2.2889 C   0  0  2  0  0  0  0  0  0  0  0  0
   -0.5991    1.6164    1.3411 C   0  0  1  0  0  0  0  0  0  0  0  0
   -0.0127    1.0858    0.0080 C   0  0  2  0  0  0  0  0  0  0  0  0
    1.3315    1.6126   -0.0020 O   0  0  0  0  0  0  0  0  0  0  0  0
   -0.7753    1.5961   -1.1341 N   0  0  0  0  0  0  0  0  0  0  0  0
   -0.2726    2.3055   -2.1613 C   0  0  0  0  0  0  0  0  0  0  0  0
   -1.2598    2.5760   -2.9768 N   0  0  0  0  0  0  0  0  0  0  0  0
   -2.3725    2.0323   -2.4510 C   0  0  0  0  0  0  0  0  0  0  0  0
   -2.0392    1.4365   -1.3271 N   0  0  0  0  0  0  0  0  0  0  0  0
   -3.7293    2.0901   -3.0361 C   0  0  0  0  0  0  0  0  0  0  0  0
   -4.6609    1.5581   -2.4644 O   0  0  0  0  0  0  0  0  0  0  0  0
   -3.9331    2.7325   -4.2032 N   0  0  0  0  0  0  0  0  0  0  0  0
   -1.6605    0.7775    1.8010 O   0  0  0  0  0  0  0  0  0  0  0  0
    0.6797    2.6798    3.1382 O   0  0  0  0  0  0  0  0  0  0  0  0
    6.9672    3.5061    0.8587 H   0  0  0  0  0  0  0  0  0  0  0  0
    6.1662    4.4675   -0.4016 H   0  0  0  0  0  0  0  0  0  0  0  0
    6.1853    2.6472   -0.5510 H   0  0  0  0  0  0  0  0  0  0  0  0
    3.0571    2.6491    2.7046 H   0  0  0  0  0  0  0  0  0  0  0  0
    2.2462    3.6218    1.4306 H   0  0  0  0  0  0  0  0  0  0  0  0
    2.4061    0.5702    1.4673 H   0  0  0  0  0  0  0  0  0  0  0  0
    0.5813    0.6552    2.9519 H   0  0  0  0  0  0  0  0  0  0  0  0
   -1.0337    2.6241    1.2653 H   0  0  0  0  0  0  0  0  0  0  0  0
   -0.0461   -0.0110   -0.0684 H   0  0  0  0  0  0  0  0  0  0  0  0
    0.7780    2.6040   -2.2919 H   0  0  0  0  0  0  0  0  0  0  0  0
   -3.1437    3.1832   -4.6876 H   0  0  0  0  0  0  0  0  0  0  0  0
   -4.8782    2.7727   -4.6107 H   0  0  0  0  0  0  0  0  0  0  0  0
   -1.9262    1.0665    2.7098 H   0  0  0  0  0  0  0  0  0  0  0  0
    0.6818    3.4964    2.5785 H   0  0  0  0  0  0  0  0  0  0  0  0
  1  2  1  0  0  0  0
  2  3  2  0  0  0  0
  2  4  1  0  0  0  0
  4  5  1  0  0  0  0
  5  6  1  0  0  0  0
  6 10  1  0  0  0  0
  6  7  1  0  0  0  0
  7  8  1  0  0  0  0
  7 20  1  0  0  0  0
  8  9  1  0  0  0  0
  8 19  1  0  0  0  0
  9 10  1  0  0  0  0
  9 11  1  0  0  0  0
 11 15  1  0  0  0  0
 11 12  1  0  0  0  0
 12 13  2  0  0  0  0
 13 14  1  0  0  0  0
 14 15  2  0  0  0  0
 14 16  1  0  0  0  0
 16 17  2  0  0  0  0
 16 18  1  0  0  0  0
  1 21  1  0  0  0  0
  1 22  1  0  0  0  0
  1 23  1  0  0  0  0
  5 24  1  0  0  0  0
  5 25  1  0  0  0  0
  6 26  1  0  0  0  0
  7 27  1  0  0  0  0
  8 28  1  0  0  0  0
  9 29  1  0  0  0  0
 12 30  1  0  0  0  0
 18 31  1  0  0  0  0
 18 32  1  0  0  0  0
 19 33  1  0  0  0  0
 20 34  1  0  0  0  0
M  END
> <Name>
ZINC16321740

> <reference>
BDB4937

> <quality>
0.731

> <status>
decoy

$$$$
ZINC21981399
  SciTegic06141217593D

 46 47  0  0  1  0            999 V2000
   -4.6388    0.3325   -5.2447 C   0  0  0  0  0  0  0  0  0  0  0  0
   -3.3737    1.1924   -5.2720 C   0  0  1  0  0  0  0  0  0  0  0  0
   -2.9813    1.5680   -3.8417 C   0  0  0  0  0  0  0  0  0  0  0  0
   -2.2352    0.4043   -5.9229 C   0  0  2  0  0  0  0  0  0  0  0  0
   -0.9891    1.2514   -5.9498 C   0  0  0  0  0  0  0  0  0  0  0  0
   -0.6707    1.8255   -6.9642 O   0  0  0  0  0  0  0  0  0  0  0  0
   -0.2329    1.3680   -4.8470 O   0  0  0  0  0  0  0  0  0  0  0  0
    0.9529    2.2001   -4.9458 C   0  0  0  0  0  0  0  0  0  0  0  0
    1.6812    2.2118   -3.6003 C   0  0  0  0  0  0  0  0  0  0  0  0
    2.1639    0.8988   -3.3084 O   0  0  0  0  0  0  0  0  0  0  0  0
    2.8634    0.7995   -2.0663 C   0  0  0  0  0  0  0  0  0  0  0  0
    1.8981    0.7111   -0.9679 N   0  0  0  0  0  0  0  0  0  0  0  0
    1.1136   -0.3741   -0.5856 C   0  0  0  0  0  0  0  0  0  0  0  0
    0.0021   -0.0041    0.0020 N   0  0  0  0  0  0  0  0  0  0  0  0
   -0.0176    1.4447    0.0100 C   0  0  2  0  0  0  0  0  0  0  0  0
    1.5200    1.7382   -0.0031 C   0  0  2  0  0  0  0  0  0  0  0  0
    1.6417    3.1411   -0.3258 N   0  0  0  0  0  0  0  0  0  0  0  0
    0.8476    3.9484    0.3527 C   0  0  0  0  0  0  0  0  0  0  0  0
   -0.0195    3.4565    1.3166 N   0  0  0  0  0  0  0  0  0  0  0  0
   -0.5471    2.1994    1.1811 C   0  0  0  0  0  0  0  0  0  0  0  0
   -1.3709    1.7424    1.9444 O   0  0  0  0  0  0  0  0  0  0  0  0
    0.8811    5.2990    0.0999 N   0  0  0  0  0  0  0  0  0  0  0  0
   -2.6120    0.0437   -7.2962 N   0  3  0  0  0  0  0  0  0  0  0  0
   -5.4580    0.8984   -4.7771 H   0  0  0  0  0  0  0  0  0  0  0  0
   -4.4488   -0.5829   -4.6650 H   0  0  0  0  0  0  0  0  0  0  0  0
   -4.9215    0.0621   -6.2728 H   0  0  0  0  0  0  0  0  0  0  0  0
   -3.5648    2.1073   -5.8521 H   0  0  0  0  0  0  0  0  0  0  0  0
   -2.7898    0.6537   -3.2608 H   0  0  0  0  0  0  0  0  0  0  0  0
   -3.7991    2.1350   -3.3729 H   0  0  0  0  0  0  0  0  0  0  0  0
   -2.0717    2.1863   -3.8606 H   0  0  0  0  0  0  0  0  0  0  0  0
   -2.0441   -0.5106   -5.3429 H   0  0  0  0  0  0  0  0  0  0  0  0
    0.6608    3.2265   -5.2127 H   0  0  0  0  0  0  0  0  0  0  0  0
    1.6212    1.7958   -5.7204 H   0  0  0  0  0  0  0  0  0  0  0  0
    2.5288    2.9113   -3.6481 H   0  0  0  0  0  0  0  0  0  0  0  0
    0.9868    2.5307   -2.8090 H   0  0  0  0  0  0  0  0  0  0  0  0
    3.4950   -0.1011   -2.0720 H   0  0  0  0  0  0  0  0  0  0  0  0
    3.4949    1.6894   -1.9277 H   0  0  0  0  0  0  0  0  0  0  0  0
    1.3951   -1.4235   -0.7574 H   0  0  0  0  0  0  0  0  0  0  0  0
   -0.6895    1.7657   -0.7996 H   0  0  0  0  0  0  0  0  0  0  0  0
    2.1663    1.6576    0.8834 H   0  0  0  0  0  0  0  0  0  0  0  0
   -0.2663    4.0348    2.1324 H   0  0  0  0  0  0  0  0  0  0  0  0
    1.5198    5.6800   -0.6127 H   0  0  0  0  0  0  0  0  0  0  0  0
    0.2634    5.9329    0.6267 H   0  0  0  0  0  0  0  0  0  0  0  0
   -2.7909    0.8998   -7.8403 H   0  0  0  0  0  0  0  0  0  0  0  0
   -3.4635   -0.5356   -7.2788 H   0  0  0  0  0  0  0  0  0  0  0  0
   -1.8459   -0.4869   -7.7350 H   0  0  0  0  0  0  0  0  0  0  0  0
  1  2  1  0  0  0  0
  2  3  1  0  0  0  0
  2  4  1  0  0  0  0
  4  5  1  0  0  0  0
  4 23  1  0  0  0  0
  5  6  2  0  0  0  0
  5  7  1  0  0  0  0
  7  8  1  0  0  0  0
  8  9  1  0  0  0  0
  9 10  1  0  0  0  0
 10 11  1  0  0  0  0
 11 12  1  0  0  0  0
 12 16  1  0  0  0  0
 12 13  1  0  0  0  0
 13 14  2  0  0  0  0
 14 15  1  0  0  0  0
 15 20  1  0  0  0  0
 15 16  1  0  0  0  0
 16 17  1  0  0  0  0
 17 18  2  0  0  0  0
 18 19  1  0  0  0  0
 18 22  1  0  0  0  0
 19 20  1  0  0  0  0
 20 21  2  0  0  0  0
  1 24  1  0  0  0  0
  1 25  1  0  0  0  0
  1 26  1  0  0  0  0
  2 27  1  0  0  0  0
  3 28  1  0  0  0  0
  3 29  1  0  0  0  0
  3 30  1  0  0  0  0
  4 31  1  0  0  0  0
  8 32  1  0  0  0  0
  8 33  1  0  0  0  0
  9 34  1  0  0  0  0
  9 35  1  0  0  0  0
 11 36  1  0  0  0  0
 11 37  1  0  0  0  0
 13 38  1  0  0  0  0
 15 39  1  0  0  0  0
 16 40  1  0  0  0  0
 19 41  1  0  0  0  0
 22 42  1  0  0  0  0
 22 43  1  0  0  0  0
 23 44  1  0  0  0  0
 23 45  1  0  0  0  0
 23 46  1  0  0  0  0
M  CHG  1  23   1
M  END
> <Name>
ZINC21981399

> <reference>
BDB5024

> <quality>
0.762

> <status>
decoy

$$$$
ZINC24331310
  SciTegic06141217593D

 36 36  0  0  0  0            999 V2000
    1.7327    5.7527    0.0159 C   0  0  0  0  0  0  0  0  0  0  0  0
    2.2140    4.4342    0.0047 C   0  0  0  0  0  0  0  0  0  0  0  0
    1.1202    3.6169    0.0108 C   0  0  0  0  0  0  0  0  0  0  0  0
    0.0179    4.3947    0.0196 O   0  0  0  0  0  0  0  0  0  0  0  0
    0.3832    5.6833    0.0281 C   0  0  0  0  0  0  0  0  0  0  0  0
    1.1401    2.1505    0.0027 C   0  0  0  0  0  0  0  0  0  0  0  0
    2.2021    1.5564   -0.0106 O   0  0  0  0  0  0  0  0  0  0  0  0
   -0.0178    1.4608    0.0101 N   0  0  0  0  0  0  0  0  0  0  0  0
    0.0021   -0.0041    0.0020 C   0  0  0  0  0  0  0  0  0  0  0  0
   -1.4333   -0.5336    0.0129 C   0  0  0  0  0  0  0  0  0  0  0  0
   -1.4126   -2.0635    0.0045 C   0  0  0  0  0  0  0  0  0  0  0  0
   -2.8264   -2.5851    0.0152 C   0  0  0  0  0  0  0  0  0  0  0  0
   -3.7553   -1.8125    0.0282 O   0  0  0  0  0  0  0  0  0  0  0  0
   -3.0537   -3.9080    0.0102 O   0  0  0  0  0  0  0  0  0  0  0  0
   -4.4404   -4.3386    0.0212 C   0  0  0  0  0  0  0  0  0  0  0  0
   -4.4988   -5.8444    0.0136 C   0  0  0  0  0  0  0  0  0  0  0  0
   -3.4732   -6.4908    0.0004 O   0  0  0  0  0  0  0  0  0  0  0  0
   -5.6912   -6.4726    0.0216 N   0  0  0  0  0  0  0  0  0  0  0  0
   -5.7435   -7.8193    0.0149 C   0  0  0  0  0  0  0  0  0  0  0  0
   -4.7153   -8.4673    0.0016 O   0  0  0  0  0  0  0  0  0  0  0  0
   -6.9359   -8.4475    0.0229 N   0  0  0  0  0  0  0  0  0  0  0  0
    2.3398    6.6700    0.0149 H   0  0  0  0  0  0  0  0  0  0  0  0
    3.2682    4.1202   -0.0068 H   0  0  0  0  0  0  0  0  0  0  0  0
   -0.3024    6.5434    0.0426 H   0  0  0  0  0  0  0  0  0  0  0  0
   -0.9167    1.9636    0.0214 H   0  0  0  0  0  0  0  0  0  0  0  0
    0.5164   -0.3590   -0.9033 H   0  0  0  0  0  0  0  0  0  0  0  0
    0.5337   -0.3697    0.8929 H   0  0  0  0  0  0  0  0  0  0  0  0
   -1.9481   -0.1794    0.9182 H   0  0  0  0  0  0  0  0  0  0  0  0
   -1.9662   -0.1700   -0.8780 H   0  0  0  0  0  0  0  0  0  0  0  0
   -0.8810   -2.4290    0.8954 H   0  0  0  0  0  0  0  0  0  0  0  0
   -0.8983   -2.4184   -0.9008 H   0  0  0  0  0  0  0  0  0  0  0  0
   -4.9539   -3.9480   -0.8697 H   0  0  0  0  0  0  0  0  0  0  0  0
   -4.9357   -3.9576    0.9265 H   0  0  0  0  0  0  0  0  0  0  0  0
   -6.5625   -5.9234    0.0328 H   0  0  0  0  0  0  0  0  0  0  0  0
   -7.8072   -7.8984    0.0341 H   0  0  0  0  0  0  0  0  0  0  0  0
   -6.9758   -9.4767    0.0178 H   0  0  0  0  0  0  0  0  0  0  0  0
  1  5  2  0  0  0  0
  1  2  1  0  0  0  0
  2  3  2  0  0  0  0
  3  4  1  0  0  0  0
  3  6  1  0  0  0  0
  4  5  1  0  0  0  0
  6  7  2  0  0  0  0
  6  8  1  0  0  0  0
  8  9  1  0  0  0  0
  9 10  1  0  0  0  0
 10 11  1  0  0  0  0
 11 12  1  0  0  0  0
 12 13  2  0  0  0  0
 12 14  1  0  0  0  0
 14 15  1  0  0  0  0
 15 16  1  0  0  0  0
 16 17  2  0  0  0  0
 16 18  1  0  0  0  0
 18 19  1  0  0  0  0
 19 20  2  0  0  0  0
 19 21  1  0  0  0  0
  1 22  1  0  0  0  0
  2 23  1  0  0  0  0
  5 24  1  0  0  0  0
  8 25  1  0  0  0  0
  9 26  1  0  0  0  0
  9 27  1  0  0  0  0
 10 28  1  0  0  0  0
 10 29  1  0  0  0  0
 11 30  1  0  0  0  0
 11 31  1  0  0  0  0
 15 32  1  0  0  0  0
 15 33  1  0  0  0  0
 18 34  1  0  0  0  0
 21 35  1  0  0  0  0
 21 36  1  0  0  0  0
M  END
> <Name>
ZINC24331310

> <reference>
BDB5021

> <quality>
0.648

> <status>
decoy

$$$$
ZINC30516950
  SciTegic06141217593D

 34 36  0  0  0  0            999 V2000
   -8.2264   -0.1883    0.0406 C   0  0  0  0  0  0  0  0  0  0  0  0
   -6.9106   -0.6914    0.0303 C   0  0  0  0  0  0  0  0  0  0  0  0
   -6.0789    0.3865    0.0327 C   0  0  0  0  0  0  0  0  0  0  0  0
   -6.8370    1.5002    0.0490 O   0  0  0  0  0  0  0  0  0  0  0  0
   -8.1355    1.1563    0.0487 C   0  0  0  0  0  0  0  0  0  0  0  0
   -4.6063    0.3427    0.0253 C   0  0  0  0  0  0  0  0  0  0  0  0
   -3.7564    1.4172    0.0276 C   0  0  0  0  0  0  0  0  0  0  0  0
   -2.4567    0.8677    0.0184 C   0  0  0  0  0  0  0  0  0  0  0  0
   -2.5837   -0.4446    0.0061 N   0  0  0  0  0  0  0  0  0  0  0  0
   -3.8244   -0.7768    0.0152 N   0  0  0  0  0  0  0  0  0  0  0  0
   -1.1873    1.6238    0.0165 C   0  0  0  0  0  0  0  0  0  0  0  0
   -1.2038    2.8393    0.0232 O   0  0  0  0  0  0  0  0  0  0  0  0
   -0.0111    0.9658    0.0074 N   0  0  0  0  0  0  0  0  0  0  0  0
    1.1926    1.6828   -0.0003 N   0  0  0  0  0  0  0  0  0  0  0  0
    2.3687    1.0248   -0.0151 C   0  0  0  0  0  0  0  0  0  0  0  0
    2.3852   -0.1920   -0.0217 O   0  0  0  0  0  0  0  0  0  0  0  0
    3.6289    1.7755   -0.0231 C   0  0  0  0  0  0  0  0  0  0  0  0
    4.8981    1.2370   -0.0325 C   0  0  0  0  0  0  0  0  0  0  0  0
    5.7982    2.3071   -0.0412 C   0  0  0  0  0  0  0  0  0  0  0  0
    5.0793    3.4550   -0.0276 C   0  0  0  0  0  0  0  0  0  0  0  0
    3.7598    3.1457   -0.0165 N   0  0  0  0  0  0  0  0  0  0  0  0
    7.2748    2.2037   -0.0558 N   0  0  0  0  0  0  0  0  0  0  0  0
    7.9560    3.2134   -0.0567 O   0  0  0  0  0  0  0  0  0  0  0  0
    7.8085    1.1090   -0.0669 O   0  0  0  0  0  0  0  0  0  0  0  0
   -9.1531   -0.7810    0.0418 H   0  0  0  0  0  0  0  0  0  0  0  0
   -6.6128   -1.7503    0.0219 H   0  0  0  0  0  0  0  0  0  0  0  0
   -8.9841    1.8562    0.0542 H   0  0  0  0  0  0  0  0  0  0  0  0
   -4.0294    2.4828    0.0350 H   0  0  0  0  0  0  0  0  0  0  0  0
   -4.1773   -1.7444    0.0149 H   0  0  0  0  0  0  0  0  0  0  0  0
    0.0029   -0.0641    0.0061 H   0  0  0  0  0  0  0  0  0  0  0  0
    1.1787    2.7127    0.0053 H   0  0  0  0  0  0  0  0  0  0  0  0
    5.1543    0.1673   -0.0331 H   0  0  0  0  0  0  0  0  0  0  0  0
    5.4980    4.4722   -0.0259 H   0  0  0  0  0  0  0  0  0  0  0  0
    2.9841    3.8232   -0.0050 H   0  0  0  0  0  0  0  0  0  0  0  0
  1  5  2  0  0  0  0
  1  2  1  0  0  0  0
  2  3  2  0  0  0  0
  3  4  1  0  0  0  0
  3  6  1  0  0  0  0
  4  5  1  0  0  0  0
  6 10  1  0  0  0  0
  6  7  2  0  0  0  0
  7  8  1  0  0  0  0
  8  9  2  0  0  0  0
  8 11  1  0  0  0  0
  9 10  1  0  0  0  0
 11 12  2  0  0  0  0
 11 13  1  0  0  0  0
 13 14  1  0  0  0  0
 14 15  1  0  0  0  0
 15 16  2  0  0  0  0
 15 17  1  0  0  0  0
 17 21  1  0  0  0  0
 17 18  2  0  0  0  0
 18 19  1  0  0  0  0
 19 20  2  0  0  0  0
 19 22  1  0  0  0  0
 20 21  1  0  0  0  0
 22 23  2  0  0  0  0
 22 24  2  0  0  0  0
  1 25  1  0  0  0  0
  2 26  1  0  0  0  0
  5 27  1  0  0  0  0
  7 28  1  0  0  0  0
 10 29  1  0  0  0  0
 13 30  1  0  0  0  0
 14 31  1  0  0  0  0
 18 32  1  0  0  0  0
 20 33  1  0  0  0  0
 21 34  1  0  0  0  0
M  END
> <Name>
ZINC30516950

> <reference>
BDB4932

> <quality>
0.683

> <status>
decoy

$$$$
ZINC30521525
  SciTegic06141217593D

 51 52  0  0  1  0            999 V2000
    0.3229   -0.5179    0.8221 C   0  0  0  0  0  0  0  0  0  0  0  0
   -0.0027    0.0074   -0.5106 N   0  3  0  0  0  0  0  0  0  0  0  0
   -1.2815   -0.5325   -0.9912 C   0  0  0  0  0  0  0  0  0  0  0  0
   -0.0191    1.4763   -0.5078 C   0  0  0  0  0  0  0  0  0  0  0  0
    1.3936    2.0016   -0.2447 C   0  0  0  0  0  0  0  0  0  0  0  0
    1.3773    3.4665   -0.2420 N   0  0  0  0  0  0  0  0  0  0  0  0
    2.5174    4.1528   -0.0286 C   0  0  0  0  0  0  0  0  0  0  0  0
    3.5596    3.5561    0.1616 O   0  0  0  0  0  0  0  0  0  0  0  0
    2.5010    5.6286   -0.0259 C   0  0  0  0  0  0  0  0  0  0  0  0
    1.3051    6.3160   -0.2501 C   0  0  0  0  0  0  0  0  0  0  0  0
    1.2921    7.6927   -0.2411 C   0  0  0  0  0  0  0  0  0  0  0  0
    2.4700    8.3996   -0.0202 C   0  0  0  0  0  0  0  0  0  0  0  0
    3.6635    7.7183    0.1972 C   0  0  0  0  0  0  0  0  0  0  0  0
    3.6823    6.3418    0.1952 C   0  0  0  0  0  0  0  0  0  0  0  0
    2.4543    9.7939   -0.0171 N   0  0  0  0  0  0  0  0  0  0  0  0
    3.5228   10.4808   -0.4675 C   0  0  0  0  0  0  0  0  0  0  0  0
    4.4594    9.8897   -0.9616 O   0  0  0  0  0  0  0  0  0  0  0  0
    3.5538   11.9834   -0.3572 C   0  0  2  0  0  0  0  0  0  0  0  0
    4.2174   12.5771   -1.6017 C   0  0  0  0  0  0  0  0  0  0  0  0
    5.6866   12.2712   -1.5996 C   0  0  0  0  0  0  0  0  0  0  0  0
    6.3469   11.8914   -0.5531 C   0  0  0  0  0  0  0  0  0  0  0  0
    5.7334   11.6938    0.8022 C   0  0  0  0  0  0  0  0  0  0  0  0
    4.3742   12.3934    0.8724 C   0  0  2  0  0  0  0  0  0  0  0  0
    3.6522   11.9725    2.1264 C   0  0  0  0  0  0  0  0  0  0  0  0
    2.5896   11.4025    2.0494 O   0  0  0  0  0  0  0  0  0  0  0  0
    4.1895   12.2308    3.3291 O   0  5  0  0  0  0  0  0  0  0  0  0
    0.3851   -1.6147    0.7664 H   0  0  0  0  0  0  0  0  0  0  0  0
   -0.4796   -0.2379    1.5204 H   0  0  0  0  0  0  0  0  0  0  0  0
    1.2819   -0.1055    1.1689 H   0  0  0  0  0  0  0  0  0  0  0  0
    0.7348   -0.2996   -1.1608 H   0  0  0  0  0  0  0  0  0  0  0  0
   -2.0745   -0.2524   -0.2822 H   0  0  0  0  0  0  0  0  0  0  0  0
   -1.2099   -1.6292   -1.0362 H   0  0  0  0  0  0  0  0  0  0  0  0
   -1.5122   -0.1310   -1.9890 H   0  0  0  0  0  0  0  0  0  0  0  0
   -0.3693    1.8411   -1.4847 H   0  0  0  0  0  0  0  0  0  0  0  0
   -0.6958    1.8351    0.2817 H   0  0  0  0  0  0  0  0  0  0  0  0
    1.7443    1.6375    0.7323 H   0  0  0  0  0  0  0  0  0  0  0  0
    2.0716    1.6447   -1.0339 H   0  0  0  0  0  0  0  0  0  0  0  0
    0.4945    3.9720   -0.4032 H   0  0  0  0  0  0  0  0  0  0  0  0
    0.3752    5.7578   -0.4336 H   0  0  0  0  0  0  0  0  0  0  0  0
    0.3495    8.2343   -0.4087 H   0  0  0  0  0  0  0  0  0  0  0  0
    4.5931    8.2802    0.3709 H   0  0  0  0  0  0  0  0  0  0  0  0
    4.6262    5.8038    0.3675 H   0  0  0  0  0  0  0  0  0  0  0  0
    1.6261   10.2989    0.3294 H   0  0  0  0  0  0  0  0  0  0  0  0
    2.5227   12.3553   -0.2649 H   0  0  0  0  0  0  0  0  0  0  0  0
    3.7566   12.1454   -2.5024 H   0  0  0  0  0  0  0  0  0  0  0  0
    4.0725   13.6675   -1.6090 H   0  0  0  0  0  0  0  0  0  0  0  0
    6.2366   12.3763   -2.5464 H   0  0  0  0  0  0  0  0  0  0  0  0
    7.4247   11.7017   -0.6640 H   0  0  0  0  0  0  0  0  0  0  0  0
    6.3994   12.1139    1.5703 H   0  0  0  0  0  0  0  0  0  0  0  0
    5.5997   10.6181    0.9891 H   0  0  0  0  0  0  0  0  0  0  0  0
    4.5109   13.4847    0.8891 H   0  0  0  0  0  0  0  0  0  0  0  0
  1  2  1  0  0  0  0
  2  3  1  0  0  0  0
  2  4  1  0  0  0  0
  4  5  1  0  0  0  0
  5  6  1  0  0  0  0
  6  7  1  0  0  0  0
  7  8  2  0  0  0  0
  7  9  1  0  0  0  0
  9 14  2  0  0  0  0
  9 10  1  0  0  0  0
 10 11  2  0  0  0  0
 11 12  1  0  0  0  0
 12 13  2  0  0  0  0
 12 15  1  0  0  0  0
 13 14  1  0  0  0  0
 15 16  1  0  0  0  0
 16 17  2  0  0  0  0
 16 18  1  0  0  0  0
 18 23  1  0  0  0  0
 18 19  1  0  0  0  0
 19 20  1  0  0  0  0
 20 21  2  0  0  0  0
 21 22  1  0  0  0  0
 22 23  1  0  0  0  0
 23 24  1  0  0  0  0
 24 25  2  0  0  0  0
 24 26  1  0  0  0  0
  1 27  1  0  0  0  0
  1 28  1  0  0  0  0
  1 29  1  0  0  0  0
  2 30  1  0  0  0  0
  3 31  1  0  0  0  0
  3 32  1  0  0  0  0
  3 33  1  0  0  0  0
  4 34  1  0  0  0  0
  4 35  1  0  0  0  0
  5 36  1  0  0  0  0
  5 37  1  0  0  0  0
  6 38  1  0  0  0  0
 10 39  1  0  0  0  0
 11 40  1  0  0  0  0
 13 41  1  0  0  0  0
 14 42  1  0  0  0  0
 15 43  1  0  0  0  0
 18 44  1  0  0  0  0
 19 45  1  0  0  0  0
 19 46  1  0  0  0  0
 20 47  1  0  0  0  0
 21 48  1  0  0  0  0
 22 49  1  0  0  0  0
 22 50  1  0  0  0  0
 23 51  1  0  0  0  0
M  CHG  2   2   1  26  -1
M  END
> <Name>
ZINC30521525

> <reference>
BDB4942

> <quality>
0.651

> <status>
decoy

$$$$
ZINC20423298
  SciTegic06141217593D

 41 41  0  0  1  0            999 V2000
   -0.0127    1.0858    0.0080 C   0  0  0  0  0  0  0  0  0  0  0  0
   -0.6816    1.5467    1.1837 O   0  0  0  0  0  0  0  0  0  0  0  0
   -1.9748    1.1630    1.3482 C   0  0  0  0  0  0  0  0  0  0  0  0
   -2.5879    0.3645    0.3944 C   0  0  0  0  0  0  0  0  0  0  0  0
   -3.9062   -0.0306    0.5645 C   0  0  0  0  0  0  0  0  0  0  0  0
   -4.6144    0.3804    1.6838 C   0  0  0  0  0  0  0  0  0  0  0  0
   -4.0029    1.1832    2.6349 C   0  0  0  0  0  0  0  0  0  0  0  0
   -2.6832    1.5747    2.4670 C   0  0  0  0  0  0  0  0  0  0  0  0
   -4.6969    1.5859    3.7317 O   0  0  0  0  0  0  0  0  0  0  0  0
   -4.0044    2.4111    4.6707 C   0  0  0  0  0  0  0  0  0  0  0  0
   -6.0482   -0.0459    1.8667 C   0  0  2  0  0  0  0  0  0  0  0  0
   -6.0932   -1.5148    2.2923 C   0  0  0  0  0  0  0  0  0  0  0  0
   -7.5384   -1.9130    2.5986 C   0  0  0  0  0  0  0  0  0  0  0  0
   -7.5834   -3.3819    3.0242 C   0  0  0  0  0  0  0  0  0  0  0  0
   -9.0069   -3.7741    3.3258 C   0  0  0  0  0  0  0  0  0  0  0  0
   -9.8943   -2.9621    3.2121 O   0  0  0  0  0  0  0  0  0  0  0  0
   -9.2889   -5.0256    3.7209 O   0  5  0  0  0  0  0  0  0  0  0  0
   -6.7736    0.1194    0.6000 N   0  3  0  0  0  0  0  0  0  0  0  0
   -4.5053   -0.8177   -0.3674 O   0  0  0  0  0  0  0  0  0  0  0  0
   -3.7164   -1.2033   -1.4948 C   0  0  0  0  0  0  0  0  0  0  0  0
   -0.6107    1.4370   -0.8458 H   0  0  0  0  0  0  0  0  0  0  0  0
   -0.0692   -0.0125    0.0305 H   0  0  0  0  0  0  0  0  0  0  0  0
    1.0279    1.4367   -0.0546 H   0  0  0  0  0  0  0  0  0  0  0  0
   -2.0285    0.0446   -0.4971 H   0  0  0  0  0  0  0  0  0  0  0  0
   -2.1983    2.2118    3.2213 H   0  0  0  0  0  0  0  0  0  0  0  0
   -3.6587    3.2930    4.1114 H   0  0  0  0  0  0  0  0  0  0  0  0
   -3.1172    1.8427    4.9866 H   0  0  0  0  0  0  0  0  0  0  0  0
   -4.6301    2.6957    5.5295 H   0  0  0  0  0  0  0  0  0  0  0  0
   -6.5193    0.5753    2.6427 H   0  0  0  0  0  0  0  0  0  0  0  0
   -5.7046   -2.1446    1.4785 H   0  0  0  0  0  0  0  0  0  0  0  0
   -5.4762   -1.6561    3.1919 H   0  0  0  0  0  0  0  0  0  0  0  0
   -7.9275   -1.2839    3.4127 H   0  0  0  0  0  0  0  0  0  0  0  0
   -8.1568   -1.7734    1.6996 H   0  0  0  0  0  0  0  0  0  0  0  0
   -6.9665   -3.5232    3.9239 H   0  0  0  0  0  0  0  0  0  0  0  0
   -7.1947   -4.0117    2.2104 H   0  0  0  0  0  0  0  0  0  0  0  0
   -6.3334   -0.4621   -0.1273 H   0  0  0  0  0  0  0  0  0  0  0  0
   -6.7441    1.1081    0.3128 H   0  0  0  0  0  0  0  0  0  0  0  0
   -7.7537   -0.1718    0.7244 H   0  0  0  0  0  0  0  0  0  0  0  0
   -2.8328   -1.7199   -1.0919 H   0  0  0  0  0  0  0  0  0  0  0  0
   -3.3754   -0.2703   -1.9674 H   0  0  0  0  0  0  0  0  0  0  0  0
   -4.2687   -1.8380   -2.2034 H   0  0  0  0  0  0  0  0  0  0  0  0
  1  2  1  0  0  0  0
  2  3  1  0  0  0  0
  3  8  2  0  0  0  0
  3  4  1  0  0  0  0
  4  5  2  0  0  0  0
  5  6  1  0  0  0  0
  5 19  1  0  0  0  0
  6  7  2  0  0  0  0
  6 11  1  0  0  0  0
  7  8  1  0  0  0  0
  7  9  1  0  0  0  0
  9 10  1  0  0  0  0
 11 12  1  0  0  0  0
 11 18  1  0  0  0  0
 12 13  1  0  0  0  0
 13 14  1  0  0  0  0
 14 15  1  0  0  0  0
 15 16  2  0  0  0  0
 15 17  1  0  0  0  0
 19 20  1  0  0  0  0
  1 21  1  0  0  0  0
  1 22  1  0  0  0  0
  1 23  1  0  0  0  0
  4 24  1  0  0  0  0
  8 25  1  0  0  0  0
 10 26  1  0  0  0  0
 10 27  1  0  0  0  0
 10 28  1  0  0  0  0
 11 29  1  0  0  0  0
 12 30  1  0  0  0  0
 12 31  1  0  0  0  0
 13 32  1  0  0  0  0
 13 33  1  0  0  0  0
 14 34  1  0  0  0  0
 14 35  1  0  0  0  0
 18 36  1  0  0  0  0
 18 37  1  0  0  0  0
 18 38  1  0  0  0  0
 20 39  1  0  0  0  0
 20 40  1  0  0  0  0
 20 41  1  0  0  0  0
M  CHG  2  17  -1  18   1
M  END
> <Name>
ZINC20423298

> <reference>
BDB4986

> <quality>
0.824

> <status>
decoy

$$$$
ZINC06414339
  SciTegic06141217593D

 58 60  0  0  1  0            999 V2000
    2.5112   -2.6736   -0.0376 C   0  0  0  0  0  0  0  0  0  0  0  0
    1.2298   -2.0414   -0.0216 O   0  0  0  0  0  0  0  0  0  0  0  0
    1.2123   -0.6815   -0.0136 C   0  0  0  0  0  0  0  0  0  0  0  0
    0.0021   -0.0041    0.0020 C   0  0  0  0  0  0  0  0  0  0  0  0
   -0.0167    1.3769    0.0096 C   0  0  0  0  0  0  0  0  0  0  0  0
    1.1766    2.0871    0.0020 C   0  0  0  0  0  0  0  0  0  0  0  0
    2.3877    1.4080   -0.0123 C   0  0  0  0  0  0  0  0  0  0  0  0
    2.4046    0.0270   -0.0208 C   0  0  0  0  0  0  0  0  0  0  0  0
    1.1585    3.4863    0.0093 N   0  0  0  0  0  0  0  0  0  0  0  0
    0.3780    4.0088   -1.1210 C   0  0  0  0  0  0  0  0  0  0  0  0
    0.3161    5.5355   -1.0324 C   0  0  0  0  0  0  0  0  0  0  0  0
    2.4617    5.5574    0.0878 C   0  0  0  0  0  0  0  0  0  0  0  0
    2.5235    4.0307   -0.0008 C   0  0  0  0  0  0  0  0  0  0  0  0
    1.6622    7.5487   -1.0348 C   0  0  0  0  0  0  0  0  0  0  0  0
    1.0613    8.0578   -2.3465 C   0  0  1  0  0  0  0  0  0  0  0  0
    1.0415    9.5876   -2.3386 C   0  0  0  0  0  0  0  0  0  0  0  0
    0.3754   10.0615   -3.5107 O   0  0  0  0  0  0  0  0  0  0  0  0
    0.2709   11.4064   -3.6588 C   0  0  0  0  0  0  0  0  0  0  0  0
    0.7956   12.2533   -2.6895 C   0  0  0  0  0  0  0  0  0  0  0  0
    0.6959   13.6186   -2.8384 C   0  0  0  0  0  0  0  0  0  0  0  0
    0.0573   14.1522   -3.9609 C   0  0  0  0  0  0  0  0  0  0  0  0
   -0.4735   13.2974   -4.9304 C   0  0  0  0  0  0  0  0  0  0  0  0
   -0.3655   11.9333   -4.7765 C   0  0  0  0  0  0  0  0  0  0  0  0
   -0.0559   15.6151   -4.1221 C   0  0  0  0  0  0  0  0  0  0  0  0
   -0.6116   16.0777   -5.0996 O   0  0  0  0  0  0  0  0  0  0  0  0
    0.4567   16.4379   -3.1859 N   0  0  0  0  0  0  0  0  0  0  0  0
    0.3520   17.7917   -3.3351 N   0  0  0  0  0  0  0  0  0  0  0  0
    1.8528    7.5973   -3.4435 O   0  0  0  0  0  0  0  0  0  0  0  0
    1.6935    6.0708   -1.0658 N   0  3  0  0  0  0  0  0  0  0  0  0
    3.0489   -2.3052    0.8485 H   0  0  0  0  0  0  0  0  0  0  0  0
    3.0317   -2.2950   -0.9296 H   0  0  0  0  0  0  0  0  0  0  0  0
    2.4439   -3.7715   -0.0433 H   0  0  0  0  0  0  0  0  0  0  0  0
   -0.9430   -0.5669    0.0083 H   0  0  0  0  0  0  0  0  0  0  0  0
   -0.9766    1.9140    0.0217 H   0  0  0  0  0  0  0  0  0  0  0  0
    3.3334    1.9698   -0.0169 H   0  0  0  0  0  0  0  0  0  0  0  0
    3.3639   -0.5111   -0.0333 H   0  0  0  0  0  0  0  0  0  0  0  0
   -0.6419    3.5983   -1.0851 H   0  0  0  0  0  0  0  0  0  0  0  0
    0.8590    3.7159   -2.0659 H   0  0  0  0  0  0  0  0  0  0  0  0
   -0.2532    5.9312   -1.8864 H   0  0  0  0  0  0  0  0  0  0  0  0
   -0.1707    5.8314   -0.0914 H   0  0  0  0  0  0  0  0  0  0  0  0
    3.4810    5.9703    0.0639 H   0  0  0  0  0  0  0  0  0  0  0  0
    1.9627    5.8522    1.0227 H   0  0  0  0  0  0  0  0  0  0  0  0
    3.0825    3.6361    0.8605 H   0  0  0  0  0  0  0  0  0  0  0  0
    3.0295    3.7382   -0.9327 H   0  0  0  0  0  0  0  0  0  0  0  0
    2.6858    7.9360   -0.9238 H   0  0  0  0  0  0  0  0  0  0  0  0
    1.0436    7.8856   -0.1900 H   0  0  0  0  0  0  0  0  0  0  0  0
    0.0341    7.6784   -2.4508 H   0  0  0  0  0  0  0  0  0  0  0  0
    0.5074    9.9429   -1.4450 H   0  0  0  0  0  0  0  0  0  0  0  0
    2.0733    9.9687   -2.3248 H   0  0  0  0  0  0  0  0  0  0  0  0
    1.2912   11.8323   -1.8023 H   0  0  0  0  0  0  0  0  0  0  0  0
    1.1184   14.2882   -2.0748 H   0  0  0  0  0  0  0  0  0  0  0  0
   -0.9770   13.7136   -5.8154 H   0  0  0  0  0  0  0  0  0  0  0  0
   -0.7834   11.2597   -5.5391 H   0  0  0  0  0  0  0  0  0  0  0  0
    0.9274   16.0459   -2.3578 H   0  0  0  0  0  0  0  0  0  0  0  0
   -0.1187   18.1837   -4.1632 H   0  0  0  0  0  0  0  0  0  0  0  0
    0.7438   18.4205   -2.6196 H   0  0  0  0  0  0  0  0  0  0  0  0
    1.8659    6.6074   -3.4496 H   0  0  0  0  0  0  0  0  0  0  0  0
    2.1511    5.7644   -1.9362 H   0  0  0  0  0  0  0  0  0  0  0  0
  1  2  1  0  0  0  0
  2  3  1  0  0  0  0
  3  8  2  0  0  0  0
  3  4  1  0  0  0  0
  4  5  2  0  0  0  0
  5  6  1  0  0  0  0
  6  7  2  0  0  0  0
  6  9  1  0  0  0  0
  7  8  1  0  0  0  0
  9 13  1  0  0  0  0
  9 10  1  0  0  0  0
 10 11  1  0  0  0  0
 11 29  1  0  0  0  0
 12 13  1  0  0  0  0
 12 29  1  0  0  0  0
 14 15  1  0  0  0  0
 14 29  1  0  0  0  0
 15 16  1  0  0  0  0
 15 28  1  0  0  0  0
 16 17  1  0  0  0  0
 17 18  1  0  0  0  0
 18 23  2  0  0  0  0
 18 19  1  0  0  0  0
 19 20  2  0  0  0  0
 20 21  1  0  0  0  0
 21 22  2  0  0  0  0
 21 24  1  0  0  0  0
 22 23  1  0  0  0  0
 24 25  2  0  0  0  0
 24 26  1  0  0  0  0
 26 27  1  0  0  0  0
  1 30  1  0  0  0  0
  1 31  1  0  0  0  0
  1 32  1  0  0  0  0
  4 33  1  0  0  0  0
  5 34  1  0  0  0  0
  7 35  1  0  0  0  0
  8 36  1  0  0  0  0
 10 37  1  0  0  0  0
 10 38  1  0  0  0  0
 11 39  1  0  0  0  0
 11 40  1  0  0  0  0
 12 41  1  0  0  0  0
 12 42  1  0  0  0  0
 13 43  1  0  0  0  0
 13 44  1  0  0  0  0
 14 45  1  0  0  0  0
 14 46  1  0  0  0  0
 15 47  1  0  0  0  0
 16 48  1  0  0  0  0
 16 49  1  0  0  0  0
 19 50  1  0  0  0  0
 20 51  1  0  0  0  0
 22 52  1  0  0  0  0
 23 53  1  0  0  0  0
 26 54  1  0  0  0  0
 27 55  1  0  0  0  0
 27 56  1  0  0  0  0
 28 57  1  0  0  0  0
 29 58  1  0  0  0  0
M  CHG  1  29   1
M  END
> <Name>
ZINC06414339

> <reference>
BDB5007

> <quality>
0.715

> <status>
decoy

$$$$
ZINC05974537
  SciTegic06141217593D

 35 36  0  0  1  0            999 V2000
    7.2391    4.8544   -1.2941 C   0  0  0  0  0  0  0  0  0  0  0  0
    6.9342    3.5086   -1.2125 C   0  0  0  0  0  0  0  0  0  0  0  0
    5.6151    3.0960   -1.2385 C   0  0  0  0  0  0  0  0  0  0  0  0
    4.6010    4.0291   -1.3465 C   0  0  0  0  0  0  0  0  0  0  0  0
    4.9061    5.3745   -1.4338 C   0  0  0  0  0  0  0  0  0  0  0  0
    6.2250    5.7876   -1.4021 C   0  0  0  0  0  0  0  0  0  0  0  0
    3.1630    3.5792   -1.3752 C   0  0  0  0  0  0  0  0  0  0  0  0
    1.2350    3.0943    0.0069 C   0  0  2  0  0  0  0  0  0  0  0  0
    0.5460    3.6251    1.2656 C   0  0  0  0  0  0  0  0  0  0  0  0
    0.4956    5.1304    1.2138 C   0  0  0  0  0  0  0  0  0  0  0  0
   -0.4486    5.8836    0.5971 C   0  0  0  0  0  0  0  0  0  0  0  0
   -0.1443    7.1663    0.7762 N   0  0  0  0  0  0  0  0  0  0  0  0
    0.9614    7.2516    1.4859 C   0  0  0  0  0  0  0  0  0  0  0  0
    1.3811    5.9839    1.7791 N   0  0  0  0  0  0  0  0  0  0  0  0
    1.6280    8.4982    1.8984 C   0  0  0  0  0  0  0  0  0  0  0  0
    2.6495    8.4525    2.5551 O   0  0  0  0  0  0  0  0  0  0  0  0
    1.1765    1.5884   -0.0006 C   0  0  0  0  0  0  0  0  0  0  0  0
    2.1986    0.9442   -0.0139 O   0  0  0  0  0  0  0  0  0  0  0  0
    2.6435    3.5324    0.0046 N   0  3  0  0  0  0  0  0  0  0  0  0
    1.1051    9.6901    1.5474 O   0  5  0  0  0  0  0  0  0  0  0  0
   -0.0110    0.9628    0.0073 O   0  5  0  0  0  0  0  0  0  0  0  0
    8.2887    5.1828   -1.2731 H   0  0  0  0  0  0  0  0  0  0  0  0
    7.7412    2.7660   -1.1269 H   0  0  0  0  0  0  0  0  0  0  0  0
    5.3724    2.0251   -1.1732 H   0  0  0  0  0  0  0  0  0  0  0  0
    4.0995    6.1164   -1.5285 H   0  0  0  0  0  0  0  0  0  0  0  0
    6.4675    6.8588   -1.4628 H   0  0  0  0  0  0  0  0  0  0  0  0
    2.5674    4.2893   -1.9677 H   0  0  0  0  0  0  0  0  0  0  0  0
    3.0991    2.5776   -1.8254 H   0  0  0  0  0  0  0  0  0  0  0  0
    0.7251    3.4833   -0.8868 H   0  0  0  0  0  0  0  0  0  0  0  0
   -0.4777    3.2261    1.3194 H   0  0  0  0  0  0  0  0  0  0  0  0
    1.1102    3.3083    2.1551 H   0  0  0  0  0  0  0  0  0  0  0  0
   -1.3179    5.4995    0.0432 H   0  0  0  0  0  0  0  0  0  0  0  0
    2.2144    5.7267    2.3271 H   0  0  0  0  0  0  0  0  0  0  0  0
    3.2067    2.8721    0.5593 H   0  0  0  0  0  0  0  0  0  0  0  0
    2.7094    4.4694    0.4272 H   0  0  0  0  0  0  0  0  0  0  0  0
  1  6  2  0  0  0  0
  1  2  1  0  0  0  0
  2  3  2  0  0  0  0
  3  4  1  0  0  0  0
  4  5  2  0  0  0  0
  4  7  1  0  0  0  0
  5  6  1  0  0  0  0
  7 19  1  0  0  0  0
  8  9  1  0  0  0  0
  8 17  1  0  0  0  0
  8 19  1  0  0  0  0
  9 10  1  0  0  0  0
 10 14  1  0  0  0  0
 10 11  2  0  0  0  0
 11 12  1  0  0  0  0
 12 13  2  0  0  0  0
 13 14  1  0  0  0  0
 13 15  1  0  0  0  0
 15 16  2  0  0  0  0
 15 20  1  0  0  0  0
 17 18  2  0  0  0  0
 17 21  1  0  0  0  0
  1 22  1  0  0  0  0
  2 23  1  0  0  0  0
  3 24  1  0  0  0  0
  5 25  1  0  0  0  0
  6 26  1  0  0  0  0
  7 27  1  0  0  0  0
  7 28  1  0  0  0  0
  8 29  1  0  0  0  0
  9 30  1  0  0  0  0
  9 31  1  0  0  0  0
 11 32  1  0  0  0  0
 14 33  1  0  0  0  0
 19 34  1  0  0  0  0
 19 35  1  0  0  0  0
M  CHG  3  19   1  20  -1  21  -1
M  END
> <Name>
ZINC05974537

> <reference>
BDB5009

> <quality>
0.774

> <status>
decoy

$$$$
ZINC15939612
  SciTegic06141217593D

 54 56  0  0  1  0            999 V2000
   -5.3891    3.0219   -6.4664 C   0  0  0  0  0  0  0  0  0  0  0  0
   -4.1602    3.9275   -6.5700 C   0  0  0  0  0  0  0  0  0  0  0  0
   -2.9774    3.1141   -6.8624 N   0  0  0  0  0  0  0  0  0  0  0  0
   -2.6580    2.8931   -8.1542 C   0  0  0  0  0  0  0  0  0  0  0  0
   -3.3366    3.3576   -9.0518 O   0  0  0  0  0  0  0  0  0  0  0  0
   -1.4722    2.0782   -8.4526 C   0  0  0  0  0  0  0  0  0  0  0  0
   -1.0582    1.7927   -9.7499 C   0  0  0  0  0  0  0  0  0  0  0  0
    0.0668    1.0201   -9.9454 C   0  0  0  0  0  0  0  0  0  0  0  0
    0.7864    0.5277   -8.8645 C   0  0  0  0  0  0  0  0  0  0  0  0
    0.3924    0.7995   -7.5714 C   0  0  0  0  0  0  0  0  0  0  0  0
   -0.7363    1.5815   -7.3518 C   0  0  0  0  0  0  0  0  0  0  0  0
   -1.2270    1.9128   -6.0044 C   0  0  0  0  0  0  0  0  0  0  0  0
   -2.3025    2.6517   -5.8788 N   0  0  0  0  0  0  0  0  0  0  0  0
   -0.5129    1.4237   -4.8083 C   0  0  0  0  0  0  0  0  0  0  0  0
    0.4839    0.7388   -4.9330 O   0  0  0  0  0  0  0  0  0  0  0  0
   -0.9661    1.7364   -3.5781 N   0  0  0  0  0  0  0  0  0  0  0  0
   -0.2884    1.2723   -2.4431 N   0  0  0  0  0  0  0  0  0  0  0  0
   -0.7416    1.5850   -1.2129 C   0  0  0  0  0  0  0  0  0  0  0  0
   -1.7359    2.2682   -1.0884 O   0  0  0  0  0  0  0  0  0  0  0  0
   -0.0127    1.0858    0.0080 C   0  0  0  0  0  0  0  0  0  0  0  0
   -0.8618    1.6708    1.5005 S   0  0  0  0  0  0  0  0  0  0  0  0
    0.1270    0.9932    2.8620 C   0  0  1  0  0  0  0  0  0  0  0  0
    1.5222    1.6209    2.8407 C   0  0  0  0  0  0  0  0  0  0  0  0
   -0.5444    1.3058    4.1744 C   0  0  0  0  0  0  0  0  0  0  0  0
   -1.3574    2.2032    4.2411 O   0  0  0  0  0  0  0  0  0  0  0  0
   -0.2414    0.5880    5.2742 N   0  0  0  0  0  0  0  0  0  0  0  0
   -0.8630    0.8773    6.4891 C   0  0  0  0  0  0  0  0  0  0  0  0
   -1.8299    1.8886    6.7326 C   0  0  0  0  0  0  0  0  0  0  0  0
   -2.1128    1.7594    8.0488 C   0  0  0  0  0  0  0  0  0  0  0  0
   -1.3584    0.7494    8.5056 O   0  0  0  0  0  0  0  0  0  0  0  0
   -0.6765    0.2682    7.6306 N   0  0  0  0  0  0  0  0  0  0  0  0
   -3.0866    2.5882    8.8463 C   0  0  0  0  0  0  0  0  0  0  0  0
   -5.2395    2.2901   -5.6589 H   0  0  0  0  0  0  0  0  0  0  0  0
   -5.5361    2.4913   -7.4187 H   0  0  0  0  0  0  0  0  0  0  0  0
   -6.2776    3.6321   -6.2468 H   0  0  0  0  0  0  0  0  0  0  0  0
   -4.3105    4.6588   -7.3779 H   0  0  0  0  0  0  0  0  0  0  0  0
   -4.0131    4.4582   -5.6178 H   0  0  0  0  0  0  0  0  0  0  0  0
   -1.6229    2.1796  -10.6110 H   0  0  0  0  0  0  0  0  0  0  0  0
    0.3981    0.7911  -10.9690 H   0  0  0  0  0  0  0  0  0  0  0  0
    1.6815   -0.0865   -9.0421 H   0  0  0  0  0  0  0  0  0  0  0  0
    0.9657    0.4014   -6.7212 H   0  0  0  0  0  0  0  0  0  0  0  0
   -1.8106    2.3165   -3.4724 H   0  0  0  0  0  0  0  0  0  0  0  0
    0.5561    0.6922   -2.5488 H   0  0  0  0  0  0  0  0  0  0  0  0
    0.0018   -0.0141    0.0025 H   0  0  0  0  0  0  0  0  0  0  0  0
    1.0194    1.4662    0.0014 H   0  0  0  0  0  0  0  0  0  0  0  0
    0.2136   -0.0971    2.7449 H   0  0  0  0  0  0  0  0  0  0  0  0
    1.4368    2.7113    2.9581 H   0  0  0  0  0  0  0  0  0  0  0  0
    2.0134    1.3931    1.8832 H   0  0  0  0  0  0  0  0  0  0  0  0
    2.1224    1.2104    3.6661 H   0  0  0  0  0  0  0  0  0  0  0  0
    0.4491   -0.1742    5.2177 H   0  0  0  0  0  0  0  0  0  0  0  0
   -2.2511    2.6098    6.0167 H   0  0  0  0  0  0  0  0  0  0  0  0
   -4.0162    2.4792    8.2685 H   0  0  0  0  0  0  0  0  0  0  0  0
   -2.7348    3.6128    8.6552 H   0  0  0  0  0  0  0  0  0  0  0  0
   -3.1878    2.3387    9.9128 H   0  0  0  0  0  0  0  0  0  0  0  0
  1  2  1  0  0  0  0
  2  3  1  0  0  0  0
  3 13  1  0  0  0  0
  3  4  1  0  0  0  0
  4  5  2  0  0  0  0
  4  6  1  0  0  0  0
  6 11  2  0  0  0  0
  6  7  1  0  0  0  0
  7  8  2  0  0  0  0
  8  9  1  0  0  0  0
  9 10  2  0  0  0  0
 10 11  1  0  0  0  0
 11 12  1  0  0  0  0
 12 13  2  0  0  0  0
 12 14  1  0  0  0  0
 14 15  2  0  0  0  0
 14 16  1  0  0  0  0
 16 17  1  0  0  0  0
 17 18  1  0  0  0  0
 18 19  2  0  0  0  0
 18 20  1  0  0  0  0
 20 21  1  0  0  0  0
 21 22  1  0  0  0  0
 22 23  1  0  0  0  0
 22 24  1  0  0  0  0
 24 25  2  0  0  0  0
 24 26  1  0  0  0  0
 26 27  1  0  0  0  0
 27 31  2  0  0  0  0
 27 28  1  0  0  0  0
 28 29  2  0  0  0  0
 29 30  1  0  0  0  0
 29 32  1  0  0  0  0
 30 31  1  0  0  0  0
  1 33  1  0  0  0  0
  1 34  1  0  0  0  0
  1 35  1  0  0  0  0
  2 36  1  0  0  0  0
  2 37  1  0  0  0  0
  7 38  1  0  0  0  0
  8 39  1  0  0  0  0
  9 40  1  0  0  0  0
 10 41  1  0  0  0  0
 16 42  1  0  0  0  0
 17 43  1  0  0  0  0
 20 44  1  0  0  0  0
 20 45  1  0  0  0  0
 22 46  1  0  0  0  0
 23 47  1  0  0  0  0
 23 48  1  0  0  0  0
 23 49  1  0  0  0  0
 26 50  1  0  0  0  0
 28 51  1  0  0  0  0
 32 52  1  0  0  0  0
 32 53  1  0  0  0  0
 32 54  1  0  0  0  0
M  END
> <Name>
ZINC15939612

> <reference>
BDB4968

> <quality>
0.764

> <status>
decoy

$$$$
ZINC29647851
  SciTegic06141217593D

 62 63  0  0  0  0            999 V2000
    6.0262    4.1258    5.6414 C   0  0  0  0  0  0  0  0  0  0  0  0
    5.2639    5.4521    5.6678 C   0  0  0  0  0  0  0  0  0  0  0  0
    6.1808    6.5489    5.3477 N   0  0  0  0  0  0  0  0  0  0  0  0
    6.2609    7.0604    3.9772 C   0  0  0  0  0  0  0  0  0  0  0  0
    7.3846    6.3699    3.2481 C   0  0  0  0  0  0  0  0  0  0  0  0
    8.6309    6.9614    3.1796 C   0  0  0  0  0  0  0  0  0  0  0  0
    9.6626    6.3281    2.5116 C   0  0  0  0  0  0  0  0  0  0  0  0
    9.4507    5.1010    1.9097 C   0  0  0  0  0  0  0  0  0  0  0  0
    8.2085    4.5019    1.9785 C   0  0  0  0  0  0  0  0  0  0  0  0
    7.1683    5.1377    2.6447 C   0  0  0  0  0  0  0  0  0  0  0  0
    5.9094    4.5365    2.7125 N   0  0  0  0  0  0  0  0  0  0  0  0
    5.6831    3.2368    2.0755 C   0  0  0  0  0  0  0  0  0  0  0  0
    4.2535    2.8127    2.2933 C   0  0  0  0  0  0  0  0  0  0  0  0
    3.4969    3.5270    2.9201 O   0  0  0  0  0  0  0  0  0  0  0  0
    3.7937    1.5857    1.7692 C   0  0  0  0  0  0  0  0  0  0  0  0
    2.4380    1.2238    1.8524 C   0  0  0  0  0  0  0  0  0  0  0  0
    2.0408    0.0260    1.3301 N   0  0  0  0  0  0  0  0  0  0  0  0
    2.9180   -0.8065    0.7481 C   0  0  0  0  0  0  0  0  0  0  0  0
    2.5153   -1.8635    0.3031 O   0  0  0  0  0  0  0  0  0  0  0  0
    4.2235   -0.5126    0.6349 N   0  0  0  0  0  0  0  0  0  0  0  0
    4.7163    0.6462    1.1189 C   0  0  0  0  0  0  0  0  0  0  0  0
    5.9009    0.9074    1.0191 O   0  0  0  0  0  0  0  0  0  0  0  0
    5.1252   -1.4653   -0.0174 C   0  0  0  0  0  0  0  0  0  0  0  0
    0.6302   -0.3606    1.4123 C   0  0  0  0  0  0  0  0  0  0  0  0
   -0.1093    0.1412    0.1703 C   0  0  2  0  0  0  0  0  0  0  0  0
   -0.1088    1.6711    0.1598 C   0  0  0  0  0  0  0  0  0  0  0  0
   -1.5518   -0.3682    0.1951 C   0  0  0  0  0  0  0  0  0  0  0  0
    1.5360    2.0536    2.4432 N   0  0  0  0  0  0  0  0  0  0  0  0
    6.9508    7.0874    6.3139 C   0  0  0  0  0  0  0  0  0  0  0  0
    7.7099    7.9953    6.0489 O   0  0  0  0  0  0  0  0  0  0  0  0
    6.8684    6.5612    7.7237 C   0  0  0  0  0  0  0  0  0  0  0  0
    6.8374    4.1531    6.3838 H   0  0  0  0  0  0  0  0  0  0  0  0
    6.4520    3.9663    4.6398 H   0  0  0  0  0  0  0  0  0  0  0  0
    5.3382    3.3018    5.8817 H   0  0  0  0  0  0  0  0  0  0  0  0
    4.8381    5.6117    6.6694 H   0  0  0  0  0  0  0  0  0  0  0  0
    4.4532    5.4240    4.9249 H   0  0  0  0  0  0  0  0  0  0  0  0
    6.4503    8.1437    3.9994 H   0  0  0  0  0  0  0  0  0  0  0  0
    5.3119    6.8647    3.4566 H   0  0  0  0  0  0  0  0  0  0  0  0
    8.8028    7.9374    3.6570 H   0  0  0  0  0  0  0  0  0  0  0  0
   10.6542    6.8013    2.4587 H   0  0  0  0  0  0  0  0  0  0  0  0
   10.2726    4.6018    1.3756 H   0  0  0  0  0  0  0  0  0  0  0  0
    8.0427    3.5223    1.5063 H   0  0  0  0  0  0  0  0  0  0  0  0
    5.1402    5.0069    3.2104 H   0  0  0  0  0  0  0  0  0  0  0  0
    6.3580    2.4885    2.5166 H   0  0  0  0  0  0  0  0  0  0  0  0
    5.8806    3.3178    0.9964 H   0  0  0  0  0  0  0  0  0  0  0  0
    4.7003   -1.6279   -1.0189 H   0  0  0  0  0  0  0  0  0  0  0  0
    5.0106   -2.4043    0.5440 H   0  0  0  0  0  0  0  0  0  0  0  0
    6.1713   -1.1277   -0.0574 H   0  0  0  0  0  0  0  0  0  0  0  0
    0.5528   -1.4565    1.4667 H   0  0  0  0  0  0  0  0  0  0  0  0
    0.1788    0.0840    2.3115 H   0  0  0  0  0  0  0  0  0  0  0  0
    0.3958   -0.2318   -0.7329 H   0  0  0  0  0  0  0  0  0  0  0  0
    0.9279    2.0383    0.1417 H   0  0  0  0  0  0  0  0  0  0  0  0
   -0.6140    2.0452    1.0625 H   0  0  0  0  0  0  0  0  0  0  0  0
   -0.6403    2.0325   -0.7329 H   0  0  0  0  0  0  0  0  0  0  0  0
   -2.0579    0.0045    1.0978 H   0  0  0  0  0  0  0  0  0  0  0  0
   -1.5533   -1.4682    0.2024 H   0  0  0  0  0  0  0  0  0  0  0  0
   -2.0840   -0.0078   -0.6976 H   0  0  0  0  0  0  0  0  0  0  0  0
    1.8513    2.9538    2.8320 H   0  0  0  0  0  0  0  0  0  0  0  0
    0.5435    1.7844    2.5020 H   0  0  0  0  0  0  0  0  0  0  0  0
    7.0864    5.4861    7.6423 H   0  0  0  0  0  0  0  0  0  0  0  0
    5.8097    6.6596    8.0057 H   0  0  0  0  0  0  0  0  0  0  0  0
    7.5402    7.0741    8.4277 H   0  0  0  0  0  0  0  0  0  0  0  0
  1  2  1  0  0  0  0
  2  3  1  0  0  0  0
  3  4  1  0  0  0  0
  3 29  1  0  0  0  0
  4  5  1  0  0  0  0
  5 10  2  0  0  0  0
  5  6  1  0  0  0  0
  6  7  2  0  0  0  0
  7  8  1  0  0  0  0
  8  9  2  0  0  0  0
  9 10  1  0  0  0  0
 10 11  1  0  0  0  0
 11 12  1  0  0  0  0
 12 13  1  0  0  0  0
 13 14  2  0  0  0  0
 13 15  1  0  0  0  0
 15 21  1  0  0  0  0
 15 16  2  0  0  0  0
 16 17  1  0  0  0  0
 16 28  1  0  0  0  0
 17 18  1  0  0  0  0
 17 24  1  0  0  0  0
 18 19  2  0  0  0  0
 18 20  1  0  0  0  0
 20 21  1  0  0  0  0
 20 23  1  0  0  0  0
 21 22  2  0  0  0  0
 24 25  1  0  0  0  0
 25 26  1  0  0  0  0
 25 27  1  0  0  0  0
 29 30  2  0  0  0  0
 29 31  1  0  0  0  0
  1 32  1  0  0  0  0
  1 33  1  0  0  0  0
  1 34  1  0  0  0  0
  2 35  1  0  0  0  0
  2 36  1  0  0  0  0
  4 37  1  0  0  0  0
  4 38  1  0  0  0  0
  6 39  1  0  0  0  0
  7 40  1  0  0  0  0
  8 41  1  0  0  0  0
  9 42  1  0  0  0  0
 11 43  1  0  0  0  0
 12 44  1  0  0  0  0
 12 45  1  0  0  0  0
 23 46  1  0  0  0  0
 23 47  1  0  0  0  0
 23 48  1  0  0  0  0
 24 49  1  0  0  0  0
 24 50  1  0  0  0  0
 25 51  1  0  0  0  0
 26 52  1  0  0  0  0
 26 53  1  0  0  0  0
 26 54  1  0  0  0  0
 27 55  1  0  0  0  0
 27 56  1  0  0  0  0
 27 57  1  0  0  0  0
 28 58  1  0  0  0  0
 28 59  1  0  0  0  0
 31 60  1  0  0  0  0
 31 61  1  0  0  0  0
 31 62  1  0  0  0  0
M  END
> <Name>
ZINC29647851

> <reference>
BDB4946

> <quality>
0.749

> <status>
decoy

$$$$
ZINC05258154
  SciTegic06141217593D

 43 43  0  0  1  0            999 V2000
    0.7958   -4.9996   -6.9549 C   0  0  0  0  0  0  0  0  0  0  0  0
    0.1696   -3.8436   -6.2184 C   0  0  0  0  0  0  0  0  0  0  0  0
   -0.1578   -2.6861   -6.9004 C   0  0  0  0  0  0  0  0  0  0  0  0
   -0.7325   -1.6231   -6.2282 C   0  0  0  0  0  0  0  0  0  0  0  0
   -0.9818   -1.7147   -4.8729 C   0  0  0  0  0  0  0  0  0  0  0  0
   -0.6541   -2.8757   -4.1850 C   0  0  0  0  0  0  0  0  0  0  0  0
   -0.0718   -3.9393   -4.8619 C   0  0  0  0  0  0  0  0  0  0  0  0
   -0.9049   -2.9715   -2.8118 N   0  0  0  0  0  0  0  0  0  0  0  0
   -0.8107   -1.8766   -2.0316 C   0  0  0  0  0  0  0  0  0  0  0  0
   -0.4164   -0.8299   -2.5005 O   0  0  0  0  0  0  0  0  0  0  0  0
   -1.1954   -1.9529   -0.5765 C   0  0  0  0  0  0  0  0  0  0  0  0
   -0.9966   -0.5834    0.0761 C   0  0  1  0  0  0  0  0  0  0  0  0
   -1.4959   -0.6269    1.4973 C   0  0  0  0  0  0  0  0  0  0  0  0
   -0.7394   -0.3958    2.4107 O   0  0  0  0  0  0  0  0  0  0  0  0
    0.6238    1.2154    0.1146 C   0  0  0  0  0  0  0  0  0  0  0  0
    2.1205    1.5328    0.1060 C   0  0  1  0  0  0  0  0  0  0  0  0
    2.3205    3.0490    0.1533 C   0  0  0  0  0  0  0  0  0  0  0  0
    2.7409    0.9347    1.2459 O   0  0  0  0  0  0  0  0  0  0  0  0
   -1.0878   -0.3635   -6.9754 C   0  0  0  0  0  0  0  0  0  0  0  0
   -2.7809   -0.9223    1.7484 O   0  5  0  0  0  0  0  0  0  0  0  0
    0.4398   -0.2475    0.0688 N   0  3  0  0  0  0  0  0  0  0  0  0
    0.1323   -5.8553   -6.7614 H   0  0  0  0  0  0  0  0  0  0  0  0
    1.7415   -5.1957   -6.4285 H   0  0  0  0  0  0  0  0  0  0  0  0
    0.9426   -4.8154   -8.0294 H   0  0  0  0  0  0  0  0  0  0  0  0
    0.0393   -2.6108   -7.9800 H   0  0  0  0  0  0  0  0  0  0  0  0
   -1.4395   -0.8689   -4.3389 H   0  0  0  0  0  0  0  0  0  0  0  0
    0.1969   -4.8570   -4.3183 H   0  0  0  0  0  0  0  0  0  0  0  0
   -1.1615   -3.8788   -2.3972 H   0  0  0  0  0  0  0  0  0  0  0  0
   -0.5638   -2.6959   -0.0676 H   0  0  0  0  0  0  0  0  0  0  0  0
   -2.2513   -2.2493   -0.4913 H   0  0  0  0  0  0  0  0  0  0  0  0
   -1.5578    0.1790   -0.4841 H   0  0  0  0  0  0  0  0  0  0  0  0
    0.1688    1.6140    1.0333 H   0  0  0  0  0  0  0  0  0  0  0  0
    0.1449    1.6731   -0.7636 H   0  0  0  0  0  0  0  0  0  0  0  0
    2.5752    1.1314   -0.8117 H   0  0  0  0  0  0  0  0  0  0  0  0
    1.8664    3.4514    1.0708 H   0  0  0  0  0  0  0  0  0  0  0  0
    1.8436    3.5104   -0.7240 H   0  0  0  0  0  0  0  0  0  0  0  0
    3.3964    3.2780    0.1471 H   0  0  0  0  0  0  0  0  0  0  0  0
    2.6121   -0.0464    1.2160 H   0  0  0  0  0  0  0  0  0  0  0  0
   -1.7583   -0.6900   -7.7840 H   0  0  0  0  0  0  0  0  0  0  0  0
   -0.1487   -0.0346   -7.4444 H   0  0  0  0  0  0  0  0  0  0  0  0
   -1.5386    0.4162   -6.3439 H   0  0  0  0  0  0  0  0  0  0  0  0
    0.8944   -0.6740    0.8888 H   0  0  0  0  0  0  0  0  0  0  0  0
    0.8738   -0.6187   -0.7884 H   0  0  0  0  0  0  0  0  0  0  0  0
  1  2  1  0  0  0  0
  2  7  2  0  0  0  0
  2  3  1  0  0  0  0
  3  4  2  0  0  0  0
  4  5  1  0  0  0  0
  4 19  1  0  0  0  0
  5  6  2  0  0  0  0
  6  7  1  0  0  0  0
  6  8  1  0  0  0  0
  8  9  1  0  0  0  0
  9 10  2  0  0  0  0
  9 11  1  0  0  0  0
 11 12  1  0  0  0  0
 12 13  1  0  0  0  0
 12 21  1  0  0  0  0
 13 14  2  0  0  0  0
 13 20  1  0  0  0  0
 15 16  1  0  0  0  0
 15 21  1  0  0  0  0
 16 17  1  0  0  0  0
 16 18  1  0  0  0  0
  1 22  1  0  0  0  0
  1 23  1  0  0  0  0
  1 24  1  0  0  0  0
  3 25  1  0  0  0  0
  5 26  1  0  0  0  0
  7 27  1  0  0  0  0
  8 28  1  0  0  0  0
 11 29  1  0  0  0  0
 11 30  1  0  0  0  0
 12 31  1  0  0  0  0
 15 32  1  0  0  0  0
 15 33  1  0  0  0  0
 16 34  1  0  0  0  0
 17 35  1  0  0  0  0
 17 36  1  0  0  0  0
 17 37  1  0  0  0  0
 18 38  1  0  0  0  0
 19 39  1  0  0  0  0
 19 40  1  0  0  0  0
 19 41  1  0  0  0  0
 21 42  1  0  0  0  0
 21 43  1  0  0  0  0
M  CHG  2  20  -1  21   1
M  END
> <Name>
ZINC05258154

> <reference>
BDB4995

> <quality>
0.787

> <status>
decoy

$$$$
ZINC20306535
  SciTegic06141217593D

 33 33  0  0  1  0            999 V2000
   -3.0813    4.5245    6.4887 C   0  0  0  0  0  0  0  0  0  0  0  0
   -2.3596    4.1195    5.2956 O   0  0  0  0  0  0  0  0  0  0  0  0
   -2.7052    2.9409    4.7423 C   0  0  0  0  0  0  0  0  0  0  0  0
   -3.5853    2.2699    5.2428 O   0  0  0  0  0  0  0  0  0  0  0  0
   -2.0137    2.4645    3.5269 C   0  0  0  0  0  0  0  0  0  0  0  0
   -2.3694    1.2433    2.9508 C   0  0  0  0  0  0  0  0  0  0  0  0
   -1.7199    0.8047    1.8157 C   0  0  0  0  0  0  0  0  0  0  0  0
   -0.7181    1.5718    1.2479 C   0  0  0  0  0  0  0  0  0  0  0  0
   -0.3570    2.7804    1.8166 C   0  0  0  0  0  0  0  0  0  0  0  0
   -1.0018    3.2336    2.9487 C   0  0  0  0  0  0  0  0  0  0  0  0
   -0.0127    1.0858    0.0080 C   0  0  0  0  0  0  0  0  0  0  0  0
   -0.8901    1.6867   -1.4616 S   0  0  0  0  0  0  0  0  0  0  0  0
    0.0725    1.0239   -2.8490 C   0  0  0  0  0  0  0  0  0  0  0  0
   -0.5668    1.4614   -4.1683 C   0  0  1  0  0  0  0  0  0  0  0  0
    0.2329    0.9108   -5.3209 C   0  0  0  0  0  0  0  0  0  0  0  0
   -0.1446   -0.0808   -5.8990 O   0  0  0  0  0  0  0  0  0  0  0  0
    1.3645    1.5219   -5.7053 O   0  5  0  0  0  0  0  0  0  0  0  0
   -1.9425    0.9512   -4.2388 N   0  3  0  0  0  0  0  0  0  0  0  0
   -2.9397    3.7194    7.2248 H   0  0  0  0  0  0  0  0  0  0  0  0
   -4.1461    4.5478    6.2138 H   0  0  0  0  0  0  0  0  0  0  0  0
   -2.7425    5.4952    6.8798 H   0  0  0  0  0  0  0  0  0  0  0  0
   -3.1657    0.6325    3.4011 H   0  0  0  0  0  0  0  0  0  0  0  0
   -1.9990   -0.1572    1.3608 H   0  0  0  0  0  0  0  0  0  0  0  0
    0.4461    3.3812    1.3649 H   0  0  0  0  0  0  0  0  0  0  0  0
   -0.7195    4.1986    3.3949 H   0  0  0  0  0  0  0  0  0  0  0  0
    1.0191    1.4670   -0.0003 H   0  0  0  0  0  0  0  0  0  0  0  0
    0.0026   -0.0141    0.0007 H   0  0  0  0  0  0  0  0  0  0  0  0
    1.1025    1.4064   -2.7967 H   0  0  0  0  0  0  0  0  0  0  0  0
    0.0861   -0.0747   -2.7955 H   0  0  0  0  0  0  0  0  0  0  0  0
   -0.5800    2.5600   -4.2228 H   0  0  0  0  0  0  0  0  0  0  0  0
   -2.4899    1.3272   -3.4515 H   0  0  0  0  0  0  0  0  0  0  0  0
   -1.9312   -0.0775   -4.1881 H   0  0  0  0  0  0  0  0  0  0  0  0
   -2.3734    1.2454   -5.1268 H   0  0  0  0  0  0  0  0  0  0  0  0
  1  2  1  0  0  0  0
  2  3  1  0  0  0  0
  3  4  2  0  0  0  0
  3  5  1  0  0  0  0
  5 10  2  0  0  0  0
  5  6  1  0  0  0  0
  6  7  2  0  0  0  0
  7  8  1  0  0  0  0
  8  9  2  0  0  0  0
  8 11  1  0  0  0  0
  9 10  1  0  0  0  0
 11 12  1  0  0  0  0
 12 13  1  0  0  0  0
 13 14  1  0  0  0  0
 14 15  1  0  0  0  0
 14 18  1  0  0  0  0
 15 16  2  0  0  0  0
 15 17  1  0  0  0  0
  1 19  1  0  0  0  0
  1 20  1  0  0  0  0
  1 21  1  0  0  0  0
  6 22  1  0  0  0  0
  7 23  1  0  0  0  0
  9 24  1  0  0  0  0
 10 25  1  0  0  0  0
 11 26  1  0  0  0  0
 11 27  1  0  0  0  0
 13 28  1  0  0  0  0
 13 29  1  0  0  0  0
 14 30  1  0  0  0  0
 18 31  1  0  0  0  0
 18 32  1  0  0  0  0
 18 33  1  0  0  0  0
M  CHG  2  17  -1  18   1
M  END
> <Name>
ZINC20306535

> <reference>
BDB4995

> <quality>
0.764

> <status>
decoy

$$$$
ZINC17218773
  SciTegic06141217593D

 33 34  0  0  0  0            999 V2000
    0.8518   -7.2426    6.5181 C   0  0  0  0  0  0  0  0  0  0  0  0
    0.6832   -7.8316    5.2271 O   0  0  0  0  0  0  0  0  0  0  0  0
    0.2392   -6.9251    4.2340 N   0  0  0  0  0  0  0  0  0  0  0  0
    0.0463   -7.3396    3.0110 C   0  0  0  0  0  0  0  0  0  0  0  0
    0.4836   -8.6888    2.6130 C   0  0  0  0  0  0  0  0  0  0  0  0
    1.3971   -9.3559    3.3553 C   0  0  0  0  0  0  0  0  0  0  0  0
    1.5614  -10.8912    2.4590 S   0  0  0  0  0  0  0  0  0  0  0  0
    0.4055  -10.5385    1.1444 C   0  0  0  0  0  0  0  0  0  0  0  0
    0.0607  -11.2838    0.1253 N   0  0  0  0  0  0  0  0  0  0  0  0
   -0.0276   -9.2758    1.4844 N   0  0  0  0  0  0  0  0  0  0  0  0
   -0.6124   -6.4531    2.0235 C   0  0  0  0  0  0  0  0  0  0  0  0
   -0.6680   -6.7809    0.8544 O   0  0  0  0  0  0  0  0  0  0  0  0
   -1.1501   -5.2831    2.4216 N   0  0  0  0  0  0  0  0  0  0  0  0
   -1.7709   -4.4475    1.4909 C   0  0  0  0  0  0  0  0  0  0  0  0
   -2.3729   -3.2358    1.6716 C   0  0  0  0  0  0  0  0  0  0  0  0
   -2.8924   -2.6371    0.6196 N   0  3  0  0  0  0  0  0  0  0  0  0
   -2.8443   -3.1817   -0.5732 C   0  0  0  0  0  0  0  0  0  0  0  0
   -1.9978   -4.6668   -0.2681 S   0  0  0  0  0  0  0  0  0  0  0  0
   -3.5442   -1.3357    0.7862 C   0  0  0  0  0  0  0  0  0  0  0  0
   -2.5284   -0.2379    0.6022 C   0  0  0  0  0  0  0  0  0  0  0  0
   -1.3780   -0.5141    0.3571 O   0  0  0  0  0  0  0  0  0  0  0  0
   -2.9017    1.0469    0.7107 O   0  5  0  0  0  0  0  0  0  0  0  0
   -0.1166   -6.8146    6.8166 H   0  0  0  0  0  0  0  0  0  0  0  0
    1.5782   -6.4228    6.4165 H   0  0  0  0  0  0  0  0  0  0  0  0
    1.1969   -7.9809    7.2569 H   0  0  0  0  0  0  0  0  0  0  0  0
    1.9077   -9.0347    4.2752 H   0  0  0  0  0  0  0  0  0  0  0  0
    0.5492  -12.1906    0.1223 H   0  0  0  0  0  0  0  0  0  0  0  0
   -0.7207   -8.7832    0.9031 H   0  0  0  0  0  0  0  0  0  0  0  0
   -1.1031   -5.0053    3.4123 H   0  0  0  0  0  0  0  0  0  0  0  0
   -2.4228   -2.7723    2.6679 H   0  0  0  0  0  0  0  0  0  0  0  0
   -3.2396   -2.7957   -1.5244 H   0  0  0  0  0  0  0  0  0  0  0  0
   -3.9776   -1.2679    1.7949 H   0  0  0  0  0  0  0  0  0  0  0  0
   -4.3416   -1.2261    0.0364 H   0  0  0  0  0  0  0  0  0  0  0  0
  1  2  1  0  0  0  0
  2  3  1  0  0  0  0
  3  4  2  0  0  0  0
  4  5  1  0  0  0  0
  4 11  1  0  0  0  0
  5 10  1  0  0  0  0
  5  6  2  0  0  0  0
  6  7  1  0  0  0  0
  7  8  1  0  0  0  0
  8  9  2  0  0  0  0
  8 10  1  0  0  0  0
 11 12  2  0  0  0  0
 11 13  1  0  0  0  0
 13 14  1  0  0  0  0
 14 18  1  0  0  0  0
 14 15  2  0  0  0  0
 15 16  1  0  0  0  0
 16 17  2  0  0  0  0
 16 19  1  0  0  0  0
 17 18  1  0  0  0  0
 19 20  1  0  0  0  0
 20 21  2  0  0  0  0
 20 22  1  0  0  0  0
  1 23  1  0  0  0  0
  1 24  1  0  0  0  0
  1 25  1  0  0  0  0
  6 26  1  0  0  0  0
  9 27  1  0  0  0  0
 10 28  1  0  0  0  0
 13 29  1  0  0  0  0
 15 30  1  0  0  0  0
 17 31  1  0  0  0  0
 19 32  1  0  0  0  0
 19 33  1  0  0  0  0
M  CHG  2  16   1  22  -1
M  END
> <Name>
ZINC17218773

> <reference>
BDB5244

> <quality>
0.706

> <status>
decoy

$$$$
ZINC29840100
  SciTegic06141217593D

 41 41  0  0  1  0            999 V2000
   -1.7691    5.2564    9.3201 C   0  0  0  0  0  0  0  0  0  0  0  0
   -2.0924    5.3356    7.8268 C   0  0  0  0  0  0  0  0  0  0  0  0
   -1.2467    6.4340    7.1794 C   0  0  2  0  0  0  0  0  0  0  0  0
   -1.4657    6.4721    5.6799 C   0  0  0  0  0  0  0  0  0  0  0  0
   -2.5053    6.6943    5.0971 O   0  0  0  0  0  0  0  0  0  0  0  0
   -0.2647    6.2057    5.1295 N   0  0  0  0  0  0  0  0  0  0  0  0
    0.6744    6.0140    6.0629 C   0  0  0  0  0  0  0  0  0  0  0  0
    1.8367    5.7638    5.8106 O   0  0  0  0  0  0  0  0  0  0  0  0
    0.1884    6.1292    7.3121 N   0  5  0  0  0  0  0  0  0  0  0  0
   -0.0277    6.1432    3.7501 N   0  0  0  0  0  0  0  0  0  0  0  0
    0.1422    4.9490    3.1490 C   0  0  0  0  0  0  0  0  0  0  0  0
    0.0899    3.9284    3.8021 O   0  0  0  0  0  0  0  0  0  0  0  0
    0.3972    4.8818    1.6652 C   0  0  0  0  0  0  0  0  0  0  0  0
    0.4086    3.4777    1.2334 N   0  0  0  0  0  0  0  0  0  0  0  0
   -0.9466    2.9109    1.2498 C   0  0  0  0  0  0  0  0  0  0  0  0
   -1.7794    3.5481    0.1356 C   0  0  0  0  0  0  0  0  0  0  0  0
    1.0207    3.3404   -0.0949 C   0  0  0  0  0  0  0  0  0  0  0  0
    1.3870    1.8750   -0.3386 C   0  0  0  0  0  0  0  0  0  0  0  0
    0.1950    1.0886   -0.3923 O   0  0  0  0  0  0  0  0  0  0  0  0
   -1.5676    7.7949    7.8008 C   0  0  0  0  0  0  0  0  0  0  0  0
   -1.9954    6.2215    9.7970 H   0  0  0  0  0  0  0  0  0  0  0  0
   -0.7024    5.0234    9.4535 H   0  0  0  0  0  0  0  0  0  0  0  0
   -2.3768    4.4668    9.7862 H   0  0  0  0  0  0  0  0  0  0  0  0
   -3.1591    5.5686    7.6933 H   0  0  0  0  0  0  0  0  0  0  0  0
   -1.8655    4.3703    7.3507 H   0  0  0  0  0  0  0  0  0  0  0  0
    0.0167    7.0099    3.1954 H   0  0  0  0  0  0  0  0  0  0  0  0
    1.3699    5.3424    1.4380 H   0  0  0  0  0  0  0  0  0  0  0  0
   -0.3982    5.4226    1.1315 H   0  0  0  0  0  0  0  0  0  0  0  0
   -1.4189    3.1150    2.2220 H   0  0  0  0  0  0  0  0  0  0  0  0
   -0.8916    1.8240    1.0898 H   0  0  0  0  0  0  0  0  0  0  0  0
   -1.3091    3.3440   -0.8376 H   0  0  0  0  0  0  0  0  0  0  0  0
   -1.8354    4.6352    0.2942 H   0  0  0  0  0  0  0  0  0  0  0  0
   -2.7943    3.1241    0.1473 H   0  0  0  0  0  0  0  0  0  0  0  0
    1.9293    3.9582   -0.1468 H   0  0  0  0  0  0  0  0  0  0  0  0
    0.3073    3.6722   -0.8636 H   0  0  0  0  0  0  0  0  0  0  0  0
    1.9278    1.7858   -1.2923 H   0  0  0  0  0  0  0  0  0  0  0  0
    2.0265    1.5146    0.4806 H   0  0  0  0  0  0  0  0  0  0  0  0
   -0.3813    1.4111   -1.1299 H   0  0  0  0  0  0  0  0  0  0  0  0
   -1.3555    7.7561    8.8795 H   0  0  0  0  0  0  0  0  0  0  0  0
   -2.6345    8.0160    7.6497 H   0  0  0  0  0  0  0  0  0  0  0  0
   -0.9550    8.5774    7.3291 H   0  0  0  0  0  0  0  0  0  0  0  0
  1  2  1  0  0  0  0
  2  3  1  0  0  0  0
  3  9  1  0  0  0  0
  3  4  1  0  0  0  0
  3 20  1  0  0  0  0
  4  5  2  0  0  0  0
  4  6  1  0  0  0  0
  6  7  1  0  0  0  0
  6 10  1  0  0  0  0
  7  8  2  0  0  0  0
  7  9  1  0  0  0  0
 10 11  1  0  0  0  0
 11 12  2  0  0  0  0
 11 13  1  0  0  0  0
 13 14  1  0  0  0  0
 14 15  1  0  0  0  0
 14 17  1  0  0  0  0
 15 16  1  0  0  0  0
 17 18  1  0  0  0  0
 18 19  1  0  0  0  0
  1 21  1  0  0  0  0
  1 22  1  0  0  0  0
  1 23  1  0  0  0  0
  2 24  1  0  0  0  0
  2 25  1  0  0  0  0
 10 26  1  0  0  0  0
 13 27  1  0  0  0  0
 13 28  1  0  0  0  0
 15 29  1  0  0  0  0
 15 30  1  0  0  0  0
 16 31  1  0  0  0  0
 16 32  1  0  0  0  0
 16 33  1  0  0  0  0
 17 34  1  0  0  0  0
 17 35  1  0  0  0  0
 18 36  1  0  0  0  0
 18 37  1  0  0  0  0
 19 38  1  0  0  0  0
 20 39  1  0  0  0  0
 20 40  1  0  0  0  0
 20 41  1  0  0  0  0
M  CHG  1   9  -1
M  END
> <Name>
ZINC29840100

> <reference>
BDB5195

> <quality>
0.820

> <status>
decoy

$$$$
ZINC13216929
  SciTegic06141217593D

 47 48  0  0  0  0            999 V2000
   -8.7431    2.2637    1.5807 C   0  0  0  0  0  0  0  0  0  0  0  0
   -8.5346    3.5508    0.9127 N   0  0  0  0  0  0  0  0  0  0  0  0
   -9.4835    4.4759    0.6350 C   0  0  0  0  0  0  0  0  0  0  0  0
   -8.8645    5.5102    0.0145 C   0  0  0  0  0  0  0  0  0  0  0  0
   -7.5676    5.2264   -0.0804 N   0  0  0  0  0  0  0  0  0  0  0  0
   -7.3456    4.0432    0.4522 C   0  0  0  0  0  0  0  0  0  0  0  0
   -6.0388    3.3683    0.5421 C   0  0  0  0  0  0  0  0  0  0  0  0
   -5.9548    2.2729    1.0636 O   0  0  0  0  0  0  0  0  0  0  0  0
   -4.9367    3.9651    0.0464 N   0  0  0  0  0  0  0  0  0  0  0  0
   -3.7221    3.2828    0.0317 C   0  0  0  0  0  0  0  0  0  0  0  0
   -3.7021    1.9047   -0.1610 C   0  0  0  0  0  0  0  0  0  0  0  0
   -2.5037    1.2277   -0.1761 C   0  0  0  0  0  0  0  0  0  0  0  0
   -1.3062    1.9257    0.0028 C   0  0  0  0  0  0  0  0  0  0  0  0
   -1.3301    3.3088    0.2022 C   0  0  0  0  0  0  0  0  0  0  0  0
   -2.5315    3.9808    0.2100 C   0  0  0  0  0  0  0  0  0  0  0  0
   -0.0195    1.2030   -0.0129 C   0  0  0  0  0  0  0  0  0  0  0  0
   -0.0005   -0.0010   -0.1816 O   0  0  0  0  0  0  0  0  0  0  0  0
    1.1348    1.8783    0.1542 N   0  0  0  0  0  0  0  0  0  0  0  0
    2.4124    1.1618    0.1326 C   0  0  0  0  0  0  0  0  0  0  0  0
    3.5575    2.1543    0.3438 C   0  0  0  0  0  0  0  0  0  0  0  0
    5.1044    0.8736   -1.0087 C   0  0  0  0  0  0  0  0  0  0  0  0
    5.9387    2.3079    0.7546 C   0  0  0  0  0  0  0  0  0  0  0  0
   -9.5185    6.7466   -0.4700 N   0  0  0  0  0  0  0  0  0  0  0  0
  -10.7180    6.8988   -0.3231 O   0  0  0  0  0  0  0  0  0  0  0  0
   -8.8571    7.6117   -1.0156 O   0  0  0  0  0  0  0  0  0  0  0  0
    4.8368    1.4140    0.3408 N   0  3  0  0  0  0  0  0  0  0  0  0
   -8.0263    2.3125    2.4137 H   0  0  0  0  0  0  0  0  0  0  0  0
   -8.3134    1.5526    0.8598 H   0  0  0  0  0  0  0  0  0  0  0  0
   -9.7719    2.0246    1.8878 H   0  0  0  0  0  0  0  0  0  0  0  0
  -10.5558    4.4021    0.8690 H   0  0  0  0  0  0  0  0  0  0  0  0
   -4.9924    4.9255   -0.3215 H   0  0  0  0  0  0  0  0  0  0  0  0
   -4.6450    1.3558   -0.3014 H   0  0  0  0  0  0  0  0  0  0  0  0
   -2.4886    0.1385   -0.3288 H   0  0  0  0  0  0  0  0  0  0  0  0
   -0.3900    3.8598    0.3527 H   0  0  0  0  0  0  0  0  0  0  0  0
   -2.5504    5.0707    0.3573 H   0  0  0  0  0  0  0  0  0  0  0  0
    1.1187    2.8982    0.2971 H   0  0  0  0  0  0  0  0  0  0  0  0
    2.5368    0.6609   -0.8388 H   0  0  0  0  0  0  0  0  0  0  0  0
    2.4256    0.4111    0.9365 H   0  0  0  0  0  0  0  0  0  0  0  0
    3.4303    2.6647    1.3099 H   0  0  0  0  0  0  0  0  0  0  0  0
    3.5586    2.8940   -0.4703 H   0  0  0  0  0  0  0  0  0  0  0  0
    5.1597    1.7036   -1.7284 H   0  0  0  0  0  0  0  0  0  0  0  0
    4.2879    0.1953   -1.2973 H   0  0  0  0  0  0  0  0  0  0  0  0
    6.0570    0.3236   -1.0064 H   0  0  0  0  0  0  0  0  0  0  0  0
    5.7377    2.6881    1.7671 H   0  0  0  0  0  0  0  0  0  0  0  0
    6.0032    3.1537    0.0543 H   0  0  0  0  0  0  0  0  0  0  0  0
    6.8885    1.7530    0.7510 H   0  0  0  0  0  0  0  0  0  0  0  0
    4.7723    0.6318    1.0078 H   0  0  0  0  0  0  0  0  0  0  0  0
  1  2  1  0  0  0  0
  2  6  1  0  0  0  0
  2  3  1  0  0  0  0
  3  4  2  0  0  0  0
  4  5  1  0  0  0  0
  4 23  1  0  0  0  0
  5  6  2  0  0  0  0
  6  7  1  0  0  0  0
  7  8  2  0  0  0  0
  7  9  1  0  0  0  0
  9 10  1  0  0  0  0
 10 15  2  0  0  0  0
 10 11  1  0  0  0  0
 11 12  2  0  0  0  0
 12 13  1  0  0  0  0
 13 14  2  0  0  0  0
 13 16  1  0  0  0  0
 14 15  1  0  0  0  0
 16 17  2  0  0  0  0
 16 18  1  0  0  0  0
 18 19  1  0  0  0  0
 19 20  1  0  0  0  0
 20 26  1  0  0  0  0
 21 26  1  0  0  0  0
 22 26  1  0  0  0  0
 23 24  2  0  0  0  0
 23 25  2  0  0  0  0
  1 27  1  0  0  0  0
  1 28  1  0  0  0  0
  1 29  1  0  0  0  0
  3 30  1  0  0  0  0
  9 31  1  0  0  0  0
 11 32  1  0  0  0  0
 12 33  1  0  0  0  0
 14 34  1  0  0  0  0
 15 35  1  0  0  0  0
 18 36  1  0  0  0  0
 19 37  1  0  0  0  0
 19 38  1  0  0  0  0
 20 39  1  0  0  0  0
 20 40  1  0  0  0  0
 21 41  1  0  0  0  0
 21 42  1  0  0  0  0
 21 43  1  0  0  0  0
 22 44  1  0  0  0  0
 22 45  1  0  0  0  0
 22 46  1  0  0  0  0
 26 47  1  0  0  0  0
M  CHG  1  26   1
M  END
> <Name>
ZINC13216929

> <reference>
BDB5244

> <quality>
0.664

> <status>
decoy

$$$$
ZINC05667259
  SciTegic06141217593D

 39 40  0  0  1  0            999 V2000
    0.2504    5.5767   -2.2208 C   0  0  0  0  0  0  0  0  0  0  0  0
    0.3089    4.3039   -1.8765 C   0  0  0  0  0  0  0  0  0  0  0  0
    0.0056    3.8920   -0.4589 C   0  5  0  0  0  0  0  0  0  0  0  0
    1.2363    3.2098    0.1080 C   0  0  0  0  0  0  0  0  0  0  0  0
    2.3043    3.7813    0.1596 O   0  0  0  0  0  0  0  0  0  0  0  0
    1.0981    1.9430    0.5533 N   0  0  0  0  0  0  0  0  0  0  0  0
   -0.0734    1.2986    0.5037 C   0  0  0  0  0  0  0  0  0  0  0  0
   -0.1081    0.1602    0.9264 O   0  0  0  0  0  0  0  0  0  0  0  0
   -1.2082    1.8146    0.0179 N   0  0  0  0  0  0  0  0  0  0  0  0
   -1.2708    3.0723   -0.4683 C   0  0  0  0  0  0  0  0  0  0  0  0
   -2.3076    3.5283   -0.9009 O   0  0  0  0  0  0  0  0  0  0  0  0
   -2.3688    1.0273    0.0194 C   0  0  0  0  0  0  0  0  0  0  0  0
   -2.6674    0.2270   -1.0749 C   0  0  0  0  0  0  0  0  0  0  0  0
   -3.8080   -0.5519   -1.0687 C   0  0  0  0  0  0  0  0  0  0  0  0
   -4.6589   -0.5259    0.0222 C   0  0  0  0  0  0  0  0  0  0  0  0
   -4.3661    0.2751    1.1120 C   0  0  0  0  0  0  0  0  0  0  0  0
   -3.2237    1.0513    1.1128 C   0  0  0  0  0  0  0  0  0  0  0  0
   -6.0958   -1.5000    0.0239 Cl  0  0  0  0  0  0  0  0  0  0  0  0
    0.9448    3.7443   -4.1989 C   0  0  0  0  0  0  0  0  0  0  0  0
    1.2888    2.5049   -5.0275 C   0  0  0  0  0  0  0  0  0  0  0  0
    1.5967    2.9231   -6.4667 C   0  0  0  0  0  0  0  0  0  0  0  0
    1.9180    1.7656   -7.2406 O   0  0  0  0  0  0  0  0  0  0  0  0
    0.6530    3.2733   -2.8007 N   0  3  0  0  0  0  0  0  0  0  0  0
   -0.0197    6.3369   -1.4730 H   0  0  0  0  0  0  0  0  0  0  0  0
    0.4718    5.8773   -3.2555 H   0  0  0  0  0  0  0  0  0  0  0  0
    1.9190    1.4580    0.9429 H   0  0  0  0  0  0  0  0  0  0  0  0
   -1.9962    0.2132   -1.9462 H   0  0  0  0  0  0  0  0  0  0  0  0
   -4.0401   -1.1934   -1.9316 H   0  0  0  0  0  0  0  0  0  0  0  0
   -5.0437    0.2936    1.9783 H   0  0  0  0  0  0  0  0  0  0  0  0
   -2.9915    1.6880    1.9792 H   0  0  0  0  0  0  0  0  0  0  0  0
    1.8013    4.4344   -4.1879 H   0  0  0  0  0  0  0  0  0  0  0  0
    0.0559    4.2386   -4.6179 H   0  0  0  0  0  0  0  0  0  0  0  0
    2.1690    2.0070   -4.5946 H   0  0  0  0  0  0  0  0  0  0  0  0
    0.4354    1.8108   -5.0227 H   0  0  0  0  0  0  0  0  0  0  0  0
    2.4506    3.6165   -6.4735 H   0  0  0  0  0  0  0  0  0  0  0  0
    0.7167    3.4208   -6.9003 H   0  0  0  0  0  0  0  0  0  0  0  0
    1.1500    1.1410   -7.2363 H   0  0  0  0  0  0  0  0  0  0  0  0
    1.4793    2.7739   -2.4419 H   0  0  0  0  0  0  0  0  0  0  0  0
   -0.1194    2.5929   -2.8367 H   0  0  0  0  0  0  0  0  0  0  0  0
  1  2  2  0  0  0  0
  2  3  1  0  0  0  0
  2 23  1  0  0  0  0
  3 10  1  0  0  0  0
  3  4  1  0  0  0  0
  4  5  2  0  0  0  0
  4  6  1  0  0  0  0
  6  7  1  0  0  0  0
  7  8  2  0  0  0  0
  7  9  1  0  0  0  0
  9 10  1  0  0  0  0
  9 12  1  0  0  0  0
 10 11  2  0  0  0  0
 12 17  2  0  0  0  0
 12 13  1  0  0  0  0
 13 14  2  0  0  0  0
 14 15  1  0  0  0  0
 15 16  2  0  0  0  0
 15 18  1  0  0  0  0
 16 17  1  0  0  0  0
 19 20  1  0  0  0  0
 19 23  1  0  0  0  0
 20 21  1  0  0  0  0
 21 22  1  0  0  0  0
  1 24  1  0  0  0  0
  1 25  1  0  0  0  0
  6 26  1  0  0  0  0
 13 27  1  0  0  0  0
 14 28  1  0  0  0  0
 16 29  1  0  0  0  0
 17 30  1  0  0  0  0
 19 31  1  0  0  0  0
 19 32  1  0  0  0  0
 20 33  1  0  0  0  0
 20 34  1  0  0  0  0
 21 35  1  0  0  0  0
 21 36  1  0  0  0  0
 22 37  1  0  0  0  0
 23 38  1  0  0  0  0
 23 39  1  0  0  0  0
M  CHG  2   3  -1  23   1
M  END
> <Name>
ZINC05667259

> <reference>
BDB5198

> <quality>
0.867

> <status>
decoy

$$$$
ZINC05637890
  SciTegic06141217593D

 41 42  0  0  0  0            999 V2000
   -0.7343    3.2321    2.1289 C   0  0  0  0  0  0  0  0  0  0  0  0
   -1.5359    3.4912    3.2235 C   0  0  0  0  0  0  0  0  0  0  0  0
   -2.4416    2.5335    3.6613 C   0  0  0  0  0  0  0  0  0  0  0  0
   -2.5419    1.3198    2.9926 C   0  0  0  0  0  0  0  0  0  0  0  0
   -1.7415    1.0695    1.8956 C   0  0  0  0  0  0  0  0  0  0  0  0
   -0.8407    2.0254    1.4623 C   0  0  0  0  0  0  0  0  0  0  0  0
    0.1787    1.7019    0.0621 S   0  0  0  0  0  0  0  0  0  0  0  0
    0.2782    0.2888   -0.0500 O   0  0  0  0  0  0  0  0  0  0  0  0
    1.3205    2.5383    0.1890 O   0  0  0  0  0  0  0  0  0  0  0  0
   -0.6456    2.2259   -1.2752 N   0  0  0  0  0  0  0  0  0  0  0  0
   -3.5059    0.2965    3.4553 N   0  0  0  0  0  0  0  0  0  0  0  0
   -3.6738   -0.7198    2.8055 O   0  0  0  0  0  0  0  0  0  0  0  0
   -4.1312    0.4708    4.4859 O   0  0  0  0  0  0  0  0  0  0  0  0
   -3.2500    2.7902    4.7710 N   0  0  0  0  0  0  0  0  0  0  0  0
   -3.2349    4.1143    5.3977 C   0  0  0  0  0  0  0  0  0  0  0  0
   -4.2023    4.1286    6.5830 C   0  0  0  0  0  0  0  0  0  0  0  0
   -4.1866    5.5114    7.2375 C   0  0  0  0  0  0  0  0  0  0  0  0
   -5.1128    5.5251    8.3724 N   0  0  0  0  0  0  0  0  0  0  0  0
   -6.5298    5.8963    8.2804 C   0  0  0  0  0  0  0  0  0  0  0  0
   -7.1816    5.3505    9.5724 C   0  0  0  0  0  0  0  0  0  0  0  0
   -5.9770    5.3187   10.5415 C   0  0  0  0  0  0  0  0  0  0  0  0
   -4.7728    5.2049    9.6328 C   0  0  0  0  0  0  0  0  0  0  0  0
   -3.6621    4.8734    9.9898 O   0  0  0  0  0  0  0  0  0  0  0  0
   -0.0105    3.9866    1.7871 H   0  0  0  0  0  0  0  0  0  0  0  0
   -1.4571    4.4549    3.7479 H   0  0  0  0  0  0  0  0  0  0  0  0
   -1.8204    0.1088    1.3657 H   0  0  0  0  0  0  0  0  0  0  0  0
   -1.1799    1.5556   -1.8463 H   0  0  0  0  0  0  0  0  0  0  0  0
   -0.6240    3.2221   -1.5359 H   0  0  0  0  0  0  0  0  0  0  0  0
   -3.8568    2.0485    5.1487 H   0  0  0  0  0  0  0  0  0  0  0  0
   -2.2185    4.3409    5.7520 H   0  0  0  0  0  0  0  0  0  0  0  0
   -3.5448    4.8724    4.6633 H   0  0  0  0  0  0  0  0  0  0  0  0
   -5.2191    3.9024    6.2294 H   0  0  0  0  0  0  0  0  0  0  0  0
   -3.8933    3.3718    7.3191 H   0  0  0  0  0  0  0  0  0  0  0  0
   -4.4965    6.2694    6.5031 H   0  0  0  0  0  0  0  0  0  0  0  0
   -3.1701    5.7380    7.5917 H   0  0  0  0  0  0  0  0  0  0  0  0
   -6.9888    5.4222    7.4003 H   0  0  0  0  0  0  0  0  0  0  0  0
   -6.6316    6.9909    8.2430 H   0  0  0  0  0  0  0  0  0  0  0  0
   -7.9492    6.0480    9.9387 H   0  0  0  0  0  0  0  0  0  0  0  0
   -7.5674    4.3336    9.4082 H   0  0  0  0  0  0  0  0  0  0  0  0
   -6.0410    4.4377   11.1971 H   0  0  0  0  0  0  0  0  0  0  0  0
   -5.9299    6.2549   11.1171 H   0  0  0  0  0  0  0  0  0  0  0  0
  1  6  2  0  0  0  0
  1  2  1  0  0  0  0
  2  3  2  0  0  0  0
  3  4  1  0  0  0  0
  3 14  1  0  0  0  0
  4  5  2  0  0  0  0
  4 11  1  0  0  0  0
  5  6  1  0  0  0  0
  6  7  1  0  0  0  0
  7  8  2  0  0  0  0
  7  9  2  0  0  0  0
  7 10  1  0  0  0  0
 11 12  2  0  0  0  0
 11 13  2  0  0  0  0
 14 15  1  0  0  0  0
 15 16  1  0  0  0  0
 16 17  1  0  0  0  0
 17 18  1  0  0  0  0
 18 22  1  0  0  0  0
 18 19  1  0  0  0  0
 19 20  1  0  0  0  0
 20 21  1  0  0  0  0
 21 22  1  0  0  0  0
 22 23  2  0  0  0  0
  1 24  1  0  0  0  0
  2 25  1  0  0  0  0
  5 26  1  0  0  0  0
 10 27  1  0  0  0  0
 10 28  1  0  0  0  0
 14 29  1  0  0  0  0
 15 30  1  0  0  0  0
 15 31  1  0  0  0  0
 16 32  1  0  0  0  0
 16 33  1  0  0  0  0
 17 34  1  0  0  0  0
 17 35  1  0  0  0  0
 19 36  1  0  0  0  0
 19 37  1  0  0  0  0
 20 38  1  0  0  0  0
 20 39  1  0  0  0  0
 21 40  1  0  0  0  0
 21 41  1  0  0  0  0
M  END
> <Name>
ZINC05637890

> <reference>
BDB5244

> <quality>
0.665

> <status>
decoy

$$$$
ZINC02428102
  SciTegic06141217593D

 56 58  0  0  0  0            999 V2000
   -3.7915    6.5402    4.7135 C   0  0  0  0  0  0  0  0  0  0  0  0
   -3.2536    5.2546    4.3974 O   0  0  0  0  0  0  0  0  0  0  0  0
   -4.1386    4.2826    4.0584 C   0  0  0  0  0  0  0  0  0  0  0  0
   -5.4937    4.5532    4.0348 C   0  0  0  0  0  0  0  0  0  0  0  0
   -6.3990    3.5628    3.6839 C   0  0  0  0  0  0  0  0  0  0  0  0
   -5.9671    2.2944    3.3639 C   0  0  0  0  0  0  0  0  0  0  0  0
   -4.6076    1.9930    3.3849 C   0  0  0  0  0  0  0  0  0  0  0  0
   -3.6840    2.9953    3.7353 C   0  0  0  0  0  0  0  0  0  0  0  0
   -2.3562    2.3843    3.6681 C   0  0  0  0  0  0  0  0  0  0  0  0
   -2.5445    1.0706    3.2879 C   0  0  0  0  0  0  0  0  0  0  0  0
   -3.9033    0.8417    3.1190 N   0  0  0  0  0  0  0  0  0  0  0  0
   -1.5182    0.1120    3.1010 C   0  0  0  0  0  0  0  0  0  0  0  0
   -0.3509    0.4485    3.1723 O   0  0  0  0  0  0  0  0  0  0  0  0
   -1.8352   -1.1746    2.8439 O   0  0  0  0  0  0  0  0  0  0  0  0
   -0.7499   -2.0871    2.6664 C   0  0  0  0  0  0  0  0  0  0  0  0
   -1.1410    3.0060    3.9352 N   0  0  0  0  0  0  0  0  0  0  0  0
   -1.0440    3.8884    4.9493 C   0  0  0  0  0  0  0  0  0  0  0  0
   -1.9957    4.0854    5.6748 O   0  0  0  0  0  0  0  0  0  0  0  0
    0.2470    4.6303    5.1817 C   0  0  0  0  0  0  0  0  0  0  0  0
    0.0902    5.5619    6.3852 C   0  0  0  0  0  0  0  0  0  0  0  0
    1.8871    6.8120    5.3513 C   0  0  0  0  0  0  0  0  0  0  0  0
    3.2645    7.4301    5.6022 C   0  0  0  0  0  0  0  0  0  0  0  0
    3.1337    8.5549    6.6328 C   0  0  1  0  0  0  0  0  0  0  0  0
    2.5257    7.9896    7.9194 C   0  0  0  0  0  0  0  0  0  0  0  0
    1.1698    7.3553    7.6013 C   0  0  0  0  0  0  0  0  0  0  0  0
    4.4958    9.1277    6.9288 C   0  0  0  0  0  0  0  0  0  0  0  0
    4.9381    9.0882    8.0574 O   0  0  0  0  0  0  0  0  0  0  0  0
    5.2225    9.6838    5.9393 N   0  0  0  0  0  0  0  0  0  0  0  0
    1.3679    6.2648    6.6227 N   0  3  0  0  0  0  0  0  0  0  0  0
   -4.4995    6.3844    5.5408 H   0  0  0  0  0  0  0  0  0  0  0  0
   -4.3672    6.8598    3.8324 H   0  0  0  0  0  0  0  0  0  0  0  0
   -3.0149    7.2731    4.9776 H   0  0  0  0  0  0  0  0  0  0  0  0
   -5.8559    5.5586    4.2955 H   0  0  0  0  0  0  0  0  0  0  0  0
   -7.4744    3.7928    3.6608 H   0  0  0  0  0  0  0  0  0  0  0  0
   -6.6974    1.5182    3.0913 H   0  0  0  0  0  0  0  0  0  0  0  0
   -4.3216   -0.0562    2.8367 H   0  0  0  0  0  0  0  0  0  0  0  0
   -0.1481   -2.0349    3.5857 H   0  0  0  0  0  0  0  0  0  0  0  0
   -0.1416   -1.6879    1.8414 H   0  0  0  0  0  0  0  0  0  0  0  0
   -1.0871   -3.1138    2.4609 H   0  0  0  0  0  0  0  0  0  0  0  0
   -0.3152    2.7920    3.3580 H   0  0  0  0  0  0  0  0  0  0  0  0
    0.4959    5.2237    4.2896 H   0  0  0  0  0  0  0  0  0  0  0  0
    1.0539    3.9093    5.3795 H   0  0  0  0  0  0  0  0  0  0  0  0
   -0.1753    4.9727    7.2753 H   0  0  0  0  0  0  0  0  0  0  0  0
   -0.7010    6.2979    6.1797 H   0  0  0  0  0  0  0  0  0  0  0  0
    1.1999    7.5845    4.9758 H   0  0  0  0  0  0  0  0  0  0  0  0
    1.9751    6.0025    4.6117 H   0  0  0  0  0  0  0  0  0  0  0  0
    3.6613    7.8394    4.6615 H   0  0  0  0  0  0  0  0  0  0  0  0
    3.9487    6.6590    5.9860 H   0  0  0  0  0  0  0  0  0  0  0  0
    2.4844    9.3483    6.2342 H   0  0  0  0  0  0  0  0  0  0  0  0
    2.3884    8.8010    8.6493 H   0  0  0  0  0  0  0  0  0  0  0  0
    3.1979    7.2267    8.3390 H   0  0  0  0  0  0  0  0  0  0  0  0
    0.4983    8.1147    7.1742 H   0  0  0  0  0  0  0  0  0  0  0  0
    0.7294    6.9467    8.5228 H   0  0  0  0  0  0  0  0  0  0  0  0
    4.8469    9.7173    4.9808 H   0  0  0  0  0  0  0  0  0  0  0  0
    6.1535   10.0753    6.1416 H   0  0  0  0  0  0  0  0  0  0  0  0
    2.0531    5.5961    7.0025 H   0  0  0  0  0  0  0  0  0  0  0  0
  1  2  1  0  0  0  0
  2  3  1  0  0  0  0
  3  8  2  0  0  0  0
  3  4  1  0  0  0  0
  4  5  2  0  0  0  0
  5  6  1  0  0  0  0
  6  7  2  0  0  0  0
  7 11  1  0  0  0  0
  7  8  1  0  0  0  0
  8  9  1  0  0  0  0
  9 10  2  0  0  0  0
  9 16  1  0  0  0  0
 10 11  1  0  0  0  0
 10 12  1  0  0  0  0
 12 13  2  0  0  0  0
 12 14  1  0  0  0  0
 14 15  1  0  0  0  0
 16 17  1  0  0  0  0
 17 18  2  0  0  0  0
 17 19  1  0  0  0  0
 19 20  1  0  0  0  0
 20 29  1  0  0  0  0
 21 22  1  0  0  0  0
 21 29  1  0  0  0  0
 22 23  1  0  0  0  0
 23 24  1  0  0  0  0
 23 26  1  0  0  0  0
 24 25  1  0  0  0  0
 25 29  1  0  0  0  0
 26 27  2  0  0  0  0
 26 28  1  0  0  0  0
  1 30  1  0  0  0  0
  1 31  1  0  0  0  0
  1 32  1  0  0  0  0
  4 33  1  0  0  0  0
  5 34  1  0  0  0  0
  6 35  1  0  0  0  0
 11 36  1  0  0  0  0
 15 37  1  0  0  0  0
 15 38  1  0  0  0  0
 15 39  1  0  0  0  0
 16 40  1  0  0  0  0
 19 41  1  0  0  0  0
 19 42  1  0  0  0  0
 20 43  1  0  0  0  0
 20 44  1  0  0  0  0
 21 45  1  0  0  0  0
 21 46  1  0  0  0  0
 22 47  1  0  0  0  0
 22 48  1  0  0  0  0
 23 49  1  0  0  0  0
 24 50  1  0  0  0  0
 24 51  1  0  0  0  0
 25 52  1  0  0  0  0
 25 53  1  0  0  0  0
 28 54  1  0  0  0  0
 28 55  1  0  0  0  0
 29 56  1  0  0  0  0
M  CHG  1  29   1
M  END
> <Name>
ZINC02428102

> <reference>
BDB5007

> <quality>
0.833

> <status>
decoy

$$$$
ZINC04226596
  SciTegic06141217593D

 38 39  0  0  1  0            999 V2000
   -3.3844    2.8365    2.0703 C   0  0  0  0  0  0  0  0  0  0  0  0
   -3.1346    4.2368    1.5066 C   0  0  0  0  0  0  0  0  0  0  0  0
   -2.6438    4.1249    0.0618 C   0  0  1  0  0  0  0  0  0  0  0  0
   -2.5132    5.5245   -0.5424 C   0  0  0  0  0  0  0  0  0  0  0  0
   -1.6672    6.3240    0.2865 O   0  0  0  0  0  0  0  0  0  0  0  0
   -1.3387    3.4597    0.0396 N   0  0  0  0  0  0  0  0  0  0  0  0
   -1.2664    2.0765    0.0312 C   0  0  0  0  0  0  0  0  0  0  0  0
   -2.4159    1.2995    0.0350 C   0  0  0  0  0  0  0  0  0  0  0  0
   -2.3096   -0.0826    0.0264 C   0  0  0  0  0  0  0  0  0  0  0  0
    0.0021   -0.0041    0.0020 C   0  0  0  0  0  0  0  0  0  0  0  0
   -0.0171    1.4103    0.0098 C   0  0  0  0  0  0  0  0  0  0  0  0
    1.1882    2.1252    0.0021 C   0  0  0  0  0  0  0  0  0  0  0  0
    2.3796    1.4594   -0.0137 C   0  0  0  0  0  0  0  0  0  0  0  0
    2.4238    0.0728   -0.0215 C   0  0  0  0  0  0  0  0  0  0  0  0
    1.2527   -0.6738   -0.0140 C   0  0  0  0  0  0  0  0  0  0  0  0
    1.3084   -2.1449   -0.0229 C   0  0  0  0  0  0  0  0  0  0  0  0
    0.2797   -2.7920   -0.0166 O   0  0  0  0  0  0  0  0  0  0  0  0
   -3.5664   -0.9142    0.0350 C   0  0  0  0  0  0  0  0  0  0  0  0
   -1.1405   -0.7678    0.0101 N   0  3  0  0  0  0  0  0  0  0  0  0
    2.5003   -2.7741   -0.0381 O   0  5  0  0  0  0  0  0  0  0  0  0
   -2.4492    2.2578    2.0453 H   0  0  0  0  0  0  0  0  0  0  0  0
   -4.1469    2.3264    1.4633 H   0  0  0  0  0  0  0  0  0  0  0  0
   -3.7373    2.9162    3.1091 H   0  0  0  0  0  0  0  0  0  0  0  0
   -2.3722    4.7470    2.1136 H   0  0  0  0  0  0  0  0  0  0  0  0
   -4.0703    4.8146    1.5317 H   0  0  0  0  0  0  0  0  0  0  0  0
   -3.3648    3.5377   -0.5259 H   0  0  0  0  0  0  0  0  0  0  0  0
   -3.5073    5.9908   -0.6084 H   0  0  0  0  0  0  0  0  0  0  0  0
   -2.0754    5.4502   -1.5488 H   0  0  0  0  0  0  0  0  0  0  0  0
   -0.7717    5.9062    0.3461 H   0  0  0  0  0  0  0  0  0  0  0  0
   -0.4749    4.0206    0.0302 H   0  0  0  0  0  0  0  0  0  0  0  0
   -3.4064    1.7777    0.0448 H   0  0  0  0  0  0  0  0  0  0  0  0
    1.1741    3.2251    0.0088 H   0  0  0  0  0  0  0  0  0  0  0  0
    3.3193    2.0311   -0.0204 H   0  0  0  0  0  0  0  0  0  0  0  0
    3.3965   -0.4407   -0.0338 H   0  0  0  0  0  0  0  0  0  0  0  0
   -4.1408   -0.5858   -0.8438 H   0  0  0  0  0  0  0  0  0  0  0  0
   -4.1223   -0.5954    0.9290 H   0  0  0  0  0  0  0  0  0  0  0  0
   -3.3755   -1.9975    0.0271 H   0  0  0  0  0  0  0  0  0  0  0  0
   -1.1101   -1.7973    0.0041 H   0  0  0  0  0  0  0  0  0  0  0  0
  1  2  1  0  0  0  0
  2  3  1  0  0  0  0
  3  4  1  0  0  0  0
  3  6  1  0  0  0  0
  4  5  1  0  0  0  0
  6  7  1  0  0  0  0
  7 11  2  0  0  0  0
  7  8  1  0  0  0  0
  8  9  2  0  0  0  0
  9 18  1  0  0  0  0
  9 19  1  0  0  0  0
 10 15  1  0  0  0  0
 10 11  1  0  0  0  0
 10 19  2  0  0  0  0
 11 12  1  0  0  0  0
 12 13  2  0  0  0  0
 13 14  1  0  0  0  0
 14 15  2  0  0  0  0
 15 16  1  0  0  0  0
 16 17  2  0  0  0  0
 16 20  1  0  0  0  0
  1 21  1  0  0  0  0
  1 22  1  0  0  0  0
  1 23  1  0  0  0  0
  2 24  1  0  0  0  0
  2 25  1  0  0  0  0
  3 26  1  0  0  0  0
  4 27  1  0  0  0  0
  4 28  1  0  0  0  0
  5 29  1  0  0  0  0
  6 30  1  0  0  0  0
  8 31  1  0  0  0  0
 12 32  1  0  0  0  0
 13 33  1  0  0  0  0
 14 34  1  0  0  0  0
 18 35  1  0  0  0  0
 18 36  1  0  0  0  0
 18 37  1  0  0  0  0
 19 38  1  0  0  0  0
M  CHG  2  19   1  20  -1
M  END
> <Name>
ZINC04226596

> <reference>
BDB5233

> <quality>
0.772

> <status>
decoy

$$$$
ZINC13354670
  SciTegic06141217593D

 43 44  0  0  1  0            999 V2000
   -7.0478   10.8292   -4.8639 C   0  0  0  0  0  0  0  0  0  0  0  0
   -8.3913   11.1686   -4.9496 C   0  0  0  0  0  0  0  0  0  0  0  0
   -9.3380   10.2170   -5.2591 C   0  0  0  0  0  0  0  0  0  0  0  0
   -8.9465    8.9018   -5.4885 C   0  0  0  0  0  0  0  0  0  0  0  0
   -7.5840    8.5632   -5.4004 C   0  0  0  0  0  0  0  0  0  0  0  0
   -6.6413    9.5437   -5.0850 C   0  0  0  0  0  0  0  0  0  0  0  0
   -7.5037    7.1296   -5.6909 C   0  0  0  0  0  0  0  0  0  0  0  0
   -8.7550    6.7071   -5.9308 C   0  0  0  0  0  0  0  0  0  0  0  0
   -9.6312    7.7511   -5.8091 N   0  0  0  0  0  0  0  0  0  0  0  0
   -6.2527    6.2898   -5.7212 C   0  0  0  0  0  0  0  0  0  0  0  0
   -5.9281    5.8217   -4.3260 C   0  0  0  0  0  0  0  0  0  0  0  0
   -6.6423    6.1388   -3.3984 O   0  0  0  0  0  0  0  0  0  0  0  0
   -4.8442    5.0507   -4.1090 N   0  0  0  0  0  0  0  0  0  0  0  0
   -4.5287    4.5955   -2.7527 C   0  0  0  0  0  0  0  0  0  0  0  0
   -3.2586    3.7429   -2.7834 C   0  0  0  0  0  0  0  0  0  0  0  0
   -2.9291    3.2676   -1.3669 C   0  0  0  0  0  0  0  0  0  0  0  0
   -1.6590    2.4150   -1.3976 C   0  0  0  0  0  0  0  0  0  0  0  0
   -1.3295    1.9397    0.0189 C   0  0  2  0  0  0  0  0  0  0  0  0
   -0.0143    1.2041    0.0087 C   0  0  0  0  0  0  0  0  0  0  0  0
    0.0021   -0.0041    0.0020 O   0  0  0  0  0  0  0  0  0  0  0  0
    1.1389    1.8910    0.0013 O   0  5  0  0  0  0  0  0  0  0  0  0
   -2.3806    1.0343    0.5155 N   0  3  0  0  0  0  0  0  0  0  0  0
   -6.3047   11.6014   -4.6160 H   0  0  0  0  0  0  0  0  0  0  0  0
   -8.7029   12.2079   -4.7685 H   0  0  0  0  0  0  0  0  0  0  0  0
  -10.4000   10.4960   -5.3247 H   0  0  0  0  0  0  0  0  0  0  0  0
   -5.5752    9.2821   -5.0148 H   0  0  0  0  0  0  0  0  0  0  0  0
   -9.0346    5.6746   -6.1872 H   0  0  0  0  0  0  0  0  0  0  0  0
  -10.6510    7.6858   -5.9381 H   0  0  0  0  0  0  0  0  0  0  0  0
   -5.4164    6.8895   -6.1098 H   0  0  0  0  0  0  0  0  0  0  0  0
   -6.4121    5.4176   -6.3722 H   0  0  0  0  0  0  0  0  0  0  0  0
   -4.2376    4.7815   -4.8967 H   0  0  0  0  0  0  0  0  0  0  0  0
   -4.3688    5.4672   -2.1011 H   0  0  0  0  0  0  0  0  0  0  0  0
   -5.3635    3.9945   -2.3629 H   0  0  0  0  0  0  0  0  0  0  0  0
   -3.4179    2.8707   -3.4345 H   0  0  0  0  0  0  0  0  0  0  0  0
   -2.4223    4.3426   -3.1719 H   0  0  0  0  0  0  0  0  0  0  0  0
   -2.7692    4.1393   -0.7154 H   0  0  0  0  0  0  0  0  0  0  0  0
   -3.7639    2.6666   -0.9771 H   0  0  0  0  0  0  0  0  0  0  0  0
   -1.8183    1.5428   -2.0487 H   0  0  0  0  0  0  0  0  0  0  0  0
   -0.8227    3.0147   -1.7861 H   0  0  0  0  0  0  0  0  0  0  0  0
   -1.2675    2.8175    0.6790 H   0  0  0  0  0  0  0  0  0  0  0  0
   -2.4490    0.2210   -0.1127 H   0  0  0  0  0  0  0  0  0  0  0  0
   -3.2809    1.5346    0.5216 H   0  0  0  0  0  0  0  0  0  0  0  0
   -2.1515    0.7190    1.4689 H   0  0  0  0  0  0  0  0  0  0  0  0
  1  6  1  0  0  0  0
  1  2  2  0  0  0  0
  2  3  1  0  0  0  0
  3  4  2  0  0  0  0
  4  9  1  0  0  0  0
  4  5  1  0  0  0  0
  5  6  2  0  0  0  0
  5  7  1  0  0  0  0
  7  8  2  0  0  0  0
  7 10  1  0  0  0  0
  8  9  1  0  0  0  0
 10 11  1  0  0  0  0
 11 12  2  0  0  0  0
 11 13  1  0  0  0  0
 13 14  1  0  0  0  0
 14 15  1  0  0  0  0
 15 16  1  0  0  0  0
 16 17  1  0  0  0  0
 17 18  1  0  0  0  0
 18 19  1  0  0  0  0
 18 22  1  0  0  0  0
 19 20  2  0  0  0  0
 19 21  1  0  0  0  0
  1 23  1  0  0  0  0
  2 24  1  0  0  0  0
  3 25  1  0  0  0  0
  6 26  1  0  0  0  0
  8 27  1  0  0  0  0
  9 28  1  0  0  0  0
 10 29  1  0  0  0  0
 10 30  1  0  0  0  0
 13 31  1  0  0  0  0
 14 32  1  0  0  0  0
 14 33  1  0  0  0  0
 15 34  1  0  0  0  0
 15 35  1  0  0  0  0
 16 36  1  0  0  0  0
 16 37  1  0  0  0  0
 17 38  1  0  0  0  0
 17 39  1  0  0  0  0
 18 40  1  0  0  0  0
 22 41  1  0  0  0  0
 22 42  1  0  0  0  0
 22 43  1  0  0  0  0
M  CHG  2  21  -1  22   1
M  END
> <Name>
ZINC13354670

> <reference>
BDB5021

> <quality>
0.671

> <status>
decoy

$$$$
ZINC06178420
  SciTegic06141217593D

 41 41  0  0  1  0            999 V2000
   -0.5169   -0.0349    0.0155 C   0  0  0  0  0  0  0  0  0  0  0  0
    0.8615    0.4322    0.1825 N   0  0  0  0  0  0  0  0  0  0  0  0
    1.1235    1.7945    0.3266 C   0  0  0  0  0  0  0  0  0  0  0  0
    0.0786    2.7110    0.3062 C   0  0  0  0  0  0  0  0  0  0  0  0
    0.3414    4.0584    0.4550 C   0  0  0  0  0  0  0  0  0  0  0  0
    1.6434    4.4975    0.6125 C   0  0  0  0  0  0  0  0  0  0  0  0
    2.6862    3.5891    0.6276 C   0  0  0  0  0  0  0  0  0  0  0  0
    2.4308    2.2397    0.4852 C   0  0  0  0  0  0  0  0  0  0  0  0
    1.9165   -0.4895    0.1975 N   0  0  0  0  0  0  0  0  0  0  0  0
    1.6720   -1.7612    0.0630 C   0  0  0  0  0  0  0  0  0  0  0  0
    2.7732   -2.7232    0.0787 C   0  0  0  0  0  0  0  0  0  0  0  0
    3.9977   -2.3082    0.2271 N   0  0  0  0  0  0  0  0  0  0  0  0
    5.0389   -3.2347    0.3698 N   0  0  0  0  0  0  0  0  0  0  0  0
    2.4901   -4.1952   -0.0770 C   0  0  1  0  0  0  0  0  0  0  0  0
    2.1275   -4.7916    1.2846 C   0  0  1  0  0  0  0  0  0  0  0  0
    1.9781   -6.3086    1.1534 C   0  0  1  0  0  0  0  0  0  0  0  0
    1.6155   -6.9050    2.5149 C   0  0  0  0  0  0  0  0  0  0  0  0
    1.5902   -8.3306    2.4190 O   0  0  0  0  0  0  0  0  0  0  0  0
    0.9444   -6.6059    0.2126 O   0  0  0  0  0  0  0  0  0  0  0  0
    3.1612   -4.4943    2.2254 O   0  0  0  0  0  0  0  0  0  0  0  0
    1.3997   -4.3774   -0.9824 O   0  0  0  0  0  0  0  0  0  0  0  0
   -0.8965    0.5068   -0.8634 H   0  0  0  0  0  0  0  0  0  0  0  0
   -1.0568    0.3519    0.8924 H   0  0  0  0  0  0  0  0  0  0  0  0
   -0.6114   -1.1258   -0.0894 H   0  0  0  0  0  0  0  0  0  0  0  0
   -0.9563    2.3633    0.1717 H   0  0  0  0  0  0  0  0  0  0  0  0
   -0.4858    4.7834    0.4483 H   0  0  0  0  0  0  0  0  0  0  0  0
    1.8501    5.5719    0.7260 H   0  0  0  0  0  0  0  0  0  0  0  0
    3.7204    3.9421    0.7532 H   0  0  0  0  0  0  0  0  0  0  0  0
    3.2607    1.5179    0.4972 H   0  0  0  0  0  0  0  0  0  0  0  0
    0.6370   -2.1120   -0.0625 H   0  0  0  0  0  0  0  0  0  0  0  0
    4.8353   -4.2443    0.3573 H   0  0  0  0  0  0  0  0  0  0  0  0
    6.0080   -2.9063    0.4873 H   0  0  0  0  0  0  0  0  0  0  0  0
    3.3835   -4.7006   -0.4725 H   0  0  0  0  0  0  0  0  0  0  0  0
    1.1785   -4.3585    1.6336 H   0  0  0  0  0  0  0  0  0  0  0  0
    2.9271   -6.7416    0.8044 H   0  0  0  0  0  0  0  0  0  0  0  0
    2.3657   -6.6014    3.2599 H   0  0  0  0  0  0  0  0  0  0  0  0
    0.6243   -6.5413    2.8235 H   0  0  0  0  0  0  0  0  0  0  0  0
    2.4820   -8.6596    2.1423 H   0  0  0  0  0  0  0  0  0  0  0  0
    1.1783   -6.2206   -0.6688 H   0  0  0  0  0  0  0  0  0  0  0  0
    3.2584   -3.5128    2.3111 H   0  0  0  0  0  0  0  0  0  0  0  0
    1.6335   -3.9920   -1.8638 H   0  0  0  0  0  0  0  0  0  0  0  0
  1  2  1  0  0  0  0
  2  3  1  0  0  0  0
  2  9  1  0  0  0  0
  3  8  2  0  0  0  0
  3  4  1  0  0  0  0
  4  5  2  0  0  0  0
  5  6  1  0  0  0  0
  6  7  2  0  0  0  0
  7  8  1  0  0  0  0
  9 10  2  0  0  0  0
 10 11  1  0  0  0  0
 11 12  2  0  0  0  0
 11 14  1  0  0  0  0
 12 13  1  0  0  0  0
 14 15  1  0  0  0  0
 14 21  1  0  0  0  0
 15 16  1  0  0  0  0
 15 20  1  0  0  0  0
 16 17  1  0  0  0  0
 16 19  1  0  0  0  0
 17 18  1  0  0  0  0
  1 22  1  0  0  0  0
  1 23  1  0  0  0  0
  1 24  1  0  0  0  0
  4 25  1  0  0  0  0
  5 26  1  0  0  0  0
  6 27  1  0  0  0  0
  7 28  1  0  0  0  0
  8 29  1  0  0  0  0
 10 30  1  0  0  0  0
 13 31  1  0  0  0  0
 13 32  1  0  0  0  0
 14 33  1  0  0  0  0
 15 34  1  0  0  0  0
 16 35  1  0  0  0  0
 17 36  1  0  0  0  0
 17 37  1  0  0  0  0
 18 38  1  0  0  0  0
 19 39  1  0  0  0  0
 20 40  1  0  0  0  0
 21 41  1  0  0  0  0
M  END
> <Name>
ZINC06178420

> <reference>
BDB5009

> <quality>
0.754

> <status>
decoy

$$$$
ZINC17669880
  SciTegic06141217593D

 28 29  0  0  0  0            999 V2000
   -0.0169    1.3949    0.0097 C   0  0  0  0  0  0  0  0  0  0  0  0
    0.0021   -0.0041    0.0020 C   0  0  0  0  0  0  0  0  0  0  0  0
    1.2557   -0.6536   -0.0134 C   0  0  0  0  0  0  0  0  0  0  0  0
    2.3589    0.0848   -0.0200 N   0  0  0  0  0  0  0  0  0  0  0  0
    2.2892    1.4084   -0.0122 C   0  0  0  0  0  0  0  0  0  0  0  0
    1.1282    2.0525    0.0023 N   0  0  0  0  0  0  0  0  0  0  0  0
    3.7835    2.3421   -0.0215 S   0  0  0  0  0  0  0  0  0  0  0  0
    3.1056    4.0203   -0.0060 C   0  0  0  0  0  0  0  0  0  0  0  0
    4.2348    5.0182   -0.0114 C   0  0  0  0  0  0  0  0  0  0  0  0
    4.7358    5.4526    1.1316 N   0  0  0  0  0  0  0  0  0  0  0  0
    5.7363    6.3306    1.1309 C   0  0  0  0  0  0  0  0  0  0  0  0
    6.2244    6.7778   -0.0210 N   0  0  0  0  0  0  0  0  0  0  0  0
    5.7147    6.3426   -1.1680 C   0  0  0  0  0  0  0  0  0  0  0  0
    4.7176    5.4608   -1.1592 N   0  0  0  0  0  0  0  0  0  0  0  0
    6.2179    6.8045   -2.3671 N   0  0  0  0  0  0  0  0  0  0  0  0
    6.2624    6.7797    2.3250 N   0  0  0  0  0  0  0  0  0  0  0  0
    1.3328   -2.0315   -0.0220 N   0  0  0  0  0  0  0  0  0  0  0  0
   -1.2163   -0.7564    0.0091 C   0  0  0  0  0  0  0  0  0  0  0  0
   -2.1829   -1.3533    0.0148 N   0  0  0  0  0  0  0  0  0  0  0  0
   -0.9726    1.9395    0.0218 H   0  0  0  0  0  0  0  0  0  0  0  0
    2.4960    4.1623    0.8986 H   0  0  0  0  0  0  0  0  0  0  0  0
    2.4794    4.1711   -0.8977 H   0  0  0  0  0  0  0  0  0  0  0  0
    6.9892    7.4871   -2.3726 H   0  0  0  0  0  0  0  0  0  0  0  0
    5.8224    6.4668   -3.2562 H   0  0  0  0  0  0  0  0  0  0  0  0
    5.8805    6.4352    3.2174 H   0  0  0  0  0  0  0  0  0  0  0  0
    7.0366    7.4591    2.3240 H   0  0  0  0  0  0  0  0  0  0  0  0
    0.4667   -2.5890   -0.0171 H   0  0  0  0  0  0  0  0  0  0  0  0
    2.2497   -2.5007   -0.0332 H   0  0  0  0  0  0  0  0  0  0  0  0
  1  6  2  0  0  0  0
  1  2  1  0  0  0  0
  2  3  2  0  0  0  0
  2 18  1  0  0  0  0
  3  4  1  0  0  0  0
  3 17  1  0  0  0  0
  4  5  2  0  0  0  0
  5  6  1  0  0  0  0
  5  7  1  0  0  0  0
  7  8  1  0  0  0  0
  8  9  1  0  0  0  0
  9 14  2  0  0  0  0
  9 10  1  0  0  0  0
 10 11  2  0  0  0  0
 11 12  1  0  0  0  0
 11 16  1  0  0  0  0
 12 13  2  0  0  0  0
 13 14  1  0  0  0  0
 13 15  1  0  0  0  0
 18 19  3  0  0  0  0
  1 20  1  0  0  0  0
  8 21  1  0  0  0  0
  8 22  1  0  0  0  0
 15 23  1  0  0  0  0
 15 24  1  0  0  0  0
 16 25  1  0  0  0  0
 16 26  1  0  0  0  0
 17 27  1  0  0  0  0
 17 28  1  0  0  0  0
M  END
> <Name>
ZINC17669880

> <reference>
BDB5008

> <quality>
0.690

> <status>
decoy

$$$$
ZINC28069362
  SciTegic06141217593D

 46 47  0  0  0  0            999 V2000
   13.2612    2.4843   -0.8657 C   0  0  0  0  0  0  0  0  0  0  0  0
   12.1696    1.4228   -1.0156 C   0  0  1  0  0  0  0  0  0  0  0  0
   12.0927    0.5837    0.2628 C   0  0  0  0  0  0  0  0  0  0  0  0
   10.9592   -0.4359    0.1307 C   0  0  0  0  0  0  0  0  0  0  0  0
    9.6896    0.2678   -0.0913 N   0  3  0  0  0  0  0  0  0  0  0  0
    9.7230    1.0428   -1.3381 C   0  0  0  0  0  0  0  0  0  0  0  0
   10.8197    2.1066   -1.2499 C   0  0  0  0  0  0  0  0  0  0  0  0
    8.5594   -0.6706   -0.0850 C   0  0  0  0  0  0  0  0  0  0  0  0
    7.2457    0.1134   -0.0681 C   0  0  0  0  0  0  0  0  0  0  0  0
    6.0686   -0.8640   -0.0614 C   0  0  0  0  0  0  0  0  0  0  0  0
    4.8106   -0.1134   -0.0453 N   0  0  0  0  0  0  0  0  0  0  0  0
    3.6338   -0.7704   -0.0370 C   0  0  0  0  0  0  0  0  0  0  0  0
    3.6163   -1.9862   -0.0430 O   0  0  0  0  0  0  0  0  0  0  0  0
    2.3671   -0.0145   -0.0207 C   0  0  0  0  0  0  0  0  0  0  0  0
    2.3727    1.3854   -0.0132 C   0  0  0  0  0  0  0  0  0  0  0  0
    1.1580    2.0471    0.0020 C   0  0  0  0  0  0  0  0  0  0  0  0
   -0.0158    1.3146    0.0093 C   0  0  0  0  0  0  0  0  0  0  0  0
    0.0021   -0.0041    0.0020 N   0  0  0  0  0  0  0  0  0  0  0  0
    1.1352   -0.6855   -0.0125 C   0  0  0  0  0  0  0  0  0  0  0  0
    1.1063   -2.0395   -0.0200 O   0  0  0  0  0  0  0  0  0  0  0  0
    1.1143    3.5266    0.0104 N   0  0  0  0  0  0  0  0  0  0  0  0
    0.0420    4.1041    0.0238 O   0  0  0  0  0  0  0  0  0  0  0  0
    2.1506    4.1665    0.0039 O   0  0  0  0  0  0  0  0  0  0  0  0
   13.0266    3.1341   -0.0097 H   0  0  0  0  0  0  0  0  0  0  0  0
   13.3123    3.0906   -1.7821 H   0  0  0  0  0  0  0  0  0  0  0  0
   14.2310    1.9933   -0.6974 H   0  0  0  0  0  0  0  0  0  0  0  0
   12.4089    0.7734   -1.8706 H   0  0  0  0  0  0  0  0  0  0  0  0
   13.0456    0.0551    0.4130 H   0  0  0  0  0  0  0  0  0  0  0  0
   11.8963    1.2405    1.1231 H   0  0  0  0  0  0  0  0  0  0  0  0
   10.8910   -1.0313    1.0531 H   0  0  0  0  0  0  0  0  0  0  0  0
   11.1624   -1.1018   -0.7210 H   0  0  0  0  0  0  0  0  0  0  0  0
    9.5573    0.9298    0.6866 H   0  0  0  0  0  0  0  0  0  0  0  0
    8.7502    1.5323   -1.4929 H   0  0  0  0  0  0  0  0  0  0  0  0
    9.9329    0.3699   -2.1826 H   0  0  0  0  0  0  0  0  0  0  0  0
   10.8538    2.6765   -2.1902 H   0  0  0  0  0  0  0  0  0  0  0  0
   10.6031    2.7880   -0.4139 H   0  0  0  0  0  0  0  0  0  0  0  0
    8.5992   -1.2989   -0.9870 H   0  0  0  0  0  0  0  0  0  0  0  0
    8.6162   -1.3088    0.8092 H   0  0  0  0  0  0  0  0  0  0  0  0
    7.2051    0.7417    0.8339 H   0  0  0  0  0  0  0  0  0  0  0  0
    7.1866    0.7513   -0.9623 H   0  0  0  0  0  0  0  0  0  0  0  0
    6.1085   -1.4924   -0.9634 H   0  0  0  0  0  0  0  0  0  0  0  0
    6.1255   -1.5021    0.8328 H   0  0  0  0  0  0  0  0  0  0  0  0
    4.8255    0.9165   -0.0403 H   0  0  0  0  0  0  0  0  0  0  0  0
    3.3195    1.9453   -0.0192 H   0  0  0  0  0  0  0  0  0  0  0  0
   -0.9813    1.8416    0.0214 H   0  0  0  0  0  0  0  0  0  0  0  0
   -0.8910   -0.5172    0.0078 H   0  0  0  0  0  0  0  0  0  0  0  0
  1  2  1  0  0  0  0
  2  7  1  0  0  0  0
  2  3  1  0  0  0  0
  3  4  1  0  0  0  0
  4  5  1  0  0  0  0
  5  6  1  0  0  0  0
  5  8  1  0  0  0  0
  6  7  1  0  0  0  0
  8  9  1  0  0  0  0
  9 10  1  0  0  0  0
 10 11  1  0  0  0  0
 11 12  1  0  0  0  0
 12 13  2  0  0  0  0
 12 14  1  0  0  0  0
 14 15  2  0  0  0  0
 14 19  1  0  0  0  0
 15 16  1  0  0  0  0
 16 17  2  0  0  0  0
 16 21  1  0  0  0  0
 17 18  1  0  0  0  0
 18 19  1  0  0  0  0
 19 20  2  0  0  0  0
 21 22  2  0  0  0  0
 21 23  2  0  0  0  0
  1 24  1  0  0  0  0
  1 25  1  0  0  0  0
  1 26  1  0  0  0  0
  2 27  1  0  0  0  0
  3 28  1  0  0  0  0
  3 29  1  0  0  0  0
  4 30  1  0  0  0  0
  4 31  1  0  0  0  0
  5 32  1  0  0  0  0
  6 33  1  0  0  0  0
  6 34  1  0  0  0  0
  7 35  1  0  0  0  0
  7 36  1  0  0  0  0
  8 37  1  0  0  0  0
  8 38  1  0  0  0  0
  9 39  1  0  0  0  0
  9 40  1  0  0  0  0
 10 41  1  0  0  0  0
 10 42  1  0  0  0  0
 11 43  1  0  0  0  0
 15 44  1  0  0  0  0
 17 45  1  0  0  0  0
 18 46  1  0  0  0  0
M  CHG  1   5   1
M  END
> <Name>
ZINC28069362

> <reference>
BDB5195

> <quality>
0.744

> <status>
decoy

$$$$
ZINC26654237
  SciTegic06141217593D

 47 48  0  0  1  0            999 V2000
   -3.8943    0.7422    3.5141 C   0  0  0  0  0  0  0  0  0  0  0  0
   -2.5756    1.4563    3.2106 C   0  0  1  0  0  0  0  0  0  0  0  0
   -1.6078    1.2582    4.3789 C   0  0  0  0  0  0  0  0  0  0  0  0
   -1.9620    0.8742    1.9357 C   0  0  0  0  0  0  0  0  0  0  0  0
   -0.7633    1.6425    1.5742 N   0  3  0  0  0  0  0  0  0  0  0  0
   -1.1243    2.9701    1.0594 C   0  0  0  0  0  0  0  0  0  0  0  0
    0.0806    3.8737    1.1114 C   0  0  0  0  0  0  0  0  0  0  0  0
    0.4162    4.5068    2.2950 C   0  0  0  0  0  0  0  0  0  0  0  0
    1.5208    5.3315    2.3506 C   0  0  0  0  0  0  0  0  0  0  0  0
    2.2942    5.5349    1.2067 C   0  0  0  0  0  0  0  0  0  0  0  0
    1.9470    4.8975    0.0145 C   0  0  0  0  0  0  0  0  0  0  0  0
    0.8430    4.0712   -0.0262 C   0  0  0  0  0  0  0  0  0  0  0  0
    3.4763    6.4214    1.2576 C   0  0  0  0  0  0  0  0  0  0  0  0
    4.1482    6.5964    0.2599 O   0  0  0  0  0  0  0  0  0  0  0  0
    3.8089    7.0355    2.4104 N   0  0  0  0  0  0  0  0  0  0  0  0
    0.0602    0.9079    0.6045 C   0  0  1  0  0  0  0  0  0  0  0  0
   -0.4924    1.1395   -0.8116 C   0  0  0  0  0  0  0  0  0  0  0  0
    0.5609    0.6231   -1.8330 C   0  0  0  0  0  0  0  0  0  0  0  0
    2.1162    1.2137   -1.0410 S   0  0  0  0  0  0  0  0  0  0  0  0
    2.4442    2.4936   -1.5640 O   0  0  0  0  0  0  0  0  0  0  0  0
    3.0814    0.1717   -1.0839 O   0  0  0  0  0  0  0  0  0  0  0  0
    1.5224    1.4084    0.6887 C   0  0  0  0  0  0  0  0  0  0  0  0
   -4.3365    1.1603    4.4305 H   0  0  0  0  0  0  0  0  0  0  0  0
   -3.7065   -0.3324    3.6555 H   0  0  0  0  0  0  0  0  0  0  0  0
   -4.5906    0.8842    2.6745 H   0  0  0  0  0  0  0  0  0  0  0  0
   -2.7645    2.5307    3.0691 H   0  0  0  0  0  0  0  0  0  0  0  0
   -1.4180    0.1841    4.5211 H   0  0  0  0  0  0  0  0  0  0  0  0
   -2.0479    1.6767    5.2960 H   0  0  0  0  0  0  0  0  0  0  0  0
   -0.6595    1.7714    4.1614 H   0  0  0  0  0  0  0  0  0  0  0  0
   -1.6853   -0.1763    2.1084 H   0  0  0  0  0  0  0  0  0  0  0  0
   -2.6938    0.9307    1.1164 H   0  0  0  0  0  0  0  0  0  0  0  0
   -0.2033    1.7758    2.4283 H   0  0  0  0  0  0  0  0  0  0  0  0
   -1.9289    3.3973    1.6759 H   0  0  0  0  0  0  0  0  0  0  0  0
   -1.4688    2.8788    0.0187 H   0  0  0  0  0  0  0  0  0  0  0  0
   -0.1991    4.3522    3.1936 H   0  0  0  0  0  0  0  0  0  0  0  0
    1.7914    5.8276    3.2943 H   0  0  0  0  0  0  0  0  0  0  0  0
    2.5523    5.0537   -0.8906 H   0  0  0  0  0  0  0  0  0  0  0  0
    0.5683    3.5683   -0.9651 H   0  0  0  0  0  0  0  0  0  0  0  0
    3.2396    6.8872    3.2559 H   0  0  0  0  0  0  0  0  0  0  0  0
    4.6324    7.6531    2.4459 H   0  0  0  0  0  0  0  0  0  0  0  0
    0.0329   -0.1679    0.8325 H   0  0  0  0  0  0  0  0  0  0  0  0
   -1.4327    0.5828   -0.9375 H   0  0  0  0  0  0  0  0  0  0  0  0
   -0.6654    2.2140   -0.9713 H   0  0  0  0  0  0  0  0  0  0  0  0
    0.5564   -0.4760   -1.8776 H   0  0  0  0  0  0  0  0  0  0  0  0
    0.4300    1.1093   -2.8110 H   0  0  0  0  0  0  0  0  0  0  0  0
    2.1127    0.7679    1.3605 H   0  0  0  0  0  0  0  0  0  0  0  0
    1.5513    2.4697    0.9764 H   0  0  0  0  0  0  0  0  0  0  0  0
  1  2  1  0  0  0  0
  2  3  1  0  0  0  0
  2  4  1  0  0  0  0
  4  5  1  0  0  0  0
  5  6  1  0  0  0  0
  5 16  1  0  0  0  0
  6  7  1  0  0  0  0
  7 12  2  0  0  0  0
  7  8  1  0  0  0  0
  8  9  2  0  0  0  0
  9 10  1  0  0  0  0
 10 11  2  0  0  0  0
 10 13  1  0  0  0  0
 11 12  1  0  0  0  0
 13 14  2  0  0  0  0
 13 15  1  0  0  0  0
 16 22  1  0  0  0  0
 16 17  1  0  0  0  0
 17 18  1  0  0  0  0
 18 19  1  0  0  0  0
 19 20  2  0  0  0  0
 19 21  2  0  0  0  0
 19 22  1  0  0  0  0
  1 23  1  0  0  0  0
  1 24  1  0  0  0  0
  1 25  1  0  0  0  0
  2 26  1  0  0  0  0
  3 27  1  0  0  0  0
  3 28  1  0  0  0  0
  3 29  1  0  0  0  0
  4 30  1  0  0  0  0
  4 31  1  0  0  0  0
  5 32  1  0  0  0  0
  6 33  1  0  0  0  0
  6 34  1  0  0  0  0
  8 35  1  0  0  0  0
  9 36  1  0  0  0  0
 11 37  1  0  0  0  0
 12 38  1  0  0  0  0
 15 39  1  0  0  0  0
 15 40  1  0  0  0  0
 16 41  1  0  0  0  0
 17 42  1  0  0  0  0
 17 43  1  0  0  0  0
 18 44  1  0  0  0  0
 18 45  1  0  0  0  0
 22 46  1  0  0  0  0
 22 47  1  0  0  0  0
M  CHG  1   5   1
M  END
> <Name>
ZINC26654237

> <reference>
BDB5228

> <quality>
0.678

> <status>
decoy

$$$$
ZINC06509720
  SciTegic06141217593D

 41 42  0  0  0  0            999 V2000
    3.2307    6.5178   -0.2203 C   0  0  0  0  0  0  0  0  0  0  0  0
    2.3359    4.2698   -0.1274 C   0  0  0  0  0  0  0  0  0  0  0  0
    1.0664    3.4677   -0.0015 C   0  0  0  0  0  0  0  0  0  0  0  0
   -0.0027    4.0349    0.1014 O   0  0  0  0  0  0  0  0  0  0  0  0
    1.1197    2.0574   -0.0032 C   0  0  0  0  0  0  0  0  0  0  0  0
   -0.0561    1.2871   -0.0090 C   0  0  0  0  0  0  0  0  0  0  0  0
    0.0465   -0.0748   -0.0109 N   0  0  0  0  0  0  0  0  0  0  0  0
    1.2423   -0.6844   -0.0073 C   0  0  0  0  0  0  0  0  0  0  0  0
    1.2800   -1.8992   -0.0096 O   0  0  0  0  0  0  0  0  0  0  0  0
    2.3986   -0.0014   -0.0017 N   0  0  0  0  0  0  0  0  0  0  0  0
    2.4053    1.3476    0.0001 C   0  0  0  0  0  0  0  0  0  0  0  0
    3.4551    1.9636    0.0044 O   0  0  0  0  0  0  0  0  0  0  0  0
    3.6691   -0.7308    0.0020 C   0  0  0  0  0  0  0  0  0  0  0  0
   -1.1730   -0.8866   -0.0164 C   0  0  0  0  0  0  0  0  0  0  0  0
   -1.5862   -1.1626   -1.4391 C   0  0  0  0  0  0  0  0  0  0  0  0
   -2.4436   -0.2956   -2.0904 C   0  0  0  0  0  0  0  0  0  0  0  0
   -2.8188   -0.5462   -3.3971 C   0  0  0  0  0  0  0  0  0  0  0  0
   -2.3450   -1.6694   -4.0489 C   0  0  0  0  0  0  0  0  0  0  0  0
   -1.4918   -2.5391   -3.3959 C   0  0  0  0  0  0  0  0  0  0  0  0
   -1.1124   -2.2858   -2.0910 C   0  0  0  0  0  0  0  0  0  0  0  0
   -1.2766    1.8884   -0.0183 N   0  0  0  0  0  0  0  0  0  0  0  0
    2.0045    5.7070   -0.0986 N   0  3  0  0  0  0  0  0  0  0  0  0
    3.7307    6.2757   -1.1697 H   0  0  0  0  0  0  0  0  0  0  0  0
    3.9050    6.2802    0.6157 H   0  0  0  0  0  0  0  0  0  0  0  0
    2.9756    7.5876   -0.1980 H   0  0  0  0  0  0  0  0  0  0  0  0
    3.0064    4.0309    0.7112 H   0  0  0  0  0  0  0  0  0  0  0  0
    2.8326    4.0269   -1.0783 H   0  0  0  0  0  0  0  0  0  0  0  0
    3.6337   -1.3797   -0.8855 H   0  0  0  0  0  0  0  0  0  0  0  0
    3.6269   -1.3827    0.8870 H   0  0  0  0  0  0  0  0  0  0  0  0
    4.5540   -0.0774    0.0065 H   0  0  0  0  0  0  0  0  0  0  0  0
   -1.9785   -0.3438    0.4998 H   0  0  0  0  0  0  0  0  0  0  0  0
   -0.9823   -1.8386    0.5007 H   0  0  0  0  0  0  0  0  0  0  0  0
   -2.8273    0.5937   -1.5689 H   0  0  0  0  0  0  0  0  0  0  0  0
   -3.4943    0.1481   -3.9182 H   0  0  0  0  0  0  0  0  0  0  0  0
   -2.6469   -1.8711   -5.0872 H   0  0  0  0  0  0  0  0  0  0  0  0
   -1.1147   -3.4328   -3.9147 H   0  0  0  0  0  0  0  0  0  0  0  0
   -0.4335   -2.9780   -1.5714 H   0  0  0  0  0  0  0  0  0  0  0  0
   -1.3371    2.9166   -0.0211 H   0  0  0  0  0  0  0  0  0  0  0  0
   -2.1356    1.3200   -0.0225 H   0  0  0  0  0  0  0  0  0  0  0  0
    1.5342    5.9305    0.7901 H   0  0  0  0  0  0  0  0  0  0  0  0
    1.3703    5.9260   -0.8801 H   0  0  0  0  0  0  0  0  0  0  0  0
  1 22  1  0  0  0  0
  2  3  1  0  0  0  0
  2 22  1  0  0  0  0
  3  4  2  0  0  0  0
  3  5  1  0  0  0  0
  5 11  1  0  0  0  0
  5  6  2  0  0  0  0
  6  7  1  0  0  0  0
  6 21  1  0  0  0  0
  7  8  1  0  0  0  0
  7 14  1  0  0  0  0
  8  9  2  0  0  0  0
  8 10  1  0  0  0  0
 10 11  1  0  0  0  0
 10 13  1  0  0  0  0
 11 12  2  0  0  0  0
 14 15  1  0  0  0  0
 15 20  2  0  0  0  0
 15 16  1  0  0  0  0
 16 17  2  0  0  0  0
 17 18  1  0  0  0  0
 18 19  2  0  0  0  0
 19 20  1  0  0  0  0
  1 23  1  0  0  0  0
  1 24  1  0  0  0  0
  1 25  1  0  0  0  0
  2 26  1  0  0  0  0
  2 27  1  0  0  0  0
 13 28  1  0  0  0  0
 13 29  1  0  0  0  0
 13 30  1  0  0  0  0
 14 31  1  0  0  0  0
 14 32  1  0  0  0  0
 16 33  1  0  0  0  0
 17 34  1  0  0  0  0
 18 35  1  0  0  0  0
 19 36  1  0  0  0  0
 20 37  1  0  0  0  0
 21 38  1  0  0  0  0
 21 39  1  0  0  0  0
 22 40  1  0  0  0  0
 22 41  1  0  0  0  0
M  CHG  1  22   1
M  END
> <Name>
ZINC06509720

> <reference>
BDB4983

> <quality>
0.733

> <status>
decoy

$$$$
ZINC31172347
  SciTegic06141217593D

 52 54  0  0  1  0            999 V2000
    3.6334    2.7773    1.5491 C   0  0  0  0  0  0  0  0  0  0  0  0
    3.5975    1.7809    0.4703 N   0  0  0  0  0  0  0  0  0  0  0  0
    4.8960    1.1081    0.3316 C   0  0  0  0  0  0  0  0  0  0  0  0
    5.9454    2.1170   -0.1394 C   0  0  0  0  0  0  0  0  0  0  0  0
    7.2775    1.4268   -0.2816 C   0  0  0  0  0  0  0  0  0  0  0  0
    7.3776    0.2443   -0.0309 O   0  0  0  0  0  0  0  0  0  0  0  0
    8.3575    2.1235   -0.6874 N   0  0  0  0  0  0  0  0  0  0  0  0
    9.5699    1.4621   -0.9224 C   0  0  0  0  0  0  0  0  0  0  0  0
   10.7737    2.1072   -0.6623 C   0  0  0  0  0  0  0  0  0  0  0  0
   11.9715    1.4588   -0.8861 C   0  0  0  0  0  0  0  0  0  0  0  0
   11.9755    0.1642   -1.3832 C   0  0  0  0  0  0  0  0  0  0  0  0
   10.7681   -0.4843   -1.6508 C   0  0  0  0  0  0  0  0  0  0  0  0
    9.5669    0.1674   -1.4193 C   0  0  0  0  0  0  0  0  0  0  0  0
   11.0894   -1.7515   -2.1316 N   0  0  0  0  0  0  0  0  0  0  0  0
   12.4303   -1.8693   -2.1558 C   0  0  0  0  0  0  0  0  0  0  0  0
   13.0405   -2.8557   -2.5241 O   0  0  0  0  0  0  0  0  0  0  0  0
   12.9939   -0.7307   -1.7104 N   0  0  0  0  0  0  0  0  0  0  0  0
    2.5203    0.8063    0.6893 C   0  0  0  0  0  0  0  0  0  0  0  0
    1.1864    1.4993    0.5818 C   0  0  0  0  0  0  0  0  0  0  0  0
    1.1378    2.6881    0.3460 O   0  0  0  0  0  0  0  0  0  0  0  0
    0.0475    0.7981    0.7478 N   0  0  0  0  0  0  0  0  0  0  0  0
   -1.1888    1.4574    0.7381 C   0  0  0  0  0  0  0  0  0  0  0  0
   -2.2171    1.0172    1.5606 C   0  0  0  0  0  0  0  0  0  0  0  0
   -3.4338    1.6704    1.5541 C   0  0  0  0  0  0  0  0  0  0  0  0
   -3.6322    2.7593    0.7179 C   0  0  0  0  0  0  0  0  0  0  0  0
   -2.6068    3.1967   -0.1076 C   0  0  0  0  0  0  0  0  0  0  0  0
   -1.3880    2.5477   -0.0982 C   0  0  0  0  0  0  0  0  0  0  0  0
   -4.8323    3.3986    0.7079 O   0  0  0  0  0  0  0  0  0  0  0  0
   -5.8431    2.8947    1.5833 C   0  0  0  0  0  0  0  0  0  0  0  0
    4.4101    3.5217    1.3197 H   0  0  0  0  0  0  0  0  0  0  0  0
    3.8873    2.2711    2.4921 H   0  0  0  0  0  0  0  0  0  0  0  0
    2.6555    3.2725    1.6413 H   0  0  0  0  0  0  0  0  0  0  0  0
    5.1990    0.6915    1.3035 H   0  0  0  0  0  0  0  0  0  0  0  0
    4.8125    0.2959   -0.4055 H   0  0  0  0  0  0  0  0  0  0  0  0
    6.0310    2.9295    0.5971 H   0  0  0  0  0  0  0  0  0  0  0  0
    5.6433    2.5336   -1.1116 H   0  0  0  0  0  0  0  0  0  0  0  0
    8.2915    3.1422   -0.8247 H   0  0  0  0  0  0  0  0  0  0  0  0
   10.7716    3.1375   -0.2770 H   0  0  0  0  0  0  0  0  0  0  0  0
   12.9221    1.9685   -0.6703 H   0  0  0  0  0  0  0  0  0  0  0  0
    8.6142   -0.3408   -1.6291 H   0  0  0  0  0  0  0  0  0  0  0  0
   10.4156   -2.4754   -2.4196 H   0  0  0  0  0  0  0  0  0  0  0  0
   14.0046   -0.5512   -1.6257 H   0  0  0  0  0  0  0  0  0  0  0  0
    2.6229    0.3635    1.6910 H   0  0  0  0  0  0  0  0  0  0  0  0
    2.5831    0.0132   -0.0704 H   0  0  0  0  0  0  0  0  0  0  0  0
    0.0859   -0.2224    0.8818 H   0  0  0  0  0  0  0  0  0  0  0  0
   -2.0627    0.1483    2.2173 H   0  0  0  0  0  0  0  0  0  0  0  0
   -4.2457    1.3272    2.2121 H   0  0  0  0  0  0  0  0  0  0  0  0
   -2.7646    4.0607   -0.7698 H   0  0  0  0  0  0  0  0  0  0  0  0
   -0.5751    2.8944   -0.7531 H   0  0  0  0  0  0  0  0  0  0  0  0
   -5.4185    2.9279    2.5975 H   0  0  0  0  0  0  0  0  0  0  0  0
   -5.9881    1.8384    1.3126 H   0  0  0  0  0  0  0  0  0  0  0  0
   -6.7832    3.4622    1.5190 H   0  0  0  0  0  0  0  0  0  0  0  0
  1  2  1  0  0  0  0
  2  3  1  0  0  0  0
  2 18  1  0  0  0  0
  3  4  1  0  0  0  0
  4  5  1  0  0  0  0
  5  6  2  0  0  0  0
  5  7  1  0  0  0  0
  7  8  1  0  0  0  0
  8 13  2  0  0  0  0
  8  9  1  0  0  0  0
  9 10  2  0  0  0  0
 10 11  1  0  0  0  0
 11 17  1  0  0  0  0
 11 12  2  0  0  0  0
 12 13  1  0  0  0  0
 12 14  1  0  0  0  0
 14 15  1  0  0  0  0
 15 16  2  0  0  0  0
 15 17  1  0  0  0  0
 18 19  1  0  0  0  0
 19 20  2  0  0  0  0
 19 21  1  0  0  0  0
 21 22  1  0  0  0  0
 22 27  2  0  0  0  0
 22 23  1  0  0  0  0
 23 24  2  0  0  0  0
 24 25  1  0  0  0  0
 25 26  2  0  0  0  0
 25 28  1  0  0  0  0
 26 27  1  0  0  0  0
 28 29  1  0  0  0  0
  1 30  1  0  0  0  0
  1 31  1  0  0  0  0
  1 32  1  0  0  0  0
  3 33  1  0  0  0  0
  3 34  1  0  0  0  0
  4 35  1  0  0  0  0
  4 36  1  0  0  0  0
  7 37  1  0  0  0  0
  9 38  1  0  0  0  0
 10 39  1  0  0  0  0
 13 40  1  0  0  0  0
 14 41  1  0  0  0  0
 17 42  1  0  0  0  0
 18 43  1  0  0  0  0
 18 44  1  0  0  0  0
 21 45  1  0  0  0  0
 23 46  1  0  0  0  0
 24 47  1  0  0  0  0
 26 48  1  0  0  0  0
 27 49  1  0  0  0  0
 29 50  1  0  0  0  0
 29 51  1  0  0  0  0
 29 52  1  0  0  0  0
M  END
> <Name>
ZINC31172347

> <reference>
BDB5007

> <quality>
0.689

> <status>
decoy

$$$$
ZINC18663576
  SciTegic06141217593D

 48 49  0  0  0  0            999 V2000
  -10.6342   11.6492   -0.3685 C   0  0  0  0  0  0  0  0  0  0  0  0
   -9.7084   10.4441   -0.1915 C   0  0  0  0  0  0  0  0  0  0  0  0
   -8.3943   10.7498   -0.7625 N   0  0  0  0  0  0  0  0  0  0  0  0
   -7.3801    9.8003   -0.7198 C   0  0  0  0  0  0  0  0  0  0  0  0
   -7.3973    8.5814   -0.2173 N   0  0  0  0  0  0  0  0  0  0  0  0
   -6.2680    7.7982   -0.2814 N   0  0  0  0  0  0  0  0  0  0  0  0
   -5.1730    8.2706   -0.8454 C   0  0  0  0  0  0  0  0  0  0  0  0
   -5.7027    9.9080   -1.3245 S   0  0  0  0  0  0  0  0  0  0  0  0
   -3.6050    7.4965   -1.0614 S   0  0  0  0  0  0  0  0  0  0  0  0
   -3.8202    5.8550   -0.3199 C   0  0  0  0  0  0  0  0  0  0  0  0
   -2.5347    5.0776   -0.4389 C   0  0  0  0  0  0  0  0  0  0  0  0
   -1.5684    5.5814   -0.9716 O   0  0  0  0  0  0  0  0  0  0  0  0
   -2.4587    3.8226    0.0465 N   0  0  0  0  0  0  0  0  0  0  0  0
   -1.2350    3.1403    0.0360 C   0  0  0  0  0  0  0  0  0  0  0  0
   -1.2083    1.7645   -0.1513 C   0  0  0  0  0  0  0  0  0  0  0  0
   -0.0025    1.0920   -0.1554 C   0  0  0  0  0  0  0  0  0  0  0  0
    1.1831    1.7918    0.0161 C   0  0  0  0  0  0  0  0  0  0  0  0
    1.1576    3.1667    0.1975 C   0  0  0  0  0  0  0  0  0  0  0  0
   -0.0483    3.8399    0.2075 C   0  0  0  0  0  0  0  0  0  0  0  0
    2.6638    4.0545    0.4158 S   0  0  0  0  0  0  0  0  0  0  0  0
    3.5395    3.6294   -0.6195 O   0  0  0  0  0  0  0  0  0  0  0  0
    2.3086    5.4178    0.6012 O   0  0  0  0  0  0  0  0  0  0  0  0
    3.3323    3.5415    1.8414 N   0  0  0  0  0  0  0  0  0  0  0  0
    4.2550    2.4036    1.8502 C   0  0  0  0  0  0  0  0  0  0  0  0
    3.0010    4.2256    3.0938 C   0  0  0  0  0  0  0  0  0  0  0  0
    2.3706    1.1297    0.0058 O   0  0  0  0  0  0  0  0  0  0  0  0
    2.3227   -0.2855   -0.1863 C   0  0  0  0  0  0  0  0  0  0  0  0
  -10.7440   11.8743   -1.4396 H   0  0  0  0  0  0  0  0  0  0  0  0
  -10.2052   12.5213    0.1467 H   0  0  0  0  0  0  0  0  0  0  0  0
  -11.6211   11.4203    0.0600 H   0  0  0  0  0  0  0  0  0  0  0  0
   -9.5989   10.2199    0.8798 H   0  0  0  0  0  0  0  0  0  0  0  0
  -10.1373    9.5720   -0.7067 H   0  0  0  0  0  0  0  0  0  0  0  0
   -8.2220   11.6683   -1.1956 H   0  0  0  0  0  0  0  0  0  0  0  0
   -4.6232    5.3168   -0.8448 H   0  0  0  0  0  0  0  0  0  0  0  0
   -4.0851    5.9642    0.7421 H   0  0  0  0  0  0  0  0  0  0  0  0
   -3.3002    3.3651    0.4252 H   0  0  0  0  0  0  0  0  0  0  0  0
   -2.1476    1.2107   -0.2964 H   0  0  0  0  0  0  0  0  0  0  0  0
    0.0182    0.0010   -0.2947 H   0  0  0  0  0  0  0  0  0  0  0  0
   -0.0684    4.9303    0.3513 H   0  0  0  0  0  0  0  0  0  0  0  0
    5.0454    2.6850    1.1388 H   0  0  0  0  0  0  0  0  0  0  0  0
    3.6884    1.5864    1.3799 H   0  0  0  0  0  0  0  0  0  0  0  0
    4.6499    2.1331    2.8406 H   0  0  0  0  0  0  0  0  0  0  0  0
    1.9034    4.1800    3.1501 H   0  0  0  0  0  0  0  0  0  0  0  0
    3.2604    5.2785    2.9090 H   0  0  0  0  0  0  0  0  0  0  0  0
    3.4908    3.8172    3.9901 H   0  0  0  0  0  0  0  0  0  0  0  0
    1.8027   -0.4505   -1.1415 H   0  0  0  0  0  0  0  0  0  0  0  0
    1.6870   -0.6853    0.6174 H   0  0  0  0  0  0  0  0  0  0  0  0
    3.3201   -0.7494   -0.1826 H   0  0  0  0  0  0  0  0  0  0  0  0
  1  2  1  0  0  0  0
  2  3  1  0  0  0  0
  3  4  1  0  0  0  0
  4  8  1  0  0  0  0
  4  5  2  0  0  0  0
  5  6  1  0  0  0  0
  6  7  2  0  0  0  0
  7  8  1  0  0  0  0
  7  9  1  0  0  0  0
  9 10  1  0  0  0  0
 10 11  1  0  0  0  0
 11 12  2  0  0  0  0
 11 13  1  0  0  0  0
 13 14  1  0  0  0  0
 14 19  2  0  0  0  0
 14 15  1  0  0  0  0
 15 16  2  0  0  0  0
 16 17  1  0  0  0  0
 17 18  2  0  0  0  0
 17 26  1  0  0  0  0
 18 19  1  0  0  0  0
 18 20  1  0  0  0  0
 20 21  2  0  0  0  0
 20 22  2  0  0  0  0
 20 23  1  0  0  0  0
 23 24  1  0  0  0  0
 23 25  1  0  0  0  0
 26 27  1  0  0  0  0
  1 28  1  0  0  0  0
  1 29  1  0  0  0  0
  1 30  1  0  0  0  0
  2 31  1  0  0  0  0
  2 32  1  0  0  0  0
  3 33  1  0  0  0  0
 10 34  1  0  0  0  0
 10 35  1  0  0  0  0
 13 36  1  0  0  0  0
 15 37  1  0  0  0  0
 16 38  1  0  0  0  0
 19 39  1  0  0  0  0
 24 40  1  0  0  0  0
 24 41  1  0  0  0  0
 24 42  1  0  0  0  0
 25 43  1  0  0  0  0
 25 44  1  0  0  0  0
 25 45  1  0  0  0  0
 27 46  1  0  0  0  0
 27 47  1  0  0  0  0
 27 48  1  0  0  0  0
M  END
> <Name>
ZINC18663576

> <reference>
BDB4946

> <quality>
0.739

> <status>
decoy

$$$$
ZINC19731960
  SciTegic06141217593D

 42 43  0  0  1  0            999 V2000
    1.5260    9.9795    1.2971 C   0  0  0  0  0  0  0  0  0  0  0  0
    2.1391    9.5438    0.0353 N   0  0  0  0  0  0  0  0  0  0  0  0
    2.3457    8.0894    0.0250 C   0  0  0  0  0  0  0  0  0  0  0  0
    0.9893    7.3815    0.0341 C   0  0  0  0  0  0  0  0  0  0  0  0
    1.2045    5.8668    0.0234 C   0  0  0  0  0  0  0  0  0  0  0  0
   -0.0624    5.2056    0.0320 O   0  0  0  0  0  0  0  0  0  0  0  0
   -0.0492    3.8468    0.0241 C   0  0  0  0  0  0  0  0  0  0  0  0
    1.1594    3.1641    0.0084 C   0  0  0  0  0  0  0  0  0  0  0  0
    1.1746    1.7824    0.0004 C   0  0  0  0  0  0  0  0  0  0  0  0
   -0.0126    1.0758    0.0080 C   0  0  0  0  0  0  0  0  0  0  0  0
   -1.2253    1.7537    0.0174 C   0  0  0  0  0  0  0  0  0  0  0  0
   -1.2422    3.1419    0.0313 C   0  0  0  0  0  0  0  0  0  0  0  0
   -2.4256    1.0396    0.0188 N   0  0  0  0  0  0  0  0  0  0  0  0
    3.3998   10.2563   -0.2111 C   0  0  2  0  0  0  0  0  0  0  0  0
    4.3654   10.0246    0.9630 C   0  0  0  0  0  0  0  0  0  0  0  0
    5.5531   11.0128    0.8724 C   0  0  0  0  0  0  0  0  0  0  0  0
    4.8161   12.4507   -0.0061 S   0  0  0  0  0  0  0  0  0  0  0  0
    5.4828   12.6244   -1.2489 O   0  0  0  0  0  0  0  0  0  0  0  0
    4.7210   13.5444    0.8961 O   0  0  0  0  0  0  0  0  0  0  0  0
    3.1274   11.7839   -0.3198 C   0  0  0  0  0  0  0  0  0  0  0  0
    2.1868    9.6966    2.1297 H   0  0  0  0  0  0  0  0  0  0  0  0
    0.5583    9.4703    1.4166 H   0  0  0  0  0  0  0  0  0  0  0  0
    1.3774   11.0694    1.2906 H   0  0  0  0  0  0  0  0  0  0  0  0
    2.9014    7.8042   -0.8805 H   0  0  0  0  0  0  0  0  0  0  0  0
    2.9191    7.7930    0.9157 H   0  0  0  0  0  0  0  0  0  0  0  0
    0.4332    7.6659    0.9396 H   0  0  0  0  0  0  0  0  0  0  0  0
    0.4149    7.6758   -0.8567 H   0  0  0  0  0  0  0  0  0  0  0  0
    1.7602    5.5817   -0.8821 H   0  0  0  0  0  0  0  0  0  0  0  0
    1.7780    5.5705    0.9141 H   0  0  0  0  0  0  0  0  0  0  0  0
    2.1063    3.7238    0.0023 H   0  0  0  0  0  0  0  0  0  0  0  0
    2.1338    1.2440   -0.0120 H   0  0  0  0  0  0  0  0  0  0  0  0
    0.0023   -0.0241    0.0066 H   0  0  0  0  0  0  0  0  0  0  0  0
   -2.2008    3.6812    0.0480 H   0  0  0  0  0  0  0  0  0  0  0  0
   -2.4116    0.0097    0.0129 H   0  0  0  0  0  0  0  0  0  0  0  0
   -3.3244    1.5425    0.0258 H   0  0  0  0  0  0  0  0  0  0  0  0
    3.8400    9.8802   -1.1464 H   0  0  0  0  0  0  0  0  0  0  0  0
    4.7456    8.9930    0.9269 H   0  0  0  0  0  0  0  0  0  0  0  0
    3.8316   10.1816    1.9119 H   0  0  0  0  0  0  0  0  0  0  0  0
    5.8801   11.3167    1.8777 H   0  0  0  0  0  0  0  0  0  0  0  0
    6.3678   10.5847    0.2699 H   0  0  0  0  0  0  0  0  0  0  0  0
    2.8009   12.0517   -1.3355 H   0  0  0  0  0  0  0  0  0  0  0  0
    2.4398   12.1169    0.4716 H   0  0  0  0  0  0  0  0  0  0  0  0
  1  2  1  0  0  0  0
  2  3  1  0  0  0  0
  2 14  1  0  0  0  0
  3  4  1  0  0  0  0
  4  5  1  0  0  0  0
  5  6  1  0  0  0  0
  6  7  1  0  0  0  0
  7 12  2  0  0  0  0
  7  8  1  0  0  0  0
  8  9  2  0  0  0  0
  9 10  1  0  0  0  0
 10 11  2  0  0  0  0
 11 12  1  0  0  0  0
 11 13  1  0  0  0  0
 14 20  1  0  0  0  0
 14 15  1  0  0  0  0
 15 16  1  0  0  0  0
 16 17  1  0  0  0  0
 17 18  2  0  0  0  0
 17 19  2  0  0  0  0
 17 20  1  0  0  0  0
  1 21  1  0  0  0  0
  1 22  1  0  0  0  0
  1 23  1  0  0  0  0
  3 24  1  0  0  0  0
  3 25  1  0  0  0  0
  4 26  1  0  0  0  0
  4 27  1  0  0  0  0
  5 28  1  0  0  0  0
  5 29  1  0  0  0  0
  8 30  1  0  0  0  0
  9 31  1  0  0  0  0
 10 32  1  0  0  0  0
 12 33  1  0  0  0  0
 13 34  1  0  0  0  0
 13 35  1  0  0  0  0
 14 36  1  0  0  0  0
 15 37  1  0  0  0  0
 15 38  1  0  0  0  0
 16 39  1  0  0  0  0
 16 40  1  0  0  0  0
 20 41  1  0  0  0  0
 20 42  1  0  0  0  0
M  END
> <Name>
ZINC19731960

> <reference>
BDB5015

> <quality>
0.707

> <status>
decoy

$$$$
ZINC31217234
  SciTegic06141217593D

 48 49  0  0  0  0            999 V2000
   -4.4881    7.7991   11.2960 C   0  0  0  0  0  0  0  0  0  0  0  0
   -4.5865    8.7267    9.7401 S   0  0  0  0  0  0  0  0  0  0  0  0
   -3.9270    9.9782    9.8739 O   0  0  0  0  0  0  0  0  0  0  0  0
   -5.9028    8.6545    9.2098 O   0  0  0  0  0  0  0  0  0  0  0  0
   -3.6537    7.8693    8.6738 N   0  0  0  0  0  0  0  0  0  0  0  0
   -4.0508    6.5161    8.2769 C   0  0  0  0  0  0  0  0  0  0  0  0
   -3.2606    6.0962    7.0358 C   0  0  0  0  0  0  0  0  0  0  0  0
   -3.6753    4.6830    6.6213 C   0  0  0  0  0  0  0  0  0  0  0  0
   -2.9187    4.2808    5.4330 N   0  0  0  0  0  0  0  0  0  0  0  0
   -3.1194    3.0657    4.8857 C   0  0  0  0  0  0  0  0  0  0  0  0
   -3.9281    2.3034    5.3780 O   0  0  0  0  0  0  0  0  0  0  0  0
   -2.3559    2.6598    3.6864 C   0  0  0  0  0  0  0  0  0  0  0  0
   -2.5613    1.4021    3.1172 C   0  0  0  0  0  0  0  0  0  0  0  0
   -1.8458    1.0298    1.9979 C   0  0  0  0  0  0  0  0  0  0  0  0
   -0.9267    1.9002    1.4394 C   0  0  0  0  0  0  0  0  0  0  0  0
   -0.7145    3.1464    2.0019 C   0  0  0  0  0  0  0  0  0  0  0  0
   -1.4268    3.5330    3.1183 C   0  0  0  0  0  0  0  0  0  0  0  0
   -0.0172    1.4168    0.0098 S   0  0  0  0  0  0  0  0  0  0  0  0
    0.0021   -0.0041    0.0020 O   0  0  0  0  0  0  0  0  0  0  0  0
    1.1718    2.1948    0.0027 O   0  0  0  0  0  0  0  0  0  0  0  0
   -0.8975    1.8855   -1.3122 N   0  0  0  0  0  0  0  0  0  0  0  0
   -1.9095    1.0708   -2.0004 C   0  0  0  0  0  0  0  0  0  0  0  0
   -2.4438    1.9063   -3.1828 C   0  0  0  0  0  0  0  0  0  0  0  0
   -1.2951    2.9176   -3.4380 C   0  0  0  0  0  0  0  0  0  0  0  0
   -0.7916    3.1863   -1.9978 C   0  0  0  0  0  0  0  0  0  0  0  0
   -4.9675    8.3817   12.0965 H   0  0  0  0  0  0  0  0  0  0  0  0
   -3.4316    7.6305   11.5515 H   0  0  0  0  0  0  0  0  0  0  0  0
   -5.0005    6.8321   11.1847 H   0  0  0  0  0  0  0  0  0  0  0  0
   -2.7943    8.2874    8.2896 H   0  0  0  0  0  0  0  0  0  0  0  0
   -3.8405    5.8161    9.0990 H   0  0  0  0  0  0  0  0  0  0  0  0
   -5.1267    6.5007    8.0482 H   0  0  0  0  0  0  0  0  0  0  0  0
   -3.4708    6.7956    6.2132 H   0  0  0  0  0  0  0  0  0  0  0  0
   -2.1844    6.1099    7.2629 H   0  0  0  0  0  0  0  0  0  0  0  0
   -3.4651    3.9831    7.4434 H   0  0  0  0  0  0  0  0  0  0  0  0
   -4.7512    4.6676    6.3926 H   0  0  0  0  0  0  0  0  0  0  0  0
   -2.2334    4.9267    5.0158 H   0  0  0  0  0  0  0  0  0  0  0  0
   -3.2920    0.7093    3.5600 H   0  0  0  0  0  0  0  0  0  0  0  0
   -2.0064    0.0387    1.5485 H   0  0  0  0  0  0  0  0  0  0  0  0
    0.0238    3.8304    1.5579 H   0  0  0  0  0  0  0  0  0  0  0  0
   -1.2630    4.5271    3.5598 H   0  0  0  0  0  0  0  0  0  0  0  0
   -2.7332    0.8365   -1.3100 H   0  0  0  0  0  0  0  0  0  0  0  0
   -1.4494    0.1457   -2.3779 H   0  0  0  0  0  0  0  0  0  0  0  0
   -2.5909    1.2670   -4.0658 H   0  0  0  0  0  0  0  0  0  0  0  0
   -3.3611    2.4386   -2.8911 H   0  0  0  0  0  0  0  0  0  0  0  0
   -1.6893    3.8424   -3.8844 H   0  0  0  0  0  0  0  0  0  0  0  0
   -0.5012    2.4521   -4.0406 H   0  0  0  0  0  0  0  0  0  0  0  0
    0.2568    3.5183   -2.0223 H   0  0  0  0  0  0  0  0  0  0  0  0
   -1.4386    3.9275   -1.5058 H   0  0  0  0  0  0  0  0  0  0  0  0
  1  2  1  0  0  0  0
  2  3  2  0  0  0  0
  2  4  2  0  0  0  0
  2  5  1  0  0  0  0
  5  6  1  0  0  0  0
  6  7  1  0  0  0  0
  7  8  1  0  0  0  0
  8  9  1  0  0  0  0
  9 10  1  0  0  0  0
 10 11  2  0  0  0  0
 10 12  1  0  0  0  0
 12 17  2  0  0  0  0
 12 13  1  0  0  0  0
 13 14  2  0  0  0  0
 14 15  1  0  0  0  0
 15 16  2  0  0  0  0
 15 18  1  0  0  0  0
 16 17  1  0  0  0  0
 18 19  2  0  0  0  0
 18 20  2  0  0  0  0
 18 21  1  0  0  0  0
 21 25  1  0  0  0  0
 21 22  1  0  0  0  0
 22 23  1  0  0  0  0
 23 24  1  0  0  0  0
 24 25  1  0  0  0  0
  1 26  1  0  0  0  0
  1 27  1  0  0  0  0
  1 28  1  0  0  0  0
  5 29  1  0  0  0  0
  6 30  1  0  0  0  0
  6 31  1  0  0  0  0
  7 32  1  0  0  0  0
  7 33  1  0  0  0  0
  8 34  1  0  0  0  0
  8 35  1  0  0  0  0
  9 36  1  0  0  0  0
 13 37  1  0  0  0  0
 14 38  1  0  0  0  0
 16 39  1  0  0  0  0
 17 40  1  0  0  0  0
 22 41  1  0  0  0  0
 22 42  1  0  0  0  0
 23 43  1  0  0  0  0
 23 44  1  0  0  0  0
 24 45  1  0  0  0  0
 24 46  1  0  0  0  0
 25 47  1  0  0  0  0
 25 48  1  0  0  0  0
M  END
> <Name>
ZINC31217234

> <reference>
BDB4945

> <quality>
0.747

> <status>
decoy

$$$$
ZINC13165761
  SciTegic06141217593D

 37 37  0  0  1  0            999 V2000
    0.3227    2.9263   -3.8816 C   0  0  0  0  0  0  0  0  0  0  0  0
   -0.1253    3.6199   -2.5935 C   0  0  0  0  0  0  0  0  0  0  0  0
    0.8449    3.2717   -1.4628 C   0  0  1  0  0  0  0  0  0  0  0  0
    0.4634    4.0541   -0.2045 C   0  0  0  0  0  0  0  0  0  0  0  0
    0.7751    1.8351   -1.1844 N   0  0  0  0  0  0  0  0  0  0  0  0
   -0.4031    1.2906   -0.8078 C   0  0  0  0  0  0  0  0  0  0  0  0
   -1.4049    1.9646   -0.6995 O   0  0  0  0  0  0  0  0  0  0  0  0
   -0.4200   -0.2016   -0.5323 C   0  5  0  0  0  0  0  0  0  0  0  0
    0.8973   -0.9314   -0.7099 C   0  0  0  0  0  0  0  0  0  0  0  0
    0.9829   -2.1276   -0.5120 O   0  0  0  0  0  0  0  0  0  0  0  0
    1.9581   -0.2199   -1.0893 N   0  0  0  0  0  0  0  0  0  0  0  0
    1.8999    1.0752   -1.3112 C   0  0  0  0  0  0  0  0  0  0  0  0
    3.3407    1.8637   -1.7941 S   0  5  0  0  0  0  0  0  0  0  0  0
   -0.8795   -0.4110    0.8876 C   0  0  0  0  0  0  0  0  0  0  0  0
   -2.4839   -1.3666    2.4607 C   0  0  0  0  0  0  0  0  0  0  0  0
   -3.8488   -0.6897    2.6019 C   0  0  0  0  0  0  0  0  0  0  0  0
   -4.4167   -0.9725    3.9941 C   0  0  0  0  0  0  0  0  0  0  0  0
   -5.6914   -0.3403    4.1260 O   0  0  0  0  0  0  0  0  0  0  0  0
   -1.9708   -1.1199    1.0693 N   0  3  0  0  0  0  0  0  0  0  0  0
    0.3309    1.8370   -3.7290 H   0  0  0  0  0  0  0  0  0  0  0  0
    1.3340    3.2660   -4.1496 H   0  0  0  0  0  0  0  0  0  0  0  0
   -0.3744    3.1762   -4.6950 H   0  0  0  0  0  0  0  0  0  0  0  0
   -1.1366    3.2802   -2.3255 H   0  0  0  0  0  0  0  0  0  0  0  0
   -0.1329    4.7091   -2.7470 H   0  0  0  0  0  0  0  0  0  0  0  0
    1.8690    3.5375   -1.7636 H   0  0  0  0  0  0  0  0  0  0  0  0
   -0.5606    3.7887    0.0972 H   0  0  0  0  0  0  0  0  0  0  0  0
    0.5158    5.1330   -0.4123 H   0  0  0  0  0  0  0  0  0  0  0  0
    1.1605    3.8042    0.6089 H   0  0  0  0  0  0  0  0  0  0  0  0
   -0.3239    0.0124    1.7373 H   0  0  0  0  0  0  0  0  0  0  0  0
   -2.5884   -2.4487    2.6284 H   0  0  0  0  0  0  0  0  0  0  0  0
   -1.7828   -0.9400    3.1931 H   0  0  0  0  0  0  0  0  0  0  0  0
   -3.7356    0.3960    2.4663 H   0  0  0  0  0  0  0  0  0  0  0  0
   -4.5360   -1.0848    1.8392 H   0  0  0  0  0  0  0  0  0  0  0  0
   -4.5306   -2.0581    4.1302 H   0  0  0  0  0  0  0  0  0  0  0  0
   -3.7313   -0.5770    4.7582 H   0  0  0  0  0  0  0  0  0  0  0  0
   -6.3098   -0.6960    3.4396 H   0  0  0  0  0  0  0  0  0  0  0  0
   -2.4747   -1.5066    0.2585 H   0  0  0  0  0  0  0  0  0  0  0  0
  1  2  1  0  0  0  0
  2  3  1  0  0  0  0
  3  4  1  0  0  0  0
  3  5  1  0  0  0  0
  5 12  1  0  0  0  0
  5  6  1  0  0  0  0
  6  7  2  0  0  0  0
  6  8  1  0  0  0  0
  8  9  1  0  0  0  0
  8 14  1  0  0  0  0
  9 10  2  0  0  0  0
  9 11  1  0  0  0  0
 11 12  2  0  0  0  0
 12 13  1  0  0  0  0
 14 19  2  0  0  0  0
 15 16  1  0  0  0  0
 15 19  1  0  0  0  0
 16 17  1  0  0  0  0
 17 18  1  0  0  0  0
  1 20  1  0  0  0  0
  1 21  1  0  0  0  0
  1 22  1  0  0  0  0
  2 23  1  0  0  0  0
  2 24  1  0  0  0  0
  3 25  1  0  0  0  0
  4 26  1  0  0  0  0
  4 27  1  0  0  0  0
  4 28  1  0  0  0  0
 14 29  1  0  0  0  0
 15 30  1  0  0  0  0
 15 31  1  0  0  0  0
 16 32  1  0  0  0  0
 16 33  1  0  0  0  0
 17 34  1  0  0  0  0
 17 35  1  0  0  0  0
 18 36  1  0  0  0  0
 19 37  1  0  0  0  0
M  CHG  3   8  -1  13  -1  19   1
M  END
> <Name>
ZINC13165761

> <reference>
BDB5234

> <quality>
0.789

> <status>
decoy

$$$$
ZINC19639944
  SciTegic06141217593D

 64 66  0  0  1  0            999 V2000
    1.7105   -4.1004   -0.5049 C   0  0  0  0  0  0  0  0  0  0  0  0
    1.8574   -2.5789   -0.4380 C   0  0  0  0  0  0  0  0  0  0  0  0
    0.9182   -2.0226    0.6340 C   0  0  0  0  0  0  0  0  0  0  0  0
    1.0651   -0.5011    0.7009 C   0  0  0  0  0  0  0  0  0  0  0  0
    0.1259    0.0553    1.7730 C   0  0  0  0  0  0  0  0  0  0  0  0
    0.2728    1.5768    1.8399 C   0  0  0  0  0  0  0  0  0  0  0  0
   -0.7403    2.1436    2.8365 C   0  0  1  0  0  0  0  0  0  0  0  0
   -0.4378    1.6524    4.2773 C   0  0  0  0  0  0  0  0  0  0  0  0
    0.6703    2.6196    4.7399 C   0  0  2  0  0  0  0  0  0  0  0  0
    0.3391    3.3902    6.0152 C   0  0  1  0  0  0  0  0  0  0  0  0
    0.3181    4.5592    5.0669 C   0  0  0  0  0  0  0  0  0  0  0  0
    0.1560    5.7468    5.2518 O   0  0  0  0  0  0  0  0  0  0  0  0
    0.5400    3.8467    3.9434 N   0  0  0  0  0  0  0  0  0  0  0  0
   -0.5723    3.6755    2.9879 C   0  0  0  0  0  0  0  0  0  0  0  0
   -1.0012    3.0523    6.6157 C   0  0  0  0  0  0  0  0  0  0  0  0
   -2.1444    3.6738    6.1487 C   0  0  0  0  0  0  0  0  0  0  0  0
   -3.3736    3.3639    6.6995 C   0  0  0  0  0  0  0  0  0  0  0  0
   -3.4599    2.4320    7.7172 C   0  0  0  0  0  0  0  0  0  0  0  0
   -2.3172    1.8097    8.1832 C   0  0  0  0  0  0  0  0  0  0  0  0
   -1.0881    2.1169    7.6295 C   0  0  0  0  0  0  0  0  0  0  0  0
   -2.4114    0.7936    9.2921 C   0  0  2  0  0  0  0  0  0  0  0  0
   -2.3954    1.4999   10.6233 C   0  0  0  0  0  0  0  0  0  0  0  0
   -1.4740    1.3301   11.3862 O   0  0  0  0  0  0  0  0  0  0  0  0
   -1.2997   -0.1009    9.2142 O   0  0  0  0  0  0  0  0  0  0  0  0
   -4.8001    2.0945    8.3181 C   0  0  0  0  0  0  0  0  0  0  0  0
   -4.6196    4.0421    6.1911 C   0  0  0  0  0  0  0  0  0  0  0  0
    1.3982    3.4273    6.9738 O   0  0  0  0  0  0  0  0  0  0  0  0
   -2.1697    1.7860    2.4241 C   0  0  0  0  0  0  0  0  0  0  0  0
   -3.4048    2.3175   10.9613 O   0  5  0  0  0  0  0  0  0  0  0  0
   -2.4894    2.4766    1.1623 N   0  3  0  0  0  0  0  0  0  0  0  0
    0.6718   -4.3588   -0.7586 H   0  0  0  0  0  0  0  0  0  0  0  0
    1.9687   -4.5380    0.4707 H   0  0  0  0  0  0  0  0  0  0  0  0
    2.3855   -4.5011   -1.2755 H   0  0  0  0  0  0  0  0  0  0  0  0
    2.8962   -2.3215   -0.1840 H   0  0  0  0  0  0  0  0  0  0  0  0
    1.5992   -2.1412   -1.4136 H   0  0  0  0  0  0  0  0  0  0  0  0
   -0.1209   -2.2793    0.3803 H   0  0  0  0  0  0  0  0  0  0  0  0
    1.1757   -2.4584    1.6106 H   0  0  0  0  0  0  0  0  0  0  0  0
    2.1040   -0.2437    0.9549 H   0  0  0  0  0  0  0  0  0  0  0  0
    0.8069   -0.0634   -0.2747 H   0  0  0  0  0  0  0  0  0  0  0  0
    0.3834   -0.3805    2.7496 H   0  0  0  0  0  0  0  0  0  0  0  0
   -0.9132   -0.2014    1.5194 H   0  0  0  0  0  0  0  0  0  0  0  0
    0.0881    2.0082    0.8450 H   0  0  0  0  0  0  0  0  0  0  0  0
    1.2912    1.8329    2.1674 H   0  0  0  0  0  0  0  0  0  0  0  0
   -0.0584    0.6201    4.2574 H   0  0  0  0  0  0  0  0  0  0  0  0
   -1.3291    1.7623    4.9126 H   0  0  0  0  0  0  0  0  0  0  0  0
    1.5731    1.9912    4.7459 H   0  0  0  0  0  0  0  0  0  0  0  0
   -0.3089    4.1225    2.0180 H   0  0  0  0  0  0  0  0  0  0  0  0
   -1.4928    4.1170    3.3975 H   0  0  0  0  0  0  0  0  0  0  0  0
   -2.0757    4.4149    5.3388 H   0  0  0  0  0  0  0  0  0  0  0  0
   -0.1794    1.6168    7.9958 H   0  0  0  0  0  0  0  0  0  0  0  0
   -3.3475    0.2250    9.1899 H   0  0  0  0  0  0  0  0  0  0  0  0
   -0.4567    0.4100    9.3064 H   0  0  0  0  0  0  0  0  0  0  0  0
   -5.4195    1.7677    7.4699 H   0  0  0  0  0  0  0  0  0  0  0  0
   -5.2071    3.0551    8.6668 H   0  0  0  0  0  0  0  0  0  0  0  0
   -4.7520    1.3420    9.1190 H   0  0  0  0  0  0  0  0  0  0  0  0
   -4.6394    3.8316    5.1116 H   0  0  0  0  0  0  0  0  0  0  0  0
   -4.4274    5.1187    6.3090 H   0  0  0  0  0  0  0  0  0  0  0  0
   -5.5404    3.7206    6.6997 H   0  0  0  0  0  0  0  0  0  0  0  0
    2.1825    3.8372    6.5300 H   0  0  0  0  0  0  0  0  0  0  0  0
   -2.8714    2.1084    3.2074 H   0  0  0  0  0  0  0  0  0  0  0  0
   -2.2497    0.6986    2.2786 H   0  0  0  0  0  0  0  0  0  0  0  0
   -1.8356    2.1764    0.4252 H   0  0  0  0  0  0  0  0  0  0  0  0
   -2.4163    3.4955    1.2943 H   0  0  0  0  0  0  0  0  0  0  0  0
   -3.4511    2.2394    0.8797 H   0  0  0  0  0  0  0  0  0  0  0  0
  1  2  1  0  0  0  0
  2  3  1  0  0  0  0
  3  4  1  0  0  0  0
  4  5  1  0  0  0  0
  5  6  1  0  0  0  0
  6  7  1  0  0  0  0
  7 14  1  0  0  0  0
  7  8  1  0  0  0  0
  7 28  1  0  0  0  0
  8  9  1  0  0  0  0
  9 13  1  0  0  0  0
  9 10  1  0  0  0  0
 10 11  1  0  0  0  0
 10 15  1  0  0  0  0
 10 27  1  0  0  0  0
 11 12  2  0  0  0  0
 11 13  1  0  0  0  0
 13 14  1  0  0  0  0
 15 20  2  0  0  0  0
 15 16  1  0  0  0  0
 16 17  2  0  0  0  0
 17 18  1  0  0  0  0
 17 26  1  0  0  0  0
 18 19  2  0  0  0  0
 18 25  1  0  0  0  0
 19 20  1  0  0  0  0
 19 21  1  0  0  0  0
 21 22  1  0  0  0  0
 21 24  1  0  0  0  0
 22 23  2  0  0  0  0
 22 29  1  0  0  0  0
 28 30  1  0  0  0  0
  1 31  1  0  0  0  0
  1 32  1  0  0  0  0
  1 33  1  0  0  0  0
  2 34  1  0  0  0  0
  2 35  1  0  0  0  0
  3 36  1  0  0  0  0
  3 37  1  0  0  0  0
  4 38  1  0  0  0  0
  4 39  1  0  0  0  0
  5 40  1  0  0  0  0
  5 41  1  0  0  0  0
  6 42  1  0  0  0  0
  6 43  1  0  0  0  0
  8 44  1  0  0  0  0
  8 45  1  0  0  0  0
  9 46  1  0  0  0  0
 14 47  1  0  0  0  0
 14 48  1  0  0  0  0
 16 49  1  0  0  0  0
 20 50  1  0  0  0  0
 21 51  1  0  0  0  0
 24 52  1  0  0  0  0
 25 53  1  0  0  0  0
 25 54  1  0  0  0  0
 25 55  1  0  0  0  0
 26 56  1  0  0  0  0
 26 57  1  0  0  0  0
 26 58  1  0  0  0  0
 27 59  1  0  0  0  0
 28 60  1  0  0  0  0
 28 61  1  0  0  0  0
 30 62  1  0  0  0  0
 30 63  1  0  0  0  0
 30 64  1  0  0  0  0
M  CHG  2  29  -1  30   1
M  END
> <Name>
ZINC19639944

> <reference>
BDB4965

> <quality>
0.776

> <status>
decoy

$$$$
ZINC04661650
  SciTegic06141217593D

 54 56  0  0  1  0            999 V2000
   -0.9514    0.3916   -0.0353 C   0  0  0  0  0  0  0  0  0  0  0  0
   -0.7841    1.7607    0.0241 C   0  0  0  0  0  0  0  0  0  0  0  0
    0.4546    2.3218   -0.2583 C   0  0  0  0  0  0  0  0  0  0  0  0
    1.5251    1.5052   -0.5996 C   0  0  0  0  0  0  0  0  0  0  0  0
    1.3572    0.1361   -0.6594 C   0  0  0  0  0  0  0  0  0  0  0  0
    0.1186   -0.4245   -0.3774 C   0  0  0  0  0  0  0  0  0  0  0  0
   -0.0515   -1.8144   -0.4377 N   0  0  0  0  0  0  0  0  0  0  0  0
   -1.2159   -2.3324   -0.8761 C   0  0  0  0  0  0  0  0  0  0  0  0
   -2.1453   -1.5987   -1.1391 O   0  0  0  0  0  0  0  0  0  0  0  0
   -1.3633   -3.8232   -1.0395 C   0  0  1  0  0  0  0  0  0  0  0  0
   -1.1390   -4.5131    0.3079 C   0  0  0  0  0  0  0  0  0  0  0  0
   -1.5391   -5.9569    0.2223 C   0  0  0  0  0  0  0  0  0  0  0  0
   -2.2861   -6.4482   -0.7136 C   0  0  0  0  0  0  0  0  0  0  0  0
   -2.8480   -5.6448   -1.8497 C   0  0  0  0  0  0  0  0  0  0  0  0
   -2.7818   -4.1513   -1.5223 C   0  0  2  0  0  0  0  0  0  0  0  0
   -3.0948   -3.3476   -2.7581 C   0  0  0  0  0  0  0  0  0  0  0  0
   -2.2705   -2.5886   -3.2100 O   0  0  0  0  0  0  0  0  0  0  0  0
    0.6243    3.7091   -0.1986 N   0  0  0  0  0  0  0  0  0  0  0  0
   -0.3326    4.3950   -1.0781 C   0  0  0  0  0  0  0  0  0  0  0  0
   -0.1682    5.9088   -0.9243 C   0  0  0  0  0  0  0  0  0  0  0  0
    2.1695    5.5995   -0.3783 C   0  0  0  0  0  0  0  0  0  0  0  0
    2.0051    4.0856   -0.5322 C   0  0  0  0  0  0  0  0  0  0  0  0
    1.3907    7.7422   -1.1951 C   0  0  0  0  0  0  0  0  0  0  0  0
    2.6366    8.1383   -1.9900 C   0  0  0  0  0  0  0  0  0  0  0  0
    2.4424    7.8205   -3.3696 O   0  0  0  0  0  0  0  0  0  0  0  0
   -4.2894   -3.4749   -3.3568 O   0  5  0  0  0  0  0  0  0  0  0  0
    1.2176    6.2765   -1.2838 N   0  3  0  0  0  0  0  0  0  0  0  0
   -1.9325   -0.0528    0.1884 H   0  0  0  0  0  0  0  0  0  0  0  0
   -1.6318    2.4072    0.2951 H   0  0  0  0  0  0  0  0  0  0  0  0
    2.5066    1.9493   -0.8222 H   0  0  0  0  0  0  0  0  0  0  0  0
    2.2047   -0.5106   -0.9305 H   0  0  0  0  0  0  0  0  0  0  0  0
    0.7134   -2.4399   -0.1470 H   0  0  0  0  0  0  0  0  0  0  0  0
   -0.6233   -4.1762   -1.7728 H   0  0  0  0  0  0  0  0  0  0  0  0
   -0.0754   -4.4453    0.5803 H   0  0  0  0  0  0  0  0  0  0  0  0
   -1.7422   -4.0132    1.0801 H   0  0  0  0  0  0  0  0  0  0  0  0
   -1.1749   -6.6402    1.0036 H   0  0  0  0  0  0  0  0  0  0  0  0
   -2.5239   -7.5215   -0.6737 H   0  0  0  0  0  0  0  0  0  0  0  0
   -3.8955   -5.9343   -2.0199 H   0  0  0  0  0  0  0  0  0  0  0  0
   -2.2654   -5.8443   -2.7612 H   0  0  0  0  0  0  0  0  0  0  0  0
   -3.5144   -3.9027   -0.7403 H   0  0  0  0  0  0  0  0  0  0  0  0
   -1.3578    4.1081   -0.8014 H   0  0  0  0  0  0  0  0  0  0  0  0
   -0.1404    4.1099   -2.1230 H   0  0  0  0  0  0  0  0  0  0  0  0
   -0.8715    6.4256   -1.5939 H   0  0  0  0  0  0  0  0  0  0  0  0
   -0.3666    6.1978    0.1184 H   0  0  0  0  0  0  0  0  0  0  0  0
    3.1974    5.8882   -0.6429 H   0  0  0  0  0  0  0  0  0  0  0  0
    1.9577    5.8892    0.6615 H   0  0  0  0  0  0  0  0  0  0  0  0
    2.7004    3.5706    0.1471 H   0  0  0  0  0  0  0  0  0  0  0  0
    2.2246    3.7972   -1.5708 H   0  0  0  0  0  0  0  0  0  0  0  0
    1.5167    8.0350   -0.1423 H   0  0  0  0  0  0  0  0  0  0  0  0
    0.5076    8.2433   -1.6183 H   0  0  0  0  0  0  0  0  0  0  0  0
    2.8108    9.2193   -1.8843 H   0  0  0  0  0  0  0  0  0  0  0  0
    3.5080    7.5872   -1.6067 H   0  0  0  0  0  0  0  0  0  0  0  0
    1.6590    8.3166   -3.7164 H   0  0  0  0  0  0  0  0  0  0  0  0
    1.4039    5.9760   -2.2512 H   0  0  0  0  0  0  0  0  0  0  0  0
  1  6  2  0  0  0  0
  1  2  1  0  0  0  0
  2  3  2  0  0  0  0
  3  4  1  0  0  0  0
  3 18  1  0  0  0  0
  4  5  2  0  0  0  0
  5  6  1  0  0  0  0
  6  7  1  0  0  0  0
  7  8  1  0  0  0  0
  8  9  2  0  0  0  0
  8 10  1  0  0  0  0
 10 15  1  0  0  0  0
 10 11  1  0  0  0  0
 11 12  1  0  0  0  0
 12 13  2  0  0  0  0
 13 14  1  0  0  0  0
 14 15  1  0  0  0  0
 15 16  1  0  0  0  0
 16 17  2  0  0  0  0
 16 26  1  0  0  0  0
 18 22  1  0  0  0  0
 18 19  1  0  0  0  0
 19 20  1  0  0  0  0
 20 27  1  0  0  0  0
 21 22  1  0  0  0  0
 21 27  1  0  0  0  0
 23 24  1  0  0  0  0
 23 27  1  0  0  0  0
 24 25  1  0  0  0  0
  1 28  1  0  0  0  0
  2 29  1  0  0  0  0
  4 30  1  0  0  0  0
  5 31  1  0  0  0  0
  7 32  1  0  0  0  0
 10 33  1  0  0  0  0
 11 34  1  0  0  0  0
 11 35  1  0  0  0  0
 12 36  1  0  0  0  0
 13 37  1  0  0  0  0
 14 38  1  0  0  0  0
 14 39  1  0  0  0  0
 15 40  1  0  0  0  0
 19 41  1  0  0  0  0
 19 42  1  0  0  0  0
 20 43  1  0  0  0  0
 20 44  1  0  0  0  0
 21 45  1  0  0  0  0
 21 46  1  0  0  0  0
 22 47  1  0  0  0  0
 22 48  1  0  0  0  0
 23 49  1  0  0  0  0
 23 50  1  0  0  0  0
 24 51  1  0  0  0  0
 24 52  1  0  0  0  0
 25 53  1  0  0  0  0
 27 54  1  0  0  0  0
M  CHG  2  26  -1  27   1
M  END
> <Name>
ZINC04661650

> <reference>
BDB4952

> <quality>
0.697

> <status>
decoy

$$$$
ZINC06088021
  SciTegic06141217593D

 38 39  0  0  1  0            999 V2000
    2.5619    5.7055   -6.3530 C   0  0  0  0  0  0  0  0  0  0  0  0
    2.5071    6.7553   -7.2442 C   0  0  0  0  0  0  0  0  0  0  0  0
    2.3431    6.5112   -8.5983 C   0  0  0  0  0  0  0  0  0  0  0  0
    2.2395    5.2114   -9.0672 C   0  0  0  0  0  0  0  0  0  0  0  0
    2.2988    4.1515   -8.1885 C   0  0  0  0  0  0  0  0  0  0  0  0
    2.4637    4.3904   -6.8199 C   0  0  0  0  0  0  0  0  0  0  0  0
    2.5275    3.2643   -5.8757 C   0  0  0  0  0  0  0  0  0  0  0  0
    2.4371    2.1257   -6.2829 O   0  0  0  0  0  0  0  0  0  0  0  0
    2.7052    3.5257   -4.4022 C   0  0  0  0  0  0  0  0  0  0  0  0
    2.7394    2.1946   -3.6486 C   0  0  0  0  0  0  0  0  0  0  0  0
    2.9499    1.1911   -1.4552 C   0  0  2  0  0  0  0  0  0  0  0  0
    2.5100    1.4504   -0.0129 C   0  0  0  0  0  0  0  0  0  0  0  0
    1.0662    1.8819    0.0020 C   0  0  0  0  0  0  0  0  0  0  0  0
   -0.0126    1.0758    0.0080 C   0  0  0  0  0  0  0  0  0  0  0  0
   -1.1084    1.8492    0.0167 N   0  0  0  0  0  0  0  0  0  0  0  0
   -0.7496    3.1039    0.0246 C   0  0  0  0  0  0  0  0  0  0  0  0
    0.5992    3.1686    0.0125 N   0  0  0  0  0  0  0  0  0  0  0  0
    4.3536    0.6426   -1.4613 C   0  0  0  0  0  0  0  0  0  0  0  0
    5.2326    1.2388   -2.0373 O   0  0  0  0  0  0  0  0  0  0  0  0
    2.2678    7.8402   -9.7127 Cl  0  0  0  0  0  0  0  0  0  0  0  0
    2.9135    2.4591   -2.2079 N   0  3  0  0  0  0  0  0  0  0  0  0
    4.6273   -0.5082   -0.8269 O   0  5  0  0  0  0  0  0  0  0  0  0
    2.6825    5.9011   -5.2773 H   0  0  0  0  0  0  0  0  0  0  0  0
    2.5938    7.7895   -6.8797 H   0  0  0  0  0  0  0  0  0  0  0  0
    2.1096    5.0251  -10.1435 H   0  0  0  0  0  0  0  0  0  0  0  0
    2.2167    3.1202   -8.5622 H   0  0  0  0  0  0  0  0  0  0  0  0
    3.6497    4.0646   -4.2365 H   0  0  0  0  0  0  0  0  0  0  0  0
    1.8664    4.1339   -4.0328 H   0  0  0  0  0  0  0  0  0  0  0  0
    1.7943    1.6557   -3.8113 H   0  0  0  0  0  0  0  0  0  0  0  0
    3.5795    1.5857   -4.0139 H   0  0  0  0  0  0  0  0  0  0  0  0
    2.2719    0.4628   -1.9242 H   0  0  0  0  0  0  0  0  0  0  0  0
    2.6227    0.5284    0.5763 H   0  0  0  0  0  0  0  0  0  0  0  0
    3.1336    2.2439    0.4248 H   0  0  0  0  0  0  0  0  0  0  0  0
    0.0023   -0.0241    0.0061 H   0  0  0  0  0  0  0  0  0  0  0  0
   -1.4327    3.9660    0.0388 H   0  0  0  0  0  0  0  0  0  0  0  0
    1.1700    4.0260    0.0114 H   0  0  0  0  0  0  0  0  0  0  0  0
    3.7956    2.9695   -2.0586 H   0  0  0  0  0  0  0  0  0  0  0  0
    2.1295    3.0344   -1.8683 H   0  0  0  0  0  0  0  0  0  0  0  0
  1  6  2  0  0  0  0
  1  2  1  0  0  0  0
  2  3  2  0  0  0  0
  3  4  1  0  0  0  0
  3 20  1  0  0  0  0
  4  5  2  0  0  0  0
  5  6  1  0  0  0  0
  6  7  1  0  0  0  0
  7  8  2  0  0  0  0
  7  9  1  0  0  0  0
  9 10  1  0  0  0  0
 10 21  1  0  0  0  0
 11 12  1  0  0  0  0
 11 18  1  0  0  0  0
 11 21  1  0  0  0  0
 12 13  1  0  0  0  0
 13 17  1  0  0  0  0
 13 14  2  0  0  0  0
 14 15  1  0  0  0  0
 15 16  2  0  0  0  0
 16 17  1  0  0  0  0
 18 19  2  0  0  0  0
 18 22  1  0  0  0  0
  1 23  1  0  0  0  0
  2 24  1  0  0  0  0
  4 25  1  0  0  0  0
  5 26  1  0  0  0  0
  9 27  1  0  0  0  0
  9 28  1  0  0  0  0
 10 29  1  0  0  0  0
 10 30  1  0  0  0  0
 11 31  1  0  0  0  0
 12 32  1  0  0  0  0
 12 33  1  0  0  0  0
 14 34  1  0  0  0  0
 16 35  1  0  0  0  0
 17 36  1  0  0  0  0
 21 37  1  0  0  0  0
 21 38  1  0  0  0  0
M  CHG  2  21   1  22  -1
M  END
> <Name>
ZINC06088021

> <reference>
BDB5023

> <quality>
0.735

> <status>
decoy

$$$$
ZINC31220835
  SciTegic06141217593D

 42 42  0  0  0  0            999 V2000
    6.3860    6.8455   -0.7438 C   0  0  0  0  0  0  0  0  0  0  0  0
    5.0642    6.1110   -0.9767 C   0  0  0  0  0  0  0  0  0  0  0  0
    3.9126    6.4965    0.3708 S   0  0  0  0  0  0  0  0  0  0  0  0
    3.5268    7.8628    0.3091 O   0  0  0  0  0  0  0  0  0  0  0  0
    4.3761    5.9289    1.5883 O   0  0  0  0  0  0  0  0  0  0  0  0
    2.5352    5.6517    0.0082 N   0  0  0  0  0  0  0  0  0  0  0  0
    2.5551    4.1869    0.0001 C   0  0  0  0  0  0  0  0  0  0  0  0
    1.1197    3.6573    0.0110 C   0  0  0  0  0  0  0  0  0  0  0  0
    1.1395    2.1925    0.0030 N   0  0  0  0  0  0  0  0  0  0  0  0
   -0.0184    1.5028    0.0103 C   0  0  0  0  0  0  0  0  0  0  0  0
   -1.0768    2.0948    0.0185 O   0  0  0  0  0  0  0  0  0  0  0  0
    0.0021   -0.0041    0.0020 C   0  0  0  0  0  0  0  0  0  0  0  0
   -1.4333   -0.5336    0.0129 C   0  0  0  0  0  0  0  0  0  0  0  0
   -1.4129   -2.0405    0.0046 C   0  0  0  0  0  0  0  0  0  0  0  0
   -1.4884   -2.7321    1.1618 C   0  0  0  0  0  0  0  0  0  0  0  0
   -1.4732   -4.1001    1.1359 N   0  0  0  0  0  0  0  0  0  0  0  0
   -1.3740   -4.7623   -0.0311 C   0  0  0  0  0  0  0  0  0  0  0  0
   -1.3577   -5.9781   -0.0308 O   0  0  0  0  0  0  0  0  0  0  0  0
   -1.2921   -4.0979   -1.1988 N   0  0  0  0  0  0  0  0  0  0  0  0
   -1.3084   -2.7498   -1.2162 C   0  0  0  0  0  0  0  0  0  0  0  0
   -1.2343   -2.1478   -2.2723 O   0  0  0  0  0  0  0  0  0  0  0  0
   -1.5936   -2.0009    2.4753 C   0  0  0  0  0  0  0  0  0  0  0  0
    6.8220    6.5235    0.2134 H   0  0  0  0  0  0  0  0  0  0  0  0
    6.2043    7.9301   -0.7169 H   0  0  0  0  0  0  0  0  0  0  0  0
    7.0848    6.6122   -1.5606 H   0  0  0  0  0  0  0  0  0  0  0  0
    5.2459    5.0264   -1.0037 H   0  0  0  0  0  0  0  0  0  0  0  0
    4.6288    6.4338   -1.9339 H   0  0  0  0  0  0  0  0  0  0  0  0
    1.6645    6.1561   -0.2116 H   0  0  0  0  0  0  0  0  0  0  0  0
    3.0694    3.8320   -0.9052 H   0  0  0  0  0  0  0  0  0  0  0  0
    3.0868    3.8214    0.8910 H   0  0  0  0  0  0  0  0  0  0  0  0
    0.6049    4.0116    0.9162 H   0  0  0  0  0  0  0  0  0  0  0  0
    0.5868    4.0209   -0.8799 H   0  0  0  0  0  0  0  0  0  0  0  0
    2.0384    1.6897   -0.0082 H   0  0  0  0  0  0  0  0  0  0  0  0
    0.5164   -0.3590   -0.9033 H   0  0  0  0  0  0  0  0  0  0  0  0
    0.5337   -0.3696    0.8929 H   0  0  0  0  0  0  0  0  0  0  0  0
   -1.9481   -0.1794    0.9182 H   0  0  0  0  0  0  0  0  0  0  0  0
   -1.9662   -0.1700   -0.8780 H   0  0  0  0  0  0  0  0  0  0  0  0
   -1.5383   -4.6278    2.0180 H   0  0  0  0  0  0  0  0  0  0  0  0
   -1.2167   -4.6214   -2.0826 H   0  0  0  0  0  0  0  0  0  0  0  0
   -2.4826   -1.3608    2.3758 H   0  0  0  0  0  0  0  0  0  0  0  0
   -0.7162   -1.3381    2.5047 H   0  0  0  0  0  0  0  0  0  0  0  0
   -1.6489   -2.6653    3.3503 H   0  0  0  0  0  0  0  0  0  0  0  0
  1  2  1  0  0  0  0
  2  3  1  0  0  0  0
  3  4  2  0  0  0  0
  3  5  2  0  0  0  0
  3  6  1  0  0  0  0
  6  7  1  0  0  0  0
  7  8  1  0  0  0  0
  8  9  1  0  0  0  0
  9 10  1  0  0  0  0
 10 11  2  0  0  0  0
 10 12  1  0  0  0  0
 12 13  1  0  0  0  0
 13 14  1  0  0  0  0
 14 20  1  0  0  0  0
 14 15  2  0  0  0  0
 15 16  1  0  0  0  0
 15 22  1  0  0  0  0
 16 17  1  0  0  0  0
 17 18  2  0  0  0  0
 17 19  1  0  0  0  0
 19 20  1  0  0  0  0
 20 21  2  0  0  0  0
  1 23  1  0  0  0  0
  1 24  1  0  0  0  0
  1 25  1  0  0  0  0
  2 26  1  0  0  0  0
  2 27  1  0  0  0  0
  6 28  1  0  0  0  0
  7 29  1  0  0  0  0
  7 30  1  0  0  0  0
  8 31  1  0  0  0  0
  8 32  1  0  0  0  0
  9 33  1  0  0  0  0
 12 34  1  0  0  0  0
 12 35  1  0  0  0  0
 13 36  1  0  0  0  0
 13 37  1  0  0  0  0
 16 38  1  0  0  0  0
 19 39  1  0  0  0  0
 22 40  1  0  0  0  0
 22 41  1  0  0  0  0
 22 42  1  0  0  0  0
M  END
> <Name>
ZINC31220835

> <reference>
BDB5024

> <quality>
0.667

> <status>
decoy

$$$$
ZINC04226595
  SciTegic06141217593D

 39 40  0  0  0  0            999 V2000
    4.8252    0.1198   -0.0663 C   0  0  0  0  0  0  0  0  0  0  0  0
    3.5487   -0.6811   -0.0526 C   0  0  0  0  0  0  0  0  0  0  0  0
    3.6215   -2.0658   -0.0609 C   0  0  0  0  0  0  0  0  0  0  0  0
    2.4540   -2.8146   -0.0377 C   0  0  0  0  0  0  0  0  0  0  0  0
    1.2209   -2.1181   -0.0213 C   0  0  0  0  0  0  0  0  0  0  0  0
   -0.0013   -2.8037   -0.0128 C   0  0  0  0  0  0  0  0  0  0  0  0
   -1.1763   -2.1092    0.0025 C   0  0  0  0  0  0  0  0  0  0  0  0
   -1.1869   -0.7220    0.0095 C   0  0  0  0  0  0  0  0  0  0  0  0
    0.0021   -0.0041    0.0020 C   0  0  0  0  0  0  0  0  0  0  0  0
    1.2359   -0.7040   -0.0194 C   0  0  0  0  0  0  0  0  0  0  0  0
   -0.0179    1.4680    0.0101 C   0  0  0  0  0  0  0  0  0  0  0  0
    1.0262    2.0899    0.0035 O   0  0  0  0  0  0  0  0  0  0  0  0
    2.4928   -4.1992   -0.0454 N   0  0  0  0  0  0  0  0  0  0  0  0
    3.7815   -4.8958   -0.0623 C   0  0  0  0  0  0  0  0  0  0  0  0
    3.5441   -6.4073   -0.0679 C   0  0  0  0  0  0  0  0  0  0  0  0
    2.8952   -6.7831   -1.2843 O   0  0  0  0  0  0  0  0  0  0  0  0
    2.6260   -8.1824   -1.3912 C   0  0  0  0  0  0  0  0  0  0  0  0
    1.9339   -8.4682   -2.7255 C   0  0  0  0  0  0  0  0  0  0  0  0
    2.8290   -8.1723   -3.7994 O   0  0  0  0  0  0  0  0  0  0  0  0
    2.3968    0.0320   -0.0323 N   0  3  0  0  0  0  0  0  0  0  0  0
   -1.1942    2.1260    0.0193 O   0  5  0  0  0  0  0  0  0  0  0  0
    5.3699   -0.2127   -0.9622 H   0  0  0  0  0  0  0  0  0  0  0  0
    5.3948   -0.2220    0.8105 H   0  0  0  0  0  0  0  0  0  0  0  0
    4.6607    1.2074   -0.0583 H   0  0  0  0  0  0  0  0  0  0  0  0
    4.5999   -2.5679   -0.0858 H   0  0  0  0  0  0  0  0  0  0  0  0
   -0.0138   -3.9036   -0.0185 H   0  0  0  0  0  0  0  0  0  0  0  0
   -2.1296   -2.6580    0.0094 H   0  0  0  0  0  0  0  0  0  0  0  0
   -2.1469   -0.1851    0.0211 H   0  0  0  0  0  0  0  0  0  0  0  0
    1.6156   -4.7390   -0.0392 H   0  0  0  0  0  0  0  0  0  0  0  0
    4.3606   -4.6197    0.8312 H   0  0  0  0  0  0  0  0  0  0  0  0
    4.3413   -4.6098   -0.9650 H   0  0  0  0  0  0  0  0  0  0  0  0
    4.5087   -6.9304    0.0093 H   0  0  0  0  0  0  0  0  0  0  0  0
    2.9082   -6.6829    0.7863 H   0  0  0  0  0  0  0  0  0  0  0  0
    1.9708   -8.4951   -0.5648 H   0  0  0  0  0  0  0  0  0  0  0  0
    3.5713   -8.7426   -1.3417 H   0  0  0  0  0  0  0  0  0  0  0  0
    1.6468   -9.5291   -2.7699 H   0  0  0  0  0  0  0  0  0  0  0  0
    1.0347   -7.8409   -2.8152 H   0  0  0  0  0  0  0  0  0  0  0  0
    3.6384   -8.7369   -3.7207 H   0  0  0  0  0  0  0  0  0  0  0  0
    2.3913    1.0620   -0.0269 H   0  0  0  0  0  0  0  0  0  0  0  0
  1  2  1  0  0  0  0
  2  3  2  0  0  0  0
  2 20  1  0  0  0  0
  3  4  1  0  0  0  0
  4  5  2  0  0  0  0
  4 13  1  0  0  0  0
  5 10  1  0  0  0  0
  5  6  1  0  0  0  0
  6  7  2  0  0  0  0
  7  8  1  0  0  0  0
  8  9  2  0  0  0  0
  9 10  1  0  0  0  0
  9 11  1  0  0  0  0
 10 20  2  0  0  0  0
 11 12  2  0  0  0  0
 11 21  1  0  0  0  0
 13 14  1  0  0  0  0
 14 15  1  0  0  0  0
 15 16  1  0  0  0  0
 16 17  1  0  0  0  0
 17 18  1  0  0  0  0
 18 19  1  0  0  0  0
  1 22  1  0  0  0  0
  1 23  1  0  0  0  0
  1 24  1  0  0  0  0
  3 25  1  0  0  0  0
  6 26  1  0  0  0  0
  7 27  1  0  0  0  0
  8 28  1  0  0  0  0
 13 29  1  0  0  0  0
 14 30  1  0  0  0  0
 14 31  1  0  0  0  0
 15 32  1  0  0  0  0
 15 33  1  0  0  0  0
 17 34  1  0  0  0  0
 17 35  1  0  0  0  0
 18 36  1  0  0  0  0
 18 37  1  0  0  0  0
 19 38  1  0  0  0  0
 20 39  1  0  0  0  0
M  CHG  2  20   1  21  -1
M  END
> <Name>
ZINC04226595

> <reference>
BDB5222

> <quality>
0.855

> <status>
decoy

$$$$
ZINC01731877
  SciTegic06141217593D

 32 32  0  0  0  0            999 V2000
   -0.0231    0.9468   -1.4403 C   0  0  0  0  0  0  0  0  0  0  0  0
   -0.0452    2.2640   -1.8559 C   0  0  0  0  0  0  0  0  0  0  0  0
    1.1457    2.9407   -2.0764 C   0  0  0  0  0  0  0  0  0  0  0  0
    2.3561    2.2923   -1.8782 C   0  0  0  0  0  0  0  0  0  0  0  0
    2.3728    0.9750   -1.4629 C   0  0  0  0  0  0  0  0  0  0  0  0
    1.1845    0.3028   -1.2439 C   0  0  0  0  0  0  0  0  0  0  0  0
    1.2057   -1.1341   -0.7900 C   0  0  0  0  0  0  0  0  0  0  0  0
    1.2046   -2.0550   -2.0118 C   0  0  0  0  0  0  0  0  0  0  0  0
    1.2253   -3.4518   -1.5705 N   0  0  0  0  0  0  0  0  0  0  0  0
    1.2282   -4.4624   -2.4955 C   0  0  0  0  0  0  0  0  0  0  0  0
    1.2493   -5.8993   -2.0416 C   0  0  0  0  0  0  0  0  0  0  0  0
    1.2480   -6.9911   -3.4901 S   0  0  0  0  0  0  0  0  0  0  0  0
    3.1064   -6.7246   -4.3137 S   0  0  0  0  0  0  0  0  0  0  0  0
    3.0948   -7.3935   -5.5673 O   0  0  0  0  0  0  0  0  0  0  0  0
    3.4106   -5.3420   -4.1907 O   0  0  0  0  0  0  0  0  0  0  0  0
    4.0998   -7.4686   -3.4328 O   0  5  0  0  0  0  0  0  0  0  0  0
    1.1266    4.2365   -2.4857 O   0  0  0  0  0  0  0  0  0  0  0  0
    1.2118   -4.1129   -3.7629 N   0  3  0  0  0  0  0  0  0  0  0  0
   -0.9671    0.4098   -1.2655 H   0  0  0  0  0  0  0  0  0  0  0  0
   -1.0062    2.7759   -2.0119 H   0  0  0  0  0  0  0  0  0  0  0  0
    3.3017    2.8268   -2.0516 H   0  0  0  0  0  0  0  0  0  0  0  0
    3.3323    0.4603   -1.3063 H   0  0  0  0  0  0  0  0  0  0  0  0
    2.1121   -1.3173   -0.1943 H   0  0  0  0  0  0  0  0  0  0  0  0
    0.3160   -1.3391   -0.1765 H   0  0  0  0  0  0  0  0  0  0  0  0
    0.2982   -1.8727   -2.6077 H   0  0  0  0  0  0  0  0  0  0  0  0
    2.0943   -1.8521   -2.6261 H   0  0  0  0  0  0  0  0  0  0  0  0
    1.2377   -3.6741   -0.5648 H   0  0  0  0  0  0  0  0  0  0  0  0
    0.3596   -6.1044   -1.4281 H   0  0  0  0  0  0  0  0  0  0  0  0
    2.1557   -6.0826   -1.4459 H   0  0  0  0  0  0  0  0  0  0  0  0
    0.5967    4.7128   -1.7984 H   0  0  0  0  0  0  0  0  0  0  0  0
    1.1973   -3.1269   -4.0603 H   0  0  0  0  0  0  0  0  0  0  0  0
    1.2136   -4.8551   -4.4770 H   0  0  0  0  0  0  0  0  0  0  0  0
  1  6  2  0  0  0  0
  1  2  1  0  0  0  0
  2  3  2  0  0  0  0
  3  4  1  0  0  0  0
  3 17  1  0  0  0  0
  4  5  2  0  0  0  0
  5  6  1  0  0  0  0
  6  7  1  0  0  0  0
  7  8  1  0  0  0  0
  8  9  1  0  0  0  0
  9 10  1  0  0  0  0
 10 11  1  0  0  0  0
 10 18  2  0  0  0  0
 11 12  1  0  0  0  0
 12 13  1  0  0  0  0
 13 14  2  0  0  0  0
 13 15  2  0  0  0  0
 13 16  1  0  0  0  0
  1 19  1  0  0  0  0
  2 20  1  0  0  0  0
  4 21  1  0  0  0  0
  5 22  1  0  0  0  0
  7 23  1  0  0  0  0
  7 24  1  0  0  0  0
  8 25  1  0  0  0  0
  8 26  1  0  0  0  0
  9 27  1  0  0  0  0
 11 28  1  0  0  0  0
 11 29  1  0  0  0  0
 17 30  1  0  0  0  0
 18 31  1  0  0  0  0
 18 32  1  0  0  0  0
M  CHG  2  16  -1  18   1
M  END
> <Name>
ZINC01731877

> <reference>
BDB5009

> <quality>
0.768

> <status>
decoy

$$$$
ZINC20920233
  SciTegic06141217593D

 49 51  0  0  0  0            999 V2000
   -1.2424    2.1737    0.0200 C   0  0  0  0  0  0  0  0  0  0  0  0
   -0.0156    1.2985    0.0092 C   0  0  0  0  0  0  0  0  0  0  0  0
    0.0021   -0.0041    0.0020 N   0  0  0  0  0  0  0  0  0  0  0  0
    1.2215   -0.4145   -0.0118 N   0  0  0  0  0  0  0  0  0  0  0  0
    2.0232    0.6123   -0.0140 C   0  0  0  0  0  0  0  0  0  0  0  0
    1.2607    1.7185   -0.0007 O   0  0  0  0  0  0  0  0  0  0  0  0
    3.5295    0.5676   -0.0286 C   0  0  0  0  0  0  0  0  0  0  0  0
    4.1175    0.5596   -1.7446 S   0  0  0  0  0  0  0  0  0  0  0  0
    5.8722    0.5066   -1.5936 C   0  0  0  0  0  0  0  0  0  0  0  0
    6.5489    0.4798   -0.4703 N   0  0  0  0  0  0  0  0  0  0  0  0
    7.9130    0.4412   -0.7875 N   0  0  0  0  0  0  0  0  0  0  0  0
    8.0254    0.4457   -2.0937 C   0  0  0  0  0  0  0  0  0  0  0  0
    6.7665    0.4802   -2.6259 N   0  0  0  0  0  0  0  0  0  0  0  0
    6.4573    0.4903   -3.9564 N   0  0  0  0  0  0  0  0  0  0  0  0
    9.2131    0.4146   -2.8101 N   0  0  0  0  0  0  0  0  0  0  0  0
   10.4389    0.3747   -2.1328 N   0  0  0  0  0  0  0  0  0  0  0  0
   11.5506    0.3457   -2.8034 C   0  0  0  0  0  0  0  0  0  0  0  0
   12.8404    0.3037   -2.0908 C   0  0  0  0  0  0  0  0  0  0  0  0
   12.8686    0.3009   -0.6939 C   0  0  0  0  0  0  0  0  0  0  0  0
   14.0804    0.2570   -0.0281 C   0  0  0  0  0  0  0  0  0  0  0  0
   15.2706    0.2255   -0.7480 C   0  0  0  0  0  0  0  0  0  0  0  0
   15.2460    0.2335   -2.1390 C   0  0  0  0  0  0  0  0  0  0  0  0
   14.0373    0.2724   -2.8108 C   0  0  0  0  0  0  0  0  0  0  0  0
   16.4116    0.2035   -2.8391 O   0  0  0  0  0  0  0  0  0  0  0  0
   16.3126    0.2143   -4.2647 C   0  0  0  0  0  0  0  0  0  0  0  0
   16.4610    0.1872   -0.0902 O   0  0  0  0  0  0  0  0  0  0  0  0
   17.0659    1.4416    0.2301 C   0  0  0  0  0  0  0  0  0  0  0  0
   14.1086    0.2500    1.3316 O   0  0  0  0  0  0  0  0  0  0  0  0
   12.8496    0.2837    2.0067 C   0  0  0  0  0  0  0  0  0  0  0  0
   -1.0848    2.8167   -0.8585 H   0  0  0  0  0  0  0  0  0  0  0  0
   -1.0706    2.8150    0.8971 H   0  0  0  0  0  0  0  0  0  0  0  0
   -2.2124    1.6551    0.0273 H   0  0  0  0  0  0  0  0  0  0  0  0
    3.9278    1.4517    0.4907 H   0  0  0  0  0  0  0  0  0  0  0  0
    3.8754   -0.3439    0.4809 H   0  0  0  0  0  0  0  0  0  0  0  0
    5.4527    0.5208   -4.1816 H   0  0  0  0  0  0  0  0  0  0  0  0
    7.1708    0.4692   -4.6989 H   0  0  0  0  0  0  0  0  0  0  0  0
    9.1937    0.4208   -3.8399 H   0  0  0  0  0  0  0  0  0  0  0  0
   11.5298    0.3525   -3.9032 H   0  0  0  0  0  0  0  0  0  0  0  0
   11.9282    0.3336   -0.1242 H   0  0  0  0  0  0  0  0  0  0  0  0
   14.0186    0.2787   -3.9106 H   0  0  0  0  0  0  0  0  0  0  0  0
   15.7496    1.1217   -4.5287 H   0  0  0  0  0  0  0  0  0  0  0  0
   15.6979   -0.6558   -4.5386 H   0  0  0  0  0  0  0  0  0  0  0  0
   17.2946    0.1885   -4.7596 H   0  0  0  0  0  0  0  0  0  0  0  0
   16.3309    1.9941    0.8339 H   0  0  0  0  0  0  0  0  0  0  0  0
   17.1905    1.9770   -0.7227 H   0  0  0  0  0  0  0  0  0  0  0  0
   18.0233    1.3294    0.7600 H   0  0  0  0  0  0  0  0  0  0  0  0
   12.2825   -0.5876    1.6473 H   0  0  0  0  0  0  0  0  0  0  0  0
   12.3344    1.1899    1.6553 H   0  0  0  0  0  0  0  0  0  0  0  0
   12.9536    0.2757    3.1017 H   0  0  0  0  0  0  0  0  0  0  0  0
  1  2  1  0  0  0  0
  2  6  1  0  0  0  0
  2  3  2  0  0  0  0
  3  4  1  0  0  0  0
  4  5  2  0  0  0  0
  5  6  1  0  0  0  0
  5  7  1  0  0  0  0
  7  8  1  0  0  0  0
  8  9  1  0  0  0  0
  9 13  1  0  0  0  0
  9 10  2  0  0  0  0
 10 11  1  0  0  0  0
 11 12  2  0  0  0  0
 12 13  1  0  0  0  0
 12 15  1  0  0  0  0
 13 14  1  0  0  0  0
 15 16  1  0  0  0  0
 16 17  2  0  0  0  0
 17 18  1  0  0  0  0
 18 23  2  0  0  0  0
 18 19  1  0  0  0  0
 19 20  2  0  0  0  0
 20 21  1  0  0  0  0
 20 28  1  0  0  0  0
 21 22  2  0  0  0  0
 21 26  1  0  0  0  0
 22 23  1  0  0  0  0
 22 24  1  0  0  0  0
 24 25  1  0  0  0  0
 26 27  1  0  0  0  0
 28 29  1  0  0  0  0
  1 30  1  0  0  0  0
  1 31  1  0  0  0  0
  1 32  1  0  0  0  0
  7 33  1  0  0  0  0
  7 34  1  0  0  0  0
 14 35  1  0  0  0  0
 14 36  1  0  0  0  0
 15 37  1  0  0  0  0
 17 38  1  0  0  0  0
 19 39  1  0  0  0  0
 23 40  1  0  0  0  0
 25 41  1  0  0  0  0
 25 42  1  0  0  0  0
 25 43  1  0  0  0  0
 27 44  1  0  0  0  0
 27 45  1  0  0  0  0
 27 46  1  0  0  0  0
 29 47  1  0  0  0  0
 29 48  1  0  0  0  0
 29 49  1  0  0  0  0
M  END
> <Name>
ZINC20920233

> <reference>
BDB4965

> <quality>
0.809

> <status>
decoy

$$$$
ZINC06493486
  SciTegic06141217593D

 33 34  0  0  0  0            999 V2000
   -5.2133    5.0451    0.0643 C   0  0  0  0  0  0  0  0  0  0  0  0
   -3.7269    5.4072    0.0502 C   0  0  0  0  0  0  0  0  0  0  0  0
   -2.9326    4.1917    0.0469 O   0  0  0  0  0  0  0  0  0  0  0  0
   -1.5922    4.3363    0.0347 C   0  0  0  0  0  0  0  0  0  0  0  0
   -1.1011    5.4480    0.0271 O   0  0  0  0  0  0  0  0  0  0  0  0
   -0.7243    3.1487    0.0307 C   0  0  0  0  0  0  0  0  0  0  0  0
    0.6648    3.1297    0.0186 C   0  0  0  0  0  0  0  0  0  0  0  0
    1.0447    1.8415    0.0187 N   0  0  0  0  0  0  0  0  0  0  0  0
   -0.0120    1.0754    0.0300 C   0  0  0  0  0  0  0  0  0  0  0  0
   -1.1232    1.8353    0.0323 N   0  5  0  0  0  0  0  0  0  0  0  0
    1.5582    4.3077    0.0076 C   0  0  0  0  0  0  0  0  0  0  0  0
    1.0866    5.4282    0.0083 O   0  0  0  0  0  0  0  0  0  0  0  0
    2.8954    4.1393   -0.0032 N   0  0  0  0  0  0  0  0  0  0  0  0
    3.7402    5.2509   -0.1111 C   0  0  0  0  0  0  0  0  0  0  0  0
    4.9337    5.1503   -0.8142 C   0  0  0  0  0  0  0  0  0  0  0  0
    5.7643    6.2474   -0.9247 C   0  0  0  0  0  0  0  0  0  0  0  0
    5.4112    7.4490   -0.3242 C   0  0  0  0  0  0  0  0  0  0  0  0
    4.2201    7.5481    0.3834 C   0  0  0  0  0  0  0  0  0  0  0  0
    3.3873    6.4522    0.4898 C   0  0  0  0  0  0  0  0  0  0  0  0
    6.2549    8.5595   -0.4324 N   0  0  0  0  0  0  0  0  0  0  0  0
   -5.4400    4.4573    0.9660 H   0  0  0  0  0  0  0  0  0  0  0  0
   -5.4557    4.4519   -0.8298 H   0  0  0  0  0  0  0  0  0  0  0  0
   -5.8156    5.9655    0.0668 H   0  0  0  0  0  0  0  0  0  0  0  0
   -3.5010    5.9946   -0.8520 H   0  0  0  0  0  0  0  0  0  0  0  0
   -3.4844    6.0004    0.9442 H   0  0  0  0  0  0  0  0  0  0  0  0
    0.0031   -0.0245    0.0366 H   0  0  0  0  0  0  0  0  0  0  0  0
    3.2959    3.1930    0.0679 H   0  0  0  0  0  0  0  0  0  0  0  0
    5.2171    4.1964   -1.2830 H   0  0  0  0  0  0  0  0  0  0  0  0
    6.7058    6.1700   -1.4883 H   0  0  0  0  0  0  0  0  0  0  0  0
    3.9404    8.4997    0.8590 H   0  0  0  0  0  0  0  0  0  0  0  0
    2.4442    6.5305    1.0505 H   0  0  0  0  0  0  0  0  0  0  0  0
    7.1380    8.4861   -0.9574 H   0  0  0  0  0  0  0  0  0  0  0  0
    5.9930    9.4506    0.0129 H   0  0  0  0  0  0  0  0  0  0  0  0
  1  2  1  0  0  0  0
  2  3  1  0  0  0  0
  3  4  1  0  0  0  0
  4  5  2  0  0  0  0
  4  6  1  0  0  0  0
  6 10  1  0  0  0  0
  6  7  2  0  0  0  0
  7  8  1  0  0  0  0
  7 11  1  0  0  0  0
  8  9  2  0  0  0  0
  9 10  1  0  0  0  0
 11 12  2  0  0  0  0
 11 13  1  0  0  0  0
 13 14  1  0  0  0  0
 14 19  2  0  0  0  0
 14 15  1  0  0  0  0
 15 16  2  0  0  0  0
 16 17  1  0  0  0  0
 17 18  2  0  0  0  0
 17 20  1  0  0  0  0
 18 19  1  0  0  0  0
  1 21  1  0  0  0  0
  1 22  1  0  0  0  0
  1 23  1  0  0  0  0
  2 24  1  0  0  0  0
  2 25  1  0  0  0  0
  9 26  1  0  0  0  0
 13 27  1  0  0  0  0
 15 28  1  0  0  0  0
 16 29  1  0  0  0  0
 18 30  1  0  0  0  0
 19 31  1  0  0  0  0
 20 32  1  0  0  0  0
 20 33  1  0  0  0  0
M  CHG  1  10  -1
M  END
> <Name>
ZINC06493486

> <reference>
BDB5233

> <quality>
0.730

> <status>
decoy

$$$$
ZINC19925920
  SciTegic06141217593D

 56 59  0  0  0  0            999 V2000
    3.7427    5.8714   -0.1726 C   0  0  0  0  0  0  0  0  0  0  0  0
    2.5017    5.1722   -0.0586 O   0  0  0  0  0  0  0  0  0  0  0  0
    2.0368    4.5532   -1.1768 C   0  0  0  0  0  0  0  0  0  0  0  0
    2.7609    4.6186   -2.3571 C   0  0  0  0  0  0  0  0  0  0  0  0
    2.2941    3.9912   -3.4991 C   0  0  0  0  0  0  0  0  0  0  0  0
    1.1039    3.2952   -3.4740 C   0  0  0  0  0  0  0  0  0  0  0  0
    0.3630    3.2211   -2.2914 C   0  0  0  0  0  0  0  0  0  0  0  0
    0.8327    3.8609   -1.1378 C   0  0  0  0  0  0  0  0  0  0  0  0
    0.1170    3.8002    0.0160 O   0  0  0  0  0  0  0  0  0  0  0  0
    0.4007    2.7130    0.8990 C   0  0  0  0  0  0  0  0  0  0  0  0
   -0.9095    2.4783   -2.2602 C   0  0  0  0  0  0  0  0  0  0  0  0
   -1.5980    2.4160   -1.1613 N   0  0  0  0  0  0  0  0  0  0  0  0
   -2.8105    1.7147   -1.1331 N   0  0  0  0  0  0  0  0  0  0  0  0
   -3.5252    1.6500    0.0077 C   0  0  0  0  0  0  0  0  0  0  0  0
   -3.0810    2.1334    1.0321 O   0  0  0  0  0  0  0  0  0  0  0  0
   -4.8423    0.9950    0.0143 C   0  0  0  0  0  0  0  0  0  0  0  0
   -6.0705    1.6024   -0.0242 C   0  0  0  0  0  0  0  0  0  0  0  0
   -6.9751    0.6230   -0.0002 N   0  0  0  0  0  0  0  0  0  0  0  0
   -6.3764   -0.5129    0.0494 N   0  0  0  0  0  0  0  0  0  0  0  0
   -5.0992   -0.3536    0.0544 N   0  0  0  0  0  0  0  0  0  0  0  0
   -4.1428   -1.3727    0.0966 C   0  0  0  0  0  0  0  0  0  0  0  0
   -4.4178   -2.8108    0.0263 C   0  0  0  0  0  0  0  0  0  0  0  0
   -3.2821   -3.4494    0.0951 N   0  0  0  0  0  0  0  0  0  0  0  0
   -2.2492   -2.4866    0.2097 O   0  0  0  0  0  0  0  0  0  0  0  0
   -2.8545   -1.2058    0.1995 N   0  0  0  0  0  0  0  0  0  0  0  0
   -5.6740   -3.3944   -0.0929 N   0  0  0  0  0  0  0  0  0  0  0  0
   -6.3441    3.0832   -0.0830 C   0  0  0  0  0  0  0  0  0  0  0  0
   -6.4151    3.5127   -1.4859 N   0  0  0  0  0  0  0  0  0  0  0  0
   -5.1077    3.3790   -2.1447 C   0  0  0  0  0  0  0  0  0  0  0  0
   -5.2404    3.7795   -3.6164 C   0  0  0  0  0  0  0  0  0  0  0  0
   -5.7541    5.1117   -3.6982 O   0  0  0  0  0  0  0  0  0  0  0  0
   -7.0268    5.2777   -3.0673 C   0  0  0  0  0  0  0  0  0  0  0  0
   -6.9121    4.8924   -1.5900 C   0  0  0  0  0  0  0  0  0  0  0  0
    3.6071    6.6136   -0.9730 H   0  0  0  0  0  0  0  0  0  0  0  0
    4.4824    5.1342   -0.5180 H   0  0  0  0  0  0  0  0  0  0  0  0
    4.0525    6.3449    0.7707 H   0  0  0  0  0  0  0  0  0  0  0  0
    3.7112    5.1719   -2.3862 H   0  0  0  0  0  0  0  0  0  0  0  0
    2.8753    4.0480   -4.4313 H   0  0  0  0  0  0  0  0  0  0  0  0
    0.7378    2.7985   -4.3846 H   0  0  0  0  0  0  0  0  0  0  0  0
    1.4729    2.7785    1.1357 H   0  0  0  0  0  0  0  0  0  0  0  0
    0.2390    1.7928    0.3184 H   0  0  0  0  0  0  0  0  0  0  0  0
   -0.2170    2.7317    1.8090 H   0  0  0  0  0  0  0  0  0  0  0  0
   -1.2759    1.9767   -3.1680 H   0  0  0  0  0  0  0  0  0  0  0  0
   -3.1557    1.2485   -1.9842 H   0  0  0  0  0  0  0  0  0  0  0  0
   -6.4679   -2.7394   -0.1337 H   0  0  0  0  0  0  0  0  0  0  0  0
   -5.8191   -4.4131   -0.1388 H   0  0  0  0  0  0  0  0  0  0  0  0
   -5.5346    3.6272    0.4257 H   0  0  0  0  0  0  0  0  0  0  0  0
   -7.3008    3.2995    0.4150 H   0  0  0  0  0  0  0  0  0  0  0  0
   -4.7668    2.3353   -2.0783 H   0  0  0  0  0  0  0  0  0  0  0  0
   -4.3781    4.0370   -1.6501 H   0  0  0  0  0  0  0  0  0  0  0  0
   -4.2529    3.7369   -4.0991 H   0  0  0  0  0  0  0  0  0  0  0  0
   -5.9292    3.0891   -4.1252 H   0  0  0  0  0  0  0  0  0  0  0  0
   -7.3431    6.3281   -3.1487 H   0  0  0  0  0  0  0  0  0  0  0  0
   -7.7686    4.6305   -3.5582 H   0  0  0  0  0  0  0  0  0  0  0  0
   -7.9016    4.9633   -1.1147 H   0  0  0  0  0  0  0  0  0  0  0  0
   -6.2118    5.5752   -1.0866 H   0  0  0  0  0  0  0  0  0  0  0  0
  1  2  1  0  0  0  0
  2  3  1  0  0  0  0
  3  8  2  0  0  0  0
  3  4  1  0  0  0  0
  4  5  2  0  0  0  0
  5  6  1  0  0  0  0
  6  7  2  0  0  0  0
  7  8  1  0  0  0  0
  7 11  1  0  0  0  0
  8  9  1  0  0  0  0
  9 10  1  0  0  0  0
 11 12  2  0  0  0  0
 12 13  1  0  0  0  0
 13 14  1  0  0  0  0
 14 15  2  0  0  0  0
 14 16  1  0  0  0  0
 16 20  1  0  0  0  0
 16 17  2  0  0  0  0
 17 18  1  0  0  0  0
 17 27  1  0  0  0  0
 18 19  2  0  0  0  0
 19 20  1  0  0  0  0
 20 21  1  0  0  0  0
 21 25  2  0  0  0  0
 21 22  1  0  0  0  0
 22 23  2  0  0  0  0
 22 26  1  0  0  0  0
 23 24  1  0  0  0  0
 24 25  1  0  0  0  0
 27 28  1  0  0  0  0
 28 33  1  0  0  0  0
 28 29  1  0  0  0  0
 29 30  1  0  0  0  0
 30 31  1  0  0  0  0
 31 32  1  0  0  0  0
 32 33  1  0  0  0  0
  1 34  1  0  0  0  0
  1 35  1  0  0  0  0
  1 36  1  0  0  0  0
  4 37  1  0  0  0  0
  5 38  1  0  0  0  0
  6 39  1  0  0  0  0
 10 40  1  0  0  0  0
 10 41  1  0  0  0  0
 10 42  1  0  0  0  0
 11 43  1  0  0  0  0
 13 44  1  0  0  0  0
 26 45  1  0  0  0  0
 26 46  1  0  0  0  0
 27 47  1  0  0  0  0
 27 48  1  0  0  0  0
 29 49  1  0  0  0  0
 29 50  1  0  0  0  0
 30 51  1  0  0  0  0
 30 52  1  0  0  0  0
 32 53  1  0  0  0  0
 32 54  1  0  0  0  0
 33 55  1  0  0  0  0
 33 56  1  0  0  0  0
M  END
> <Name>
ZINC19925920

> <reference>
BDB4968

> <quality>
0.786

> <status>
decoy

$$$$
ZINC26449470
  SciTegic06141217593D

 47 48  0  0  1  0            999 V2000
   -0.9258    5.8966   -2.2569 C   0  0  0  0  0  0  0  0  0  0  0  0
   -0.2451    5.3739   -1.1143 O   0  0  0  0  0  0  0  0  0  0  0  0
   -0.7388    5.8675    0.1325 C   0  0  0  0  0  0  0  0  0  0  0  0
    0.1360    5.3409    1.2719 C   0  0  0  0  0  0  0  0  0  0  0  0
    1.4538    5.9877    1.2165 N   0  3  0  0  0  0  0  0  0  0  0  0
    2.1434    5.6706   -0.0412 C   0  0  0  0  0  0  0  0  0  0  0  0
    2.4676    4.1759   -0.0824 C   0  0  0  0  0  0  0  0  0  0  0  0
    1.2556    3.4289   -0.2045 O   0  0  0  0  0  0  0  0  0  0  0  0
    1.3675    2.0754   -0.2552 C   0  0  0  0  0  0  0  0  0  0  0  0
    0.2313    1.2882   -0.3735 C   0  0  0  0  0  0  0  0  0  0  0  0
    0.3478   -0.0874   -0.4253 C   0  0  0  0  0  0  0  0  0  0  0  0
    1.5955   -0.6796   -0.3593 C   0  0  0  0  0  0  0  0  0  0  0  0
    2.7294    0.1027   -0.2414 C   0  0  0  0  0  0  0  0  0  0  0  0
    2.6182    1.4787   -0.1887 C   0  0  0  0  0  0  0  0  0  0  0  0
    1.7406   -2.4344   -0.4250 S   0  0  0  0  0  0  0  0  0  0  0  0
    2.9715   -2.7640    0.2040 O   0  0  0  0  0  0  0  0  0  0  0  0
    0.4959   -2.9616    0.0134 O   0  0  0  0  0  0  0  0  0  0  0  0
    1.8969   -2.8534   -2.0195 N   0  0  0  0  0  0  0  0  0  0  0  0
    1.3355    7.4403    1.4003 C   0  0  0  0  0  0  0  0  0  0  0  0
    0.9664    7.7372    2.8309 C   0  0  0  0  0  0  0  0  0  0  0  0
    1.8281    8.0345    3.8202 C   0  0  0  0  0  0  0  0  0  0  0  0
    1.0570    8.2381    4.9876 C   0  0  0  0  0  0  0  0  0  0  0  0
   -0.2298    8.0530    4.6420 C   0  0  0  0  0  0  0  0  0  0  0  0
   -0.2790    7.7556    3.3332 O   0  0  0  0  0  0  0  0  0  0  0  0
   -0.8275    6.9918   -2.2291 H   0  0  0  0  0  0  0  0  0  0  0  0
   -1.9906    5.6402   -2.1546 H   0  0  0  0  0  0  0  0  0  0  0  0
   -0.5145    5.4910   -3.1930 H   0  0  0  0  0  0  0  0  0  0  0  0
   -1.7744    5.5268    0.2788 H   0  0  0  0  0  0  0  0  0  0  0  0
   -0.7117    6.9672    0.1283 H   0  0  0  0  0  0  0  0  0  0  0  0
   -0.3425    5.5668    2.2363 H   0  0  0  0  0  0  0  0  0  0  0  0
    0.2579    4.2525    1.1691 H   0  0  0  0  0  0  0  0  0  0  0  0
    2.0216    5.6159    1.9913 H   0  0  0  0  0  0  0  0  0  0  0  0
    3.0767    6.2493   -0.1050 H   0  0  0  0  0  0  0  0  0  0  0  0
    1.4937    5.9278   -0.8907 H   0  0  0  0  0  0  0  0  0  0  0  0
    3.1163    3.9649   -0.9454 H   0  0  0  0  0  0  0  0  0  0  0  0
    2.9844    3.8860    0.8444 H   0  0  0  0  0  0  0  0  0  0  0  0
   -0.7615    1.7589   -0.4260 H   0  0  0  0  0  0  0  0  0  0  0  0
   -0.5528   -0.7121   -0.5191 H   0  0  0  0  0  0  0  0  0  0  0  0
    3.7209   -0.3709   -0.1895 H   0  0  0  0  0  0  0  0  0  0  0  0
    3.5205    2.1007   -0.0941 H   0  0  0  0  0  0  0  0  0  0  0  0
    2.8058   -3.1767   -2.3803 H   0  0  0  0  0  0  0  0  0  0  0  0
    1.0852   -2.7907   -2.6504 H   0  0  0  0  0  0  0  0  0  0  0  0
    2.2968    7.9195    1.1632 H   0  0  0  0  0  0  0  0  0  0  0  0
    0.5552    7.8332    0.7320 H   0  0  0  0  0  0  0  0  0  0  0  0
    2.9226    8.1056    3.7369 H   0  0  0  0  0  0  0  0  0  0  0  0
    1.4365    8.4980    5.9868 H   0  0  0  0  0  0  0  0  0  0  0  0
   -1.0949    8.1318    5.3168 H   0  0  0  0  0  0  0  0  0  0  0  0
  1  2  1  0  0  0  0
  2  3  1  0  0  0  0
  3  4  1  0  0  0  0
  4  5  1  0  0  0  0
  5  6  1  0  0  0  0
  5 19  1  0  0  0  0
  6  7  1  0  0  0  0
  7  8  1  0  0  0  0
  8  9  1  0  0  0  0
  9 14  2  0  0  0  0
  9 10  1  0  0  0  0
 10 11  2  0  0  0  0
 11 12  1  0  0  0  0
 12 13  2  0  0  0  0
 12 15  1  0  0  0  0
 13 14  1  0  0  0  0
 15 16  2  0  0  0  0
 15 17  2  0  0  0  0
 15 18  1  0  0  0  0
 19 20  1  0  0  0  0
 20 24  1  0  0  0  0
 20 21  2  0  0  0  0
 21 22  1  0  0  0  0
 22 23  2  0  0  0  0
 23 24  1  0  0  0  0
  1 25  1  0  0  0  0
  1 26  1  0  0  0  0
  1 27  1  0  0  0  0
  3 28  1  0  0  0  0
  3 29  1  0  0  0  0
  4 30  1  0  0  0  0
  4 31  1  0  0  0  0
  5 32  1  0  0  0  0
  6 33  1  0  0  0  0
  6 34  1  0  0  0  0
  7 35  1  0  0  0  0
  7 36  1  0  0  0  0
 10 37  1  0  0  0  0
 11 38  1  0  0  0  0
 13 39  1  0  0  0  0
 14 40  1  0  0  0  0
 18 41  1  0  0  0  0
 18 42  1  0  0  0  0
 19 43  1  0  0  0  0
 19 44  1  0  0  0  0
 21 45  1  0  0  0  0
 22 46  1  0  0  0  0
 23 47  1  0  0  0  0
M  CHG  1   5   1
M  END
> <Name>
ZINC26449470

> <reference>
BDB4997

> <quality>
0.675

> <status>
decoy

$$$$
ZINC05266223
  SciTegic06141217593D

 46 47  0  0  0  0            999 V2000
    4.9702    0.7931    2.6989 C   0  0  0  0  0  0  0  0  0  0  0  0
    4.3720    0.8820    1.4042 O   0  0  0  0  0  0  0  0  0  0  0  0
    3.0213    1.3483    1.4187 C   0  0  0  0  0  0  0  0  0  0  0  0
    2.4854    1.4033   -0.0132 C   0  0  0  0  0  0  0  0  0  0  0  0
    1.1006    1.8814    0.0017 N   0  0  0  0  0  0  0  0  0  0  0  0
   -0.0126    1.0758    0.0080 C   0  0  0  0  0  0  0  0  0  0  0  0
   -1.1243    1.8351    0.0168 C   0  0  0  0  0  0  0  0  0  0  0  0
   -0.6857    3.2357    0.0252 C   0  0  0  0  0  0  0  0  0  0  0  0
    0.7209    3.2046    0.0119 C   0  0  0  0  0  0  0  0  0  0  0  0
    1.4287    4.4023    0.0110 C   0  0  0  0  0  0  0  0  0  0  0  0
    0.7476    5.5999    0.0230 C   0  0  0  0  0  0  0  0  0  0  0  0
   -0.6402    5.6247    0.0360 C   0  0  0  0  0  0  0  0  0  0  0  0
   -1.3552    4.4601    0.0372 C   0  0  0  0  0  0  0  0  0  0  0  0
   -2.4540    1.3737    0.0203 N   0  0  0  0  0  0  0  0  0  0  0  0
   -2.7079    0.0501    0.0151 C   0  0  0  0  0  0  0  0  0  0  0  0
   -1.7883   -0.7455    0.0074 O   0  0  0  0  0  0  0  0  0  0  0  0
   -3.9812   -0.3918    0.0185 N   0  0  0  0  0  0  0  0  0  0  0  0
   -4.2573   -1.8306    0.0128 C   0  0  0  0  0  0  0  0  0  0  0  0
   -4.3472   -2.3383    1.4533 C   0  0  0  0  0  0  0  0  0  0  0  0
   -5.4724   -1.7400    2.0999 O   0  0  0  0  0  0  0  0  0  0  0  0
   -5.0892    0.5666    0.0278 C   0  0  0  0  0  0  0  0  0  0  0  0
   -5.4811    0.9071   -1.4115 C   0  0  0  0  0  0  0  0  0  0  0  0
   -5.9967   -0.2607   -2.0537 O   0  0  0  0  0  0  0  0  0  0  0  0
    4.3521    0.1134    3.3038 H   0  0  0  0  0  0  0  0  0  0  0  0
    4.9309    1.7948    3.1518 H   0  0  0  0  0  0  0  0  0  0  0  0
    6.0072    0.4309    2.6410 H   0  0  0  0  0  0  0  0  0  0  0  0
    2.4026    0.6616    2.0151 H   0  0  0  0  0  0  0  0  0  0  0  0
    2.9842    2.3543    1.8622 H   0  0  0  0  0  0  0  0  0  0  0  0
    2.5206    0.3978   -0.4579 H   0  0  0  0  0  0  0  0  0  0  0  0
    3.1035    2.0901   -0.6100 H   0  0  0  0  0  0  0  0  0  0  0  0
    0.0024   -0.0241    0.0061 H   0  0  0  0  0  0  0  0  0  0  0  0
    2.5286    4.3932    0.0007 H   0  0  0  0  0  0  0  0  0  0  0  0
    1.3092    6.5458    0.0223 H   0  0  0  0  0  0  0  0  0  0  0  0
   -1.1686    6.5894    0.0454 H   0  0  0  0  0  0  0  0  0  0  0  0
   -2.4548    4.4877    0.0476 H   0  0  0  0  0  0  0  0  0  0  0  0
   -3.2330    2.0475    0.0268 H   0  0  0  0  0  0  0  0  0  0  0  0
   -3.4470   -2.3585   -0.5113 H   0  0  0  0  0  0  0  0  0  0  0  0
   -5.2109   -2.0191   -0.5020 H   0  0  0  0  0  0  0  0  0  0  0  0
   -4.4656   -3.4319    1.4500 H   0  0  0  0  0  0  0  0  0  0  0  0
   -3.4284   -2.0705    1.9956 H   0  0  0  0  0  0  0  0  0  0  0  0
   -6.3003   -1.9810    1.6135 H   0  0  0  0  0  0  0  0  0  0  0  0
   -4.7777    1.4839    0.5490 H   0  0  0  0  0  0  0  0  0  0  0  0
   -5.9521    0.1246    0.5474 H   0  0  0  0  0  0  0  0  0  0  0  0
   -6.2515    1.6922   -1.4059 H   0  0  0  0  0  0  0  0  0  0  0  0
   -4.5965    1.2652   -1.9586 H   0  0  0  0  0  0  0  0  0  0  0  0
   -6.7936   -0.5837   -1.5630 H   0  0  0  0  0  0  0  0  0  0  0  0
  1  2  1  0  0  0  0
  2  3  1  0  0  0  0
  3  4  1  0  0  0  0
  4  5  1  0  0  0  0
  5  9  1  0  0  0  0
  5  6  1  0  0  0  0
  6  7  2  0  0  0  0
  7  8  1  0  0  0  0
  7 14  1  0  0  0  0
  8 13  2  0  0  0  0
  8  9  1  0  0  0  0
  9 10  2  0  0  0  0
 10 11  1  0  0  0  0
 11 12  2  0  0  0  0
 12 13  1  0  0  0  0
 14 15  1  0  0  0  0
 15 16  2  0  0  0  0
 15 17  1  0  0  0  0
 17 18  1  0  0  0  0
 17 21  1  0  0  0  0
 18 19  1  0  0  0  0
 19 20  1  0  0  0  0
 21 22  1  0  0  0  0
 22 23  1  0  0  0  0
  1 24  1  0  0  0  0
  1 25  1  0  0  0  0
  1 26  1  0  0  0  0
  3 27  1  0  0  0  0
  3 28  1  0  0  0  0
  4 29  1  0  0  0  0
  4 30  1  0  0  0  0
  6 31  1  0  0  0  0
 10 32  1  0  0  0  0
 11 33  1  0  0  0  0
 12 34  1  0  0  0  0
 13 35  1  0  0  0  0
 14 36  1  0  0  0  0
 18 37  1  0  0  0  0
 18 38  1  0  0  0  0
 19 39  1  0  0  0  0
 19 40  1  0  0  0  0
 20 41  1  0  0  0  0
 21 42  1  0  0  0  0
 21 43  1  0  0  0  0
 22 44  1  0  0  0  0
 22 45  1  0  0  0  0
 23 46  1  0  0  0  0
M  END
> <Name>
ZINC05266223

> <reference>
BDB5025

> <quality>
0.793

> <status>
decoy

$$$$
ZINC24869044
  SciTegic06141217593D

 49 50  0  0  1  0            999 V2000
   -0.9434    4.3002    0.1928 C   0  0  0  0  0  0  0  0  0  0  0  0
   -2.0768    3.5086    0.2029 C   0  0  0  0  0  0  0  0  0  0  0  0
   -1.9621    2.1314    0.1670 C   0  0  0  0  0  0  0  0  0  0  0  0
   -0.7089    1.5412    0.1315 C   0  0  0  0  0  0  0  0  0  0  0  0
    0.4319    2.3380    0.1209 C   0  0  0  0  0  0  0  0  0  0  0  0
    0.3098    3.7179    0.1517 C   0  0  0  0  0  0  0  0  0  0  0  0
    1.6639    1.7636    0.0800 O   0  0  0  0  0  0  0  0  0  0  0  0
   -0.5942    0.1865    0.1015 O   0  0  0  0  0  0  0  0  0  0  0  0
   -1.8079   -0.5678    0.1146 C   0  0  0  0  0  0  0  0  0  0  0  0
   -1.4803   -2.0618    0.0768 C   0  0  0  0  0  0  0  0  0  0  0  0
   -2.7602   -2.8573    0.0907 C   0  0  0  0  0  0  0  0  0  0  0  0
   -3.8291   -2.2855    0.1272 O   0  0  0  0  0  0  0  0  0  0  0  0
   -2.7170   -4.2040    0.0625 N   0  0  0  0  0  0  0  0  0  0  0  0
   -1.4316   -4.9172    0.0119 C   0  0  0  0  0  0  0  0  0  0  0  0
   -1.4216   -5.9725    1.1293 C   0  0  0  0  0  0  0  0  0  0  0  0
   -2.6103   -6.8259    1.0003 N   0  0  0  0  0  0  0  0  0  0  0  0
   -3.8448   -6.0514    1.1843 C   0  0  0  0  0  0  0  0  0  0  0  0
   -3.9540   -4.9995    0.0753 C   0  0  0  0  0  0  0  0  0  0  0  0
   -2.5522   -7.9547    1.9386 C   0  0  0  0  0  0  0  0  0  0  0  0
   -2.1976   -7.4395    3.3349 C   0  0  2  0  0  0  0  0  0  0  0  0
   -1.9883   -8.6258    4.2782 C   0  0  0  0  0  0  0  0  0  0  0  0
   -1.5679   -8.0150    5.9338 S   0  0  0  0  0  0  0  0  0  0  0  0
   -0.2879   -7.3981    5.9174 O   0  0  0  0  0  0  0  0  0  0  0  0
   -2.6848   -7.3507    6.5086 O   0  0  0  0  0  0  0  0  0  0  0  0
   -1.3844   -9.2680    6.7780 O   0  5  0  0  0  0  0  0  0  0  0  0
   -3.2623   -6.6226    3.8258 O   0  0  0  0  0  0  0  0  0  0  0  0
   -1.0389    5.3958    0.2175 H   0  0  0  0  0  0  0  0  0  0  0  0
   -3.0721    3.9756    0.2396 H   0  0  0  0  0  0  0  0  0  0  0  0
   -2.8657    1.5041    0.1666 H   0  0  0  0  0  0  0  0  0  0  0  0
    1.2100    4.3500    0.1434 H   0  0  0  0  0  0  0  0  0  0  0  0
    1.6511    1.1914   -0.7278 H   0  0  0  0  0  0  0  0  0  0  0  0
   -2.3717   -0.3397    1.0312 H   0  0  0  0  0  0  0  0  0  0  0  0
   -2.4145   -0.3039   -0.7643 H   0  0  0  0  0  0  0  0  0  0  0  0
   -0.8746   -2.3278    0.9556 H   0  0  0  0  0  0  0  0  0  0  0  0
   -0.9169   -2.2907   -0.8398 H   0  0  0  0  0  0  0  0  0  0  0  0
   -0.6066   -4.2066    0.1686 H   0  0  0  0  0  0  0  0  0  0  0  0
   -1.3214   -5.4125   -0.9641 H   0  0  0  0  0  0  0  0  0  0  0  0
   -0.5155   -6.5902    1.0430 H   0  0  0  0  0  0  0  0  0  0  0  0
   -1.4343   -5.4719    2.1087 H   0  0  0  0  0  0  0  0  0  0  0  0
   -4.7122   -6.7261    1.1360 H   0  0  0  0  0  0  0  0  0  0  0  0
   -3.8226   -5.5504    2.1633 H   0  0  0  0  0  0  0  0  0  0  0  0
   -4.8136   -4.3426    0.2742 H   0  0  0  0  0  0  0  0  0  0  0  0
   -4.0823   -5.5003   -0.8957 H   0  0  0  0  0  0  0  0  0  0  0  0
   -3.5310   -8.4557    1.9708 H   0  0  0  0  0  0  0  0  0  0  0  0
   -1.7850   -8.6698    1.6067 H   0  0  0  0  0  0  0  0  0  0  0  0
   -1.2735   -6.8450    3.2827 H   0  0  0  0  0  0  0  0  0  0  0  0
   -2.9125   -9.2200    4.3310 H   0  0  0  0  0  0  0  0  0  0  0  0
   -1.1686   -9.2552    3.9014 H   0  0  0  0  0  0  0  0  0  0  0  0
   -4.0944   -7.1568    3.8734 H   0  0  0  0  0  0  0  0  0  0  0  0
  1  6  2  0  0  0  0
  1  2  1  0  0  0  0
  2  3  2  0  0  0  0
  3  4  1  0  0  0  0
  4  5  2  0  0  0  0
  4  8  1  0  0  0  0
  5  6  1  0  0  0  0
  5  7  1  0  0  0  0
  8  9  1  0  0  0  0
  9 10  1  0  0  0  0
 10 11  1  0  0  0  0
 11 12  2  0  0  0  0
 11 13  1  0  0  0  0
 13 18  1  0  0  0  0
 13 14  1  0  0  0  0
 14 15  1  0  0  0  0
 15 16  1  0  0  0  0
 16 17  1  0  0  0  0
 16 19  1  0  0  0  0
 17 18  1  0  0  0  0
 19 20  1  0  0  0  0
 20 21  1  0  0  0  0
 20 26  1  0  0  0  0
 21 22  1  0  0  0  0
 22 23  2  0  0  0  0
 22 24  2  0  0  0  0
 22 25  1  0  0  0  0
  1 27  1  0  0  0  0
  2 28  1  0  0  0  0
  3 29  1  0  0  0  0
  6 30  1  0  0  0  0
  7 31  1  0  0  0  0
  9 32  1  0  0  0  0
  9 33  1  0  0  0  0
 10 34  1  0  0  0  0
 10 35  1  0  0  0  0
 14 36  1  0  0  0  0
 14 37  1  0  0  0  0
 15 38  1  0  0  0  0
 15 39  1  0  0  0  0
 17 40  1  0  0  0  0
 17 41  1  0  0  0  0
 18 42  1  0  0  0  0
 18 43  1  0  0  0  0
 19 44  1  0  0  0  0
 19 45  1  0  0  0  0
 20 46  1  0  0  0  0
 21 47  1  0  0  0  0
 21 48  1  0  0  0  0
 26 49  1  0  0  0  0
M  CHG  1  25  -1
M  END
> <Name>
ZINC24869044

> <reference>
BDB4945

> <quality>
0.764

> <status>
decoy

$$$$
ZINC20636295
  SciTegic06141217593D

 36 37  0  0  1  0            999 V2000
    1.0022    0.3802   -7.1447 C   0  0  0  0  0  0  0  0  0  0  0  0
    0.0008   -0.3837   -6.5749 C   0  0  0  0  0  0  0  0  0  0  0  0
   -0.6459    0.0619   -5.4373 C   0  0  0  0  0  0  0  0  0  0  0  0
   -0.2916    1.2716   -4.8698 C   0  0  0  0  0  0  0  0  0  0  0  0
    0.7058    2.0381   -5.4429 C   0  0  0  0  0  0  0  0  0  0  0  0
    1.3565    1.5899   -6.5772 C   0  0  0  0  0  0  0  0  0  0  0  0
   -0.9970    1.7576   -3.6299 C   0  0  0  0  0  0  0  0  0  0  0  0
   -0.2884    1.2723   -2.4431 N   0  0  0  0  0  0  0  0  0  0  0  0
   -0.7416    1.5850   -1.2129 C   0  0  0  0  0  0  0  0  0  0  0  0
   -1.7359    2.2682   -1.0884 O   0  0  0  0  0  0  0  0  0  0  0  0
   -0.0127    1.0858    0.0080 C   0  0  0  0  0  0  0  0  0  0  0  0
   -0.7288    1.5792    1.2668 C   0  5  0  0  0  0  0  0  0  0  0  0
   -0.1004    0.9991    2.5283 C   0  0  0  0  0  0  0  0  0  0  0  0
   -0.0778   -0.1923    2.7684 O   0  0  0  0  0  0  0  0  0  0  0  0
    0.4122    1.8964    3.3293 N   0  0  0  0  0  0  0  0  0  0  0  0
    0.4017    3.1974    3.0934 C   0  0  0  0  0  0  0  0  0  0  0  0
   -0.4073    3.3631    1.5660 S   0  0  0  0  0  0  0  0  0  0  0  0
    0.9153    4.1936    3.8797 N   0  0  0  0  0  0  0  0  0  0  0  0
    1.5323    3.8812    5.0744 C   0  0  0  0  0  0  0  0  0  0  0  0
    1.6259    2.6390    5.4535 N   0  3  0  0  0  0  0  0  0  0  0  0
    2.0479    4.8814    5.8638 N   0  0  0  0  0  0  0  0  0  0  0  0
    1.5171    0.0254   -8.0497 H   0  0  0  0  0  0  0  0  0  0  0  0
   -0.2814   -1.3461   -7.0267 H   0  0  0  0  0  0  0  0  0  0  0  0
   -1.4424   -0.5461   -4.9836 H   0  0  0  0  0  0  0  0  0  0  0  0
    0.9817    3.0048   -4.9963 H   0  0  0  0  0  0  0  0  0  0  0  0
    2.1562    2.1958   -7.0282 H   0  0  0  0  0  0  0  0  0  0  0  0
   -1.0115    2.8575   -3.6234 H   0  0  0  0  0  0  0  0  0  0  0  0
   -2.0291    1.3772   -3.6209 H   0  0  0  0  0  0  0  0  0  0  0  0
    0.5561    0.6922   -2.5488 H   0  0  0  0  0  0  0  0  0  0  0  0
    0.0018   -0.0141    0.0024 H   0  0  0  0  0  0  0  0  0  0  0  0
    1.0194    1.4662    0.0013 H   0  0  0  0  0  0  0  0  0  0  0  0
    0.8413    5.1762    3.5798 H   0  0  0  0  0  0  0  0  0  0  0  0
    1.2396    1.8895    4.8620 H   0  0  0  0  0  0  0  0  0  0  0  0
    2.0863    2.4059    6.3449 H   0  0  0  0  0  0  0  0  0  0  0  0
    1.9739    5.8640    5.5639 H   0  0  0  0  0  0  0  0  0  0  0  0
    2.5083    4.6483    6.7552 H   0  0  0  0  0  0  0  0  0  0  0  0
  1  6  2  0  0  0  0
  1  2  1  0  0  0  0
  2  3  2  0  0  0  0
  3  4  1  0  0  0  0
  4  5  2  0  0  0  0
  4  7  1  0  0  0  0
  5  6  1  0  0  0  0
  7  8  1  0  0  0  0
  8  9  1  0  0  0  0
  9 10  2  0  0  0  0
  9 11  1  0  0  0  0
 11 12  1  0  0  0  0
 12 17  1  0  0  0  0
 12 13  1  0  0  0  0
 13 14  2  0  0  0  0
 13 15  1  0  0  0  0
 15 16  2  0  0  0  0
 16 17  1  0  0  0  0
 16 18  1  0  0  0  0
 18 19  1  0  0  0  0
 19 20  2  0  0  0  0
 19 21  1  0  0  0  0
  1 22  1  0  0  0  0
  2 23  1  0  0  0  0
  3 24  1  0  0  0  0
  5 25  1  0  0  0  0
  6 26  1  0  0  0  0
  7 27  1  0  0  0  0
  7 28  1  0  0  0  0
  8 29  1  0  0  0  0
 11 30  1  0  0  0  0
 11 31  1  0  0  0  0
 18 32  1  0  0  0  0
 20 33  1  0  0  0  0
 20 34  1  0  0  0  0
 21 35  1  0  0  0  0
 21 36  1  0  0  0  0
M  CHG  2  12  -1  20   1
M  END
> <Name>
ZINC20636295

> <reference>
BDB5200

> <quality>
0.830

> <status>
decoy

$$$$
ZINC00481078
  SciTegic06141217593D

 40 40  0  0  0  0            999 V2000
    6.2946    2.3806    9.5181 C   0  0  0  0  0  0  0  0  0  0  0  0
    5.7606    3.0144    8.2320 C   0  0  0  0  0  0  0  0  0  0  0  0
    4.7798    2.1304    7.6279 O   0  0  0  0  0  0  0  0  0  0  0  0
    4.2094    2.5435    6.4808 C   0  0  0  0  0  0  0  0  0  0  0  0
    4.5224    3.6131    5.9977 O   0  0  0  0  0  0  0  0  0  0  0  0
    3.2910    1.7703    5.8683 N   0  0  0  0  0  0  0  0  0  0  0  0
    2.7199    2.1839    4.7197 C   0  0  0  0  0  0  0  0  0  0  0  0
    3.1007    3.2079    4.1856 O   0  0  0  0  0  0  0  0  0  0  0  0
    1.6369    1.3975    4.1128 C   0  0  0  0  0  0  0  0  0  0  0  0
    0.9617    1.8585    2.9985 C   0  0  0  0  0  0  0  0  0  0  0  0
   -0.0333    1.1041    2.4647 N   0  0  0  0  0  0  0  0  0  0  0  0
   -0.3804   -0.0780    2.9975 C   0  0  0  0  0  0  0  0  0  0  0  0
   -1.2815   -0.7123    2.4846 O   0  0  0  0  0  0  0  0  0  0  0  0
    0.2394   -0.5854    4.0768 N   0  0  0  0  0  0  0  0  0  0  0  0
    1.2402    0.0956    4.6738 C   0  0  0  0  0  0  0  0  0  0  0  0
    1.8016   -0.3563    5.6541 O   0  0  0  0  0  0  0  0  0  0  0  0
   -0.7484    1.5944    1.2838 C   0  0  0  0  0  0  0  0  0  0  0  0
   -0.0395    1.1059    0.0190 C   0  0  0  0  0  0  0  0  0  0  0  0
    0.0183    1.3529   -2.3890 C   0  0  0  0  0  0  0  0  0  0  0  0
   -2.0931    0.9955   -1.2590 C   0  0  0  0  0  0  0  0  0  0  0  0
   -0.7597    1.6260   -1.1623 N   0  3  0  0  0  0  0  0  0  0  0  0
    6.7672    1.4154    9.2836 H   0  0  0  0  0  0  0  0  0  0  0  0
    5.4641    2.2203   10.2214 H   0  0  0  0  0  0  0  0  0  0  0  0
    7.0377    3.0498    9.9763 H   0  0  0  0  0  0  0  0  0  0  0  0
    5.2879    3.9794    8.4674 H   0  0  0  0  0  0  0  0  0  0  0  0
    6.5910    3.1747    7.5287 H   0  0  0  0  0  0  0  0  0  0  0  0
    3.0256    0.8633    6.2780 H   0  0  0  0  0  0  0  0  0  0  0  0
    1.2275    2.8265    2.5487 H   0  0  0  0  0  0  0  0  0  0  0  0
   -0.0513   -1.5000    4.4508 H   0  0  0  0  0  0  0  0  0  0  0  0
   -1.7803    1.2135    1.2954 H   0  0  0  0  0  0  0  0  0  0  0  0
   -0.7634    2.6943    1.2932 H   0  0  0  0  0  0  0  0  0  0  0  0
   -0.0414    0.0061   -0.0040 H   0  0  0  0  0  0  0  0  0  0  0  0
    0.9962    1.4763    0.0109 H   0  0  0  0  0  0  0  0  0  0  0  0
    0.1605    0.2673   -2.4952 H   0  0  0  0  0  0  0  0  0  0  0  0
    1.0002    1.8430   -2.3134 H   0  0  0  0  0  0  0  0  0  0  0  0
   -0.5212    1.7415   -3.2653 H   0  0  0  0  0  0  0  0  0  0  0  0
   -2.6692    1.2219   -0.3497 H   0  0  0  0  0  0  0  0  0  0  0  0
   -1.9742   -0.0940   -1.3527 H   0  0  0  0  0  0  0  0  0  0  0  0
   -2.6254    1.3853   -2.1392 H   0  0  0  0  0  0  0  0  0  0  0  0
   -0.8776    2.6442   -1.0607 H   0  0  0  0  0  0  0  0  0  0  0  0
  1  2  1  0  0  0  0
  2  3  1  0  0  0  0
  3  4  1  0  0  0  0
  4  5  2  0  0  0  0
  4  6  1  0  0  0  0
  6  7  1  0  0  0  0
  7  8  2  0  0  0  0
  7  9  1  0  0  0  0
  9 15  1  0  0  0  0
  9 10  2  0  0  0  0
 10 11  1  0  0  0  0
 11 12  1  0  0  0  0
 11 17  1  0  0  0  0
 12 13  2  0  0  0  0
 12 14  1  0  0  0  0
 14 15  1  0  0  0  0
 15 16  2  0  0  0  0
 17 18  1  0  0  0  0
 18 21  1  0  0  0  0
 19 21  1  0  0  0  0
 20 21  1  0  0  0  0
  1 22  1  0  0  0  0
  1 23  1  0  0  0  0
  1 24  1  0  0  0  0
  2 25  1  0  0  0  0
  2 26  1  0  0  0  0
  6 27  1  0  0  0  0
 10 28  1  0  0  0  0
 14 29  1  0  0  0  0
 17 30  1  0  0  0  0
 17 31  1  0  0  0  0
 18 32  1  0  0  0  0
 18 33  1  0  0  0  0
 19 34  1  0  0  0  0
 19 35  1  0  0  0  0
 19 36  1  0  0  0  0
 20 37  1  0  0  0  0
 20 38  1  0  0  0  0
 20 39  1  0  0  0  0
 21 40  1  0  0  0  0
M  CHG  1  21   1
M  END
> <Name>
ZINC00481078

> <reference>
BDB5195

> <quality>
0.756

> <status>
decoy

$$$$
ZINC08739346
  SciTegic06141217593D

 35 36  0  0  0  0            999 V2000
    2.8099   -4.2639    9.8749 C   0  0  0  0  0  0  0  0  0  0  0  0
    1.7621   -4.3693    8.7650 C   0  0  0  0  0  0  0  0  0  0  0  0
    1.8308   -3.2092    7.9334 O   0  0  0  0  0  0  0  0  0  0  0  0
    0.9665   -3.1448    6.8993 C   0  0  0  0  0  0  0  0  0  0  0  0
    0.1763   -4.0501    6.7098 O   0  0  0  0  0  0  0  0  0  0  0  0
    0.9798   -1.9864    6.0060 C   0  0  0  0  0  0  0  0  0  0  0  0
    0.1927   -1.7406    4.9180 C   0  0  0  0  0  0  0  0  0  0  0  0
    0.3630   -0.5621    4.1888 C   0  0  0  0  0  0  0  0  0  0  0  0
    1.3746    0.3103    4.6564 C   0  0  0  0  0  0  0  0  0  0  0  0
    2.0284   -0.5435    6.0689 S   0  0  0  0  0  0  0  0  0  0  0  0
    1.6394    1.4606    4.0562 N   0  0  0  0  0  0  0  0  0  0  0  0
    0.9735    1.8505    2.9926 C   0  0  0  0  0  0  0  0  0  0  0  0
   -0.0203    1.0939    2.4537 N   0  0  0  0  0  0  0  0  0  0  0  0
   -0.3696   -0.0901    2.9929 C   0  0  0  0  0  0  0  0  0  0  0  0
   -1.2644   -0.7578    2.5057 O   0  0  0  0  0  0  0  0  0  0  0  0
   -0.7288    1.5792    1.2668 C   0  0  0  0  0  0  0  0  0  0  0  0
   -0.0127    1.0858    0.0080 C   0  0  0  0  0  0  0  0  0  0  0  0
    1.2839    3.0319    2.4198 O   0  5  0  0  0  0  0  0  0  0  0  0
   -0.8580   -2.7389    4.5052 C   0  0  0  0  0  0  0  0  0  0  0  0
   -0.7207    1.5974   -1.1788 N   0  3  0  0  0  0  0  0  0  0  0  0
    2.6145   -3.3670   10.4811 H   0  0  0  0  0  0  0  0  0  0  0  0
    3.8126   -4.1926    9.4283 H   0  0  0  0  0  0  0  0  0  0  0  0
    2.7576   -5.1566   10.5154 H   0  0  0  0  0  0  0  0  0  0  0  0
    1.9584   -5.2662    8.1592 H   0  0  0  0  0  0  0  0  0  0  0  0
    0.7593   -4.4406    9.2115 H   0  0  0  0  0  0  0  0  0  0  0  0
   -1.7606    1.1981    1.2742 H   0  0  0  0  0  0  0  0  0  0  0  0
   -0.7441    2.6791    1.2717 H   0  0  0  0  0  0  0  0  0  0  0  0
    1.0233    1.4554    0.0054 H   0  0  0  0  0  0  0  0  0  0  0  0
   -0.0136   -0.0141   -0.0097 H   0  0  0  0  0  0  0  0  0  0  0  0
   -1.4941   -2.8684    5.3933 H   0  0  0  0  0  0  0  0  0  0  0  0
   -0.3127   -3.6823    4.3548 H   0  0  0  0  0  0  0  0  0  0  0  0
   -1.4321   -2.4381    3.6164 H   0  0  0  0  0  0  0  0  0  0  0  0
   -0.7207    2.6273   -1.1667 H   0  0  0  0  0  0  0  0  0  0  0  0
   -1.6914    1.2528   -1.1801 H   0  0  0  0  0  0  0  0  0  0  0  0
   -0.2420    1.2677   -2.0291 H   0  0  0  0  0  0  0  0  0  0  0  0
  1  2  1  0  0  0  0
  2  3  1  0  0  0  0
  3  4  1  0  0  0  0
  4  5  2  0  0  0  0
  4  6  1  0  0  0  0
  6 10  1  0  0  0  0
  6  7  2  0  0  0  0
  7  8  1  0  0  0  0
  7 19  1  0  0  0  0
  8 14  1  0  0  0  0
  8  9  2  0  0  0  0
  9 10  1  0  0  0  0
  9 11  1  0  0  0  0
 11 12  2  0  0  0  0
 12 13  1  0  0  0  0
 12 18  1  0  0  0  0
 13 14  1  0  0  0  0
 13 16  1  0  0  0  0
 14 15  2  0  0  0  0
 16 17  1  0  0  0  0
 17 20  1  0  0  0  0
  1 21  1  0  0  0  0
  1 22  1  0  0  0  0
  1 23  1  0  0  0  0
  2 24  1  0  0  0  0
  2 25  1  0  0  0  0
 16 26  1  0  0  0  0
 16 27  1  0  0  0  0
 17 28  1  0  0  0  0
 17 29  1  0  0  0  0
 19 30  1  0  0  0  0
 19 31  1  0  0  0  0
 19 32  1  0  0  0  0
 20 33  1  0  0  0  0
 20 34  1  0  0  0  0
 20 35  1  0  0  0  0
M  CHG  2  18  -1  20   1
M  END
> <Name>
ZINC08739346

> <reference>
BDB4983

> <quality>
0.866

> <status>
decoy

$$$$
ZINC05114539
  SciTegic06141217593D

 40 42  0  0  1  0            999 V2000
    7.0786    2.3805    3.0787 C   0  0  0  0  0  0  0  0  0  0  0  0
    6.1957    3.6259    2.9770 C   0  0  1  0  0  0  0  0  0  0  0  0
    6.1496    4.1009    1.5353 C   0  0  0  0  0  0  0  0  0  0  0  0
    6.8327    5.0284    1.1533 O   0  0  0  0  0  0  0  0  0  0  0  0
    5.2457    3.3933    0.6251 C   0  0  0  0  0  0  0  0  0  0  0  0
    4.2107    2.5643    1.0958 C   0  0  0  0  0  0  0  0  0  0  0  0
    3.5531    2.0599   -0.0208 C   0  0  0  0  0  0  0  0  0  0  0  0
    4.1797    2.5621   -1.1218 C   0  0  0  0  0  0  0  0  0  0  0  0
    5.1980    3.3752   -0.7356 N   0  0  0  0  0  0  0  0  0  0  0  0
    5.8843    3.9424   -1.9109 C   0  0  0  0  0  0  0  0  0  0  0  0
    5.4767    3.0459   -3.1022 C   0  0  1  0  0  0  0  0  0  0  0  0
    4.1071    2.5063   -2.6346 C   0  0  2  0  0  0  0  0  0  0  0  0
    3.0490    3.3378   -3.1152 O   0  0  0  0  0  0  0  0  0  0  0  0
    2.3706    1.1257   -0.0145 C   0  0  0  0  0  0  0  0  0  0  0  0
    1.1423    1.8999    0.0014 O   0  0  0  0  0  0  0  0  0  0  0  0
   -0.0144    1.2109    0.0087 C   0  0  0  0  0  0  0  0  0  0  0  0
    0.0021   -0.0041    0.0020 O   0  0  0  0  0  0  0  0  0  0  0  0
   -1.1906    1.8689    0.0179 N   0  0  0  0  0  0  0  0  0  0  0  0
    3.9915    2.3635    2.5466 C   0  0  0  0  0  0  0  0  0  0  0  0
    3.2339    1.5232    2.9888 O   0  0  0  0  0  0  0  0  0  0  0  0
    4.7862    3.2880    3.4250 C   0  0  0  0  0  0  0  0  0  0  0  0
    4.2952    3.7694    4.5052 N   0  0  0  0  0  0  0  0  0  0  0  0
    5.3215    3.8615   -4.3196 N   0  3  0  0  0  0  0  0  0  0  0  0
    6.6700    1.5877    2.4349 H   0  0  0  0  0  0  0  0  0  0  0  0
    7.0999    2.0302    4.1212 H   0  0  0  0  0  0  0  0  0  0  0  0
    8.1004    2.6260    2.7538 H   0  0  0  0  0  0  0  0  0  0  0  0
    6.6131    4.4161    3.6184 H   0  0  0  0  0  0  0  0  0  0  0  0
    6.9742    3.9020   -1.7680 H   0  0  0  0  0  0  0  0  0  0  0  0
    5.5437    4.9738   -2.0848 H   0  0  0  0  0  0  0  0  0  0  0  0
    6.2061    2.2606   -3.3499 H   0  0  0  0  0  0  0  0  0  0  0  0
    3.9038    1.4927   -3.0106 H   0  0  0  0  0  0  0  0  0  0  0  0
    3.2137    4.2703   -2.8265 H   0  0  0  0  0  0  0  0  0  0  0  0
    2.3953    0.4967   -0.9166 H   0  0  0  0  0  0  0  0  0  0  0  0
    2.4118    0.4863    0.8797 H   0  0  0  0  0  0  0  0  0  0  0  0
   -1.2046    2.8988    0.0193 H   0  0  0  0  0  0  0  0  0  0  0  0
   -2.0755    1.3418    0.0235 H   0  0  0  0  0  0  0  0  0  0  0  0
    4.8755    4.3991    5.0775 H   0  0  0  0  0  0  0  0  0  0  0  0
    6.2146    4.3288   -4.5314 H   0  0  0  0  0  0  0  0  0  0  0  0
    4.5942    4.5734   -4.1610 H   0  0  0  0  0  0  0  0  0  0  0  0
    5.0500    3.2599   -5.1103 H   0  0  0  0  0  0  0  0  0  0  0  0
  1  2  1  0  0  0  0
  2 21  1  0  0  0  0
  2  3  1  0  0  0  0
  3  4  2  0  0  0  0
  3  5  1  0  0  0  0
  5  9  1  0  0  0  0
  5  6  2  0  0  0  0
  6  7  1  0  0  0  0
  6 19  1  0  0  0  0
  7  8  2  0  0  0  0
  7 14  1  0  0  0  0
  8 12  1  0  0  0  0
  8  9  1  0  0  0  0
  9 10  1  0  0  0  0
 10 11  1  0  0  0  0
 11 12  1  0  0  0  0
 11 23  1  0  0  0  0
 12 13  1  0  0  0  0
 14 15  1  0  0  0  0
 15 16  1  0  0  0  0
 16 17  2  0  0  0  0
 16 18  1  0  0  0  0
 19 20  2  0  0  0  0
 19 21  1  0  0  0  0
 21 22  2  0  0  0  0
  1 24  1  0  0  0  0
  1 25  1  0  0  0  0
  1 26  1  0  0  0  0
  2 27  1  0  0  0  0
 10 28  1  0  0  0  0
 10 29  1  0  0  0  0
 11 30  1  0  0  0  0
 12 31  1  0  0  0  0
 13 32  1  0  0  0  0
 14 33  1  0  0  0  0
 14 34  1  0  0  0  0
 18 35  1  0  0  0  0
 18 36  1  0  0  0  0
 22 37  1  0  0  0  0
 23 38  1  0  0  0  0
 23 39  1  0  0  0  0
 23 40  1  0  0  0  0
M  CHG  1  23   1
M  END
> <Name>
ZINC05114539

> <reference>
BDB4977

> <quality>
0.711

> <status>
decoy

$$$$
ZINC19786946
  SciTegic06141217593D

 44 45  0  0  1  0            999 V2000
   -2.3900    0.7675   -1.6969 C   0  0  0  0  0  0  0  0  0  0  0  0
   -1.8816    2.1730   -1.3700 C   0  0  1  0  0  0  0  0  0  0  0  0
   -3.0528    3.1572   -1.3933 C   0  0  0  0  0  0  0  0  0  0  0  0
   -1.2424    2.1737    0.0200 C   0  0  2  0  0  0  0  0  0  0  0  0
   -0.0156    1.2985    0.0092 C   0  0  0  0  0  0  0  0  0  0  0  0
    0.0021   -0.0041    0.0020 N   0  0  0  0  0  0  0  0  0  0  0  0
    1.2215   -0.4145   -0.0118 N   0  0  0  0  0  0  0  0  0  0  0  0
    2.0232    0.6123   -0.0140 C   0  0  0  0  0  0  0  0  0  0  0  0
    1.2607    1.7185   -0.0007 O   0  0  0  0  0  0  0  0  0  0  0  0
    3.5295    0.5676   -0.0286 C   0  0  0  0  0  0  0  0  0  0  0  0
    3.9927    0.5602   -1.3804 O   0  0  0  0  0  0  0  0  0  0  0  0
    5.3395    0.5210   -1.5718 C   0  0  0  0  0  0  0  0  0  0  0  0
    6.0640    1.7030   -1.6699 C   0  0  0  0  0  0  0  0  0  0  0  0
    7.4370    1.6587   -1.8591 C   0  0  0  0  0  0  0  0  0  0  0  0
    8.0835    0.4413   -1.9617 C   0  0  0  0  0  0  0  0  0  0  0  0
    7.3658   -0.7366   -1.8703 C   0  0  0  0  0  0  0  0  0  0  0  0
    5.9934   -0.7010   -1.6754 C   0  0  0  0  0  0  0  0  0  0  0  0
    5.2882   -1.8603   -1.5852 O   0  0  0  0  0  0  0  0  0  0  0  0
    6.0256   -3.0789   -1.7007 C   0  0  0  0  0  0  0  0  0  0  0  0
    5.4280    2.9013   -1.5747 O   0  0  0  0  0  0  0  0  0  0  0  0
    6.2358    4.0750   -1.6847 C   0  0  0  0  0  0  0  0  0  0  0  0
   -2.2047    1.6559    1.0017 N   0  3  0  0  0  0  0  0  0  0  0  0
   -2.8495    0.7659   -2.6963 H   0  0  0  0  0  0  0  0  0  0  0  0
   -3.1380    0.4640   -0.9496 H   0  0  0  0  0  0  0  0  0  0  0  0
   -1.5484    0.0594   -1.6803 H   0  0  0  0  0  0  0  0  0  0  0  0
   -1.1336    2.4754   -2.1177 H   0  0  0  0  0  0  0  0  0  0  0  0
   -3.8013    2.8558   -0.6458 H   0  0  0  0  0  0  0  0  0  0  0  0
   -3.5129    3.1577   -2.3925 H   0  0  0  0  0  0  0  0  0  0  0  0
   -2.6880    4.1680   -1.1583 H   0  0  0  0  0  0  0  0  0  0  0  0
   -0.9577    3.2008    0.2922 H   0  0  0  0  0  0  0  0  0  0  0  0
    3.9278    1.4521    0.4901 H   0  0  0  0  0  0  0  0  0  0  0  0
    3.8754   -0.3434    0.4817 H   0  0  0  0  0  0  0  0  0  0  0  0
    8.0124    2.5937   -1.9276 H   0  0  0  0  0  0  0  0  0  0  0  0
    9.1721    0.4097   -2.1165 H   0  0  0  0  0  0  0  0  0  0  0  0
    7.8841   -1.7034   -1.9523 H   0  0  0  0  0  0  0  0  0  0  0  0
    6.7912   -3.0531   -0.9113 H   0  0  0  0  0  0  0  0  0  0  0  0
    6.5408   -3.0378   -2.6717 H   0  0  0  0  0  0  0  0  0  0  0  0
    5.3881   -3.9715   -1.6178 H   0  0  0  0  0  0  0  0  0  0  0  0
    6.7481    4.0080   -2.6558 H   0  0  0  0  0  0  0  0  0  0  0  0
    6.9982    4.0008   -0.8952 H   0  0  0  0  0  0  0  0  0  0  0  0
    5.6518    5.0031   -1.5980 H   0  0  0  0  0  0  0  0  0  0  0  0
   -2.4717    0.6940    0.7479 H   0  0  0  0  0  0  0  0  0  0  0  0
   -3.0435    2.2536    1.0100 H   0  0  0  0  0  0  0  0  0  0  0  0
   -1.7750    1.6561    1.9378 H   0  0  0  0  0  0  0  0  0  0  0  0
  1  2  1  0  0  0  0
  2  3  1  0  0  0  0
  2  4  1  0  0  0  0
  4  5  1  0  0  0  0
  4 22  1  0  0  0  0
  5  9  1  0  0  0  0
  5  6  2  0  0  0  0
  6  7  1  0  0  0  0
  7  8  2  0  0  0  0
  8  9  1  0  0  0  0
  8 10  1  0  0  0  0
 10 11  1  0  0  0  0
 11 12  1  0  0  0  0
 12 17  2  0  0  0  0
 12 13  1  0  0  0  0
 13 14  2  0  0  0  0
 13 20  1  0  0  0  0
 14 15  1  0  0  0  0
 15 16  2  0  0  0  0
 16 17  1  0  0  0  0
 17 18  1  0  0  0  0
 18 19  1  0  0  0  0
 20 21  1  0  0  0  0
  1 23  1  0  0  0  0
  1 24  1  0  0  0  0
  1 25  1  0  0  0  0
  2 26  1  0  0  0  0
  3 27  1  0  0  0  0
  3 28  1  0  0  0  0
  3 29  1  0  0  0  0
  4 30  1  0  0  0  0
 10 31  1  0  0  0  0
 10 32  1  0  0  0  0
 14 33  1  0  0  0  0
 15 34  1  0  0  0  0
 16 35  1  0  0  0  0
 19 36  1  0  0  0  0
 19 37  1  0  0  0  0
 19 38  1  0  0  0  0
 21 39  1  0  0  0  0
 21 40  1  0  0  0  0
 21 41  1  0  0  0  0
 22 42  1  0  0  0  0
 22 43  1  0  0  0  0
 22 44  1  0  0  0  0
M  CHG  1  22   1
M  END
> <Name>
ZINC19786946

> <reference>
BDB5025

> <quality>
0.745

> <status>
decoy

$$$$
ZINC23365452
  SciTegic06141217593D

 51 53  0  0  0  0            999 V2000
   -2.9422    0.9713    4.5088 C   0  0  0  0  0  0  0  0  0  0  0  0
   -2.1153    1.5503    3.3897 C   0  0  0  0  0  0  0  0  0  0  0  0
   -2.7337    2.2157    2.3468 C   0  0  0  0  0  0  0  0  0  0  0  0
   -1.9791    2.7433    1.3154 C   0  0  0  0  0  0  0  0  0  0  0  0
   -0.6041    2.6114    1.3261 C   0  0  0  0  0  0  0  0  0  0  0  0
    0.0201    1.9485    2.3743 C   0  0  0  0  0  0  0  0  0  0  0  0
   -0.7407    1.4200    3.4092 C   0  0  0  0  0  0  0  0  0  0  0  0
   -0.0673    0.6998    4.5489 C   0  0  0  0  0  0  0  0  0  0  0  0
    1.4128    1.8135    2.3883 N   0  0  0  0  0  0  0  0  0  0  0  0
    2.1209    2.2443    3.4511 C   0  0  0  0  0  0  0  0  0  0  0  0
    1.5581    2.8038    4.3683 O   0  0  0  0  0  0  0  0  0  0  0  0
    3.6119    2.0309    3.4997 C   0  0  0  0  0  0  0  0  0  0  0  0
    4.2693    2.7148    5.0412 S   0  0  0  0  0  0  0  0  0  0  0  0
    5.9786    2.3379    4.8387 C   0  0  0  0  0  0  0  0  0  0  0  0
    6.5272    1.7265    3.8146 N   0  0  0  0  0  0  0  0  0  0  0  0
    7.7945    1.6179    3.9986 N   0  0  0  0  0  0  0  0  0  0  0  0
    8.1278    2.1487    5.1410 C   0  0  0  0  0  0  0  0  0  0  0  0
    6.9840    2.6317    5.7145 N   0  0  0  0  0  0  0  0  0  0  0  0
    6.8624    3.3185    7.0028 C   0  0  0  0  0  0  0  0  0  0  0  0
    6.6189    2.2894    8.1085 C   0  0  0  0  0  0  0  0  0  0  0  0
    6.4938    2.9960    9.4337 C   0  0  0  0  0  0  0  0  0  0  0  0
    6.5899    4.2037    9.4884 O   0  0  0  0  0  0  0  0  0  0  0  0
    6.2750    2.2857   10.5580 N   0  0  0  0  0  0  0  0  0  0  0  0
    9.5171    2.2225    5.7200 C   0  0  2  0  0  0  0  0  0  0  0  0
   10.6814    1.8084    4.8178 C   0  0  0  0  0  0  0  0  0  0  0  0
   10.2481    0.9025    5.9730 C   0  0  0  0  0  0  0  0  0  0  0  0
    0.2030    3.1765    0.2215 N   0  0  0  0  0  0  0  0  0  0  0  0
   -0.3332    3.8437   -0.6450 O   0  0  0  0  0  0  0  0  0  0  0  0
    1.4033    2.9743    0.1790 O   0  0  0  0  0  0  0  0  0  0  0  0
   -2.5446    1.4309    5.4257 H   0  0  0  0  0  0  0  0  0  0  0  0
   -2.6768   -0.0958    4.5382 H   0  0  0  0  0  0  0  0  0  0  0  0
   -4.0240    1.1328    4.3920 H   0  0  0  0  0  0  0  0  0  0  0  0
   -3.8282    2.3254    2.3379 H   0  0  0  0  0  0  0  0  0  0  0  0
   -2.4742    3.2687    0.4854 H   0  0  0  0  0  0  0  0  0  0  0  0
   -0.5292   -0.2983    4.5687 H   0  0  0  0  0  0  0  0  0  0  0  0
   -0.3970    1.2285    5.4554 H   0  0  0  0  0  0  0  0  0  0  0  0
    1.0284    0.6553    4.4622 H   0  0  0  0  0  0  0  0  0  0  0  0
    1.8968    1.3849    1.5864 H   0  0  0  0  0  0  0  0  0  0  0  0
    3.8300    0.9537    3.4548 H   0  0  0  0  0  0  0  0  0  0  0  0
    4.0839    2.5366    2.6445 H   0  0  0  0  0  0  0  0  0  0  0  0
    7.7907    3.8697    7.2137 H   0  0  0  0  0  0  0  0  0  0  0  0
    6.0181    4.0227    6.9659 H   0  0  0  0  0  0  0  0  0  0  0  0
    7.4629    1.5850    8.1477 H   0  0  0  0  0  0  0  0  0  0  0  0
    5.6905    1.7381    7.8985 H   0  0  0  0  0  0  0  0  0  0  0  0
    6.1933    1.2600   10.5115 H   0  0  0  0  0  0  0  0  0  0  0  0
    6.1895    2.7686   11.4638 H   0  0  0  0  0  0  0  0  0  0  0  0
    9.2795    3.1091    6.3262 H   0  0  0  0  0  0  0  0  0  0  0  0
   11.5994    2.3624    5.0635 H   0  0  0  0  0  0  0  0  0  0  0  0
   10.3251    1.4251    3.8503 H   0  0  0  0  0  0  0  0  0  0  0  0
    9.6647    0.0424    5.6128 H   0  0  0  0  0  0  0  0  0  0  0  0
   10.9377    0.9807    6.8264 H   0  0  0  0  0  0  0  0  0  0  0  0
  1  2  1  0  0  0  0
  2  7  2  0  0  0  0
  2  3  1  0  0  0  0
  3  4  2  0  0  0  0
  4  5  1  0  0  0  0
  5  6  2  0  0  0  0
  5 27  1  0  0  0  0
  6  7  1  0  0  0  0
  6  9  1  0  0  0  0
  7  8  1  0  0  0  0
  9 10  1  0  0  0  0
 10 11  2  0  0  0  0
 10 12  1  0  0  0  0
 12 13  1  0  0  0  0
 13 14  1  0  0  0  0
 14 18  1  0  0  0  0
 14 15  2  0  0  0  0
 15 16  1  0  0  0  0
 16 17  2  0  0  0  0
 17 18  1  0  0  0  0
 17 24  1  0  0  0  0
 18 19  1  0  0  0  0
 19 20  1  0  0  0  0
 20 21  1  0  0  0  0
 21 22  2  0  0  0  0
 21 23  1  0  0  0  0
 24 26  1  0  0  0  0
 24 25  1  0  0  0  0
 25 26  1  0  0  0  0
 27 28  2  0  0  0  0
 27 29  2  0  0  0  0
  1 30  1  0  0  0  0
  1 31  1  0  0  0  0
  1 32  1  0  0  0  0
  3 33  1  0  0  0  0
  4 34  1  0  0  0  0
  8 35  1  0  0  0  0
  8 36  1  0  0  0  0
  8 37  1  0  0  0  0
  9 38  1  0  0  0  0
 12 39  1  0  0  0  0
 12 40  1  0  0  0  0
 19 41  1  0  0  0  0
 19 42  1  0  0  0  0
 20 43  1  0  0  0  0
 20 44  1  0  0  0  0
 23 45  1  0  0  0  0
 23 46  1  0  0  0  0
 24 47  1  0  0  0  0
 25 48  1  0  0  0  0
 25 49  1  0  0  0  0
 26 50  1  0  0  0  0
 26 51  1  0  0  0  0
M  END
> <Name>
ZINC23365452

> <reference>
BDB4965

> <quality>
0.690

> <status>
decoy

$$$$
ZINC01591785
  SciTegic06141217593D

 37 37  0  0  1  0            999 V2000
    1.3320    1.8776   -0.0005 C   0  0  0  0  0  0  0  0  0  0  0  0
    1.5860    3.2288    0.0042 N   0  0  0  0  0  0  0  0  0  0  0  0
    0.0349    1.4219    0.0094 N   0  0  0  0  0  0  0  0  0  0  0  0
   -1.0766    2.3762    0.0190 C   0  0  0  0  0  0  0  0  0  0  0  0
   -2.4032    1.6140    0.0220 C   0  0  0  0  0  0  0  0  0  0  0  0
   -3.5641    2.6106    0.0321 C   0  0  0  0  0  0  0  0  0  0  0  0
   -4.8906    1.8482    0.0350 C   0  0  1  0  0  0  0  0  0  0  0  0
   -6.0307    2.8246    0.1687 C   0  0  0  0  0  0  0  0  0  0  0  0
   -6.8727    2.8922   -0.6952 O   0  0  0  0  0  0  0  0  0  0  0  0
   -5.0293    1.1044   -1.2195 N   0  0  0  0  0  0  0  0  0  0  0  0
   -5.1467   -0.1832   -1.1981 C   0  0  0  0  0  0  0  0  0  0  0  0
   -5.2865   -0.9327   -2.4622 C   0  0  0  0  0  0  0  0  0  0  0  0
   -5.2979   -0.2539   -3.6824 C   0  0  0  0  0  0  0  0  0  0  0  0
   -5.4235   -0.9610   -4.8602 C   0  0  0  0  0  0  0  0  0  0  0  0
   -5.5494   -2.3387   -4.8336 C   0  0  0  0  0  0  0  0  0  0  0  0
   -5.5442   -3.0171   -3.6278 C   0  0  0  0  0  0  0  0  0  0  0  0
   -5.4136   -2.3230   -2.4428 C   0  0  0  0  0  0  0  0  0  0  0  0
    2.2919    0.9641   -0.0146 N   0  3  0  0  0  0  0  0  0  0  0  0
   -6.1109    3.6192    1.2477 O   0  5  0  0  0  0  0  0  0  0  0  0
    0.8045    3.8997    0.0151 H   0  0  0  0  0  0  0  0  0  0  0  0
    2.5578    3.5702   -0.0032 H   0  0  0  0  0  0  0  0  0  0  0  0
   -0.1554    0.4096    0.0101 H   0  0  0  0  0  0  0  0  0  0  0  0
   -1.0131    3.0042    0.9199 H   0  0  0  0  0  0  0  0  0  0  0  0
   -1.0224    3.0129   -0.8764 H   0  0  0  0  0  0  0  0  0  0  0  0
   -2.4675    0.9861   -0.8789 H   0  0  0  0  0  0  0  0  0  0  0  0
   -2.4596    0.9775    0.9173 H   0  0  0  0  0  0  0  0  0  0  0  0
   -3.5100    3.2474   -0.8632 H   0  0  0  0  0  0  0  0  0  0  0  0
   -3.5007    3.2385    0.9331 H   0  0  0  0  0  0  0  0  0  0  0  0
   -4.9080    1.1459    0.8814 H   0  0  0  0  0  0  0  0  0  0  0  0
   -5.1424   -0.7200   -0.2380 H   0  0  0  0  0  0  0  0  0  0  0  0
   -5.2069    0.8421   -3.7044 H   0  0  0  0  0  0  0  0  0  0  0  0
   -5.4236   -0.4284   -5.8227 H   0  0  0  0  0  0  0  0  0  0  0  0
   -5.6541   -2.8972   -5.7755 H   0  0  0  0  0  0  0  0  0  0  0  0
   -5.6444   -4.1124   -3.6140 H   0  0  0  0  0  0  0  0  0  0  0  0
   -5.4096   -2.8636   -1.4848 H   0  0  0  0  0  0  0  0  0  0  0  0
    3.2682    1.2922   -0.0223 H   0  0  0  0  0  0  0  0  0  0  0  0
    2.0769   -0.0432   -0.0179 H   0  0  0  0  0  0  0  0  0  0  0  0
  1  2  1  0  0  0  0
  1  3  1  0  0  0  0
  1 18  2  0  0  0  0
  3  4  1  0  0  0  0
  4  5  1  0  0  0  0
  5  6  1  0  0  0  0
  6  7  1  0  0  0  0
  7  8  1  0  0  0  0
  7 10  1  0  0  0  0
  8  9  2  0  0  0  0
  8 19  1  0  0  0  0
 10 11  2  0  0  0  0
 11 12  1  0  0  0  0
 12 17  2  0  0  0  0
 12 13  1  0  0  0  0
 13 14  2  0  0  0  0
 14 15  1  0  0  0  0
 15 16  2  0  0  0  0
 16 17  1  0  0  0  0
  2 20  1  0  0  0  0
  2 21  1  0  0  0  0
  3 22  1  0  0  0  0
  4 23  1  0  0  0  0
  4 24  1  0  0  0  0
  5 25  1  0  0  0  0
  5 26  1  0  0  0  0
  6 27  1  0  0  0  0
  6 28  1  0  0  0  0
  7 29  1  0  0  0  0
 11 30  1  0  0  0  0
 13 31  1  0  0  0  0
 14 32  1  0  0  0  0
 15 33  1  0  0  0  0
 16 34  1  0  0  0  0
 17 35  1  0  0  0  0
 18 36  1  0  0  0  0
 18 37  1  0  0  0  0
M  CHG  2  18   1  19  -1
M  END
> <Name>
ZINC01591785

> <reference>
BDB4986

> <quality>
0.745

> <status>
decoy

$$$$
ZINC27856025
  SciTegic06141217593D

 63 66  0  0  1  0            999 V2000
   -6.2647    4.5202    4.7469 C   0  0  0  0  0  0  0  0  0  0  0  0
   -6.6964    4.6685    6.0498 C   0  0  0  0  0  0  0  0  0  0  0  0
   -5.7716    4.7573    7.0817 C   0  0  0  0  0  0  0  0  0  0  0  0
   -4.4127    4.6917    6.8038 C   0  0  0  0  0  0  0  0  0  0  0  0
   -3.9811    4.5376    5.5016 C   0  0  0  0  0  0  0  0  0  0  0  0
   -4.9059    4.4488    4.4696 C   0  0  0  0  0  0  0  0  0  0  0  0
   -4.4680    4.2930    3.1480 N   0  0  0  0  0  0  0  0  0  0  0  0
   -3.3677    3.5605    2.8846 C   0  0  0  0  0  0  0  0  0  0  0  0
   -2.7092    3.1060    3.7962 O   0  0  0  0  0  0  0  0  0  0  0  0
   -2.9558    3.3060    1.4575 C   0  0  0  0  0  0  0  0  0  0  0  0
   -1.6843    2.4552    1.4377 C   0  0  0  0  0  0  0  0  0  0  0  0
   -1.2660    2.1969   -0.0111 C   0  0  0  0  0  0  0  0  0  0  0  0
   -0.0486    1.3822   -0.0301 N   0  0  0  0  0  0  0  0  0  0  0  0
   -0.0389    0.0319   -0.0538 C   0  0  0  0  0  0  0  0  0  0  0  0
   -0.9972   -0.7106   -0.0585 O   0  0  0  0  0  0  0  0  0  0  0  0
    1.4179   -0.3550   -0.0731 C   0  0  2  0  0  0  0  0  0  0  0  0
    1.7566   -1.1655   -1.3313 C   0  0  0  0  0  0  0  0  0  0  0  0
    2.8235   -2.1814   -0.8468 C   0  0  0  0  0  0  0  0  0  0  0  0
    2.3317   -2.5451    0.5770 C   0  0  0  0  0  0  0  0  0  0  0  0
    1.7806   -1.2158    1.1393 C   0  0  0  0  0  0  0  0  0  0  0  0
    2.1363    0.9208   -0.0568 N   0  5  0  0  0  0  0  0  0  0  0  0
    1.1932    1.8839   -0.0318 C   0  0  0  0  0  0  0  0  0  0  0  0
    1.4419    3.0734   -0.0135 O   0  0  0  0  0  0  0  0  0  0  0  0
   -6.2096    4.9136    8.4034 N   0  0  0  0  0  0  0  0  0  0  0  0
   -7.3443    4.3125    8.8129 C   0  0  0  0  0  0  0  0  0  0  0  0
   -8.0320    3.7044    8.0155 O   0  0  0  0  0  0  0  0  0  0  0  0
   -7.7168    4.3856   10.1061 N   0  0  0  0  0  0  0  0  0  0  0  0
   -8.9502    3.7322   10.5511 C   0  0  0  0  0  0  0  0  0  0  0  0
   -9.1387    3.9665   12.0513 C   0  0  2  0  0  0  0  0  0  0  0  0
  -10.3657    3.1828   12.5679 C   0  0  0  0  0  0  0  0  0  0  0  0
  -10.9988    4.1250   13.6161 C   0  0  0  0  0  0  0  0  0  0  0  0
  -10.0795    5.3665   13.6087 C   0  0  0  0  0  0  0  0  0  0  0  0
   -9.4514    5.3528   12.3083 O   0  0  0  0  0  0  0  0  0  0  0  0
   -6.9971    4.4586    3.9285 H   0  0  0  0  0  0  0  0  0  0  0  0
   -7.7730    4.7163    6.2704 H   0  0  0  0  0  0  0  0  0  0  0  0
   -3.6801    4.7625    7.6213 H   0  0  0  0  0  0  0  0  0  0  0  0
   -2.9046    4.4852    5.2815 H   0  0  0  0  0  0  0  0  0  0  0  0
   -4.9869    4.7382    2.3777 H   0  0  0  0  0  0  0  0  0  0  0  0
   -3.7618    2.7721    0.9327 H   0  0  0  0  0  0  0  0  0  0  0  0
   -2.7625    4.2647    0.9540 H   0  0  0  0  0  0  0  0  0  0  0  0
   -0.8778    2.9887    1.9621 H   0  0  0  0  0  0  0  0  0  0  0  0
   -1.8761    1.4955    1.9398 H   0  0  0  0  0  0  0  0  0  0  0  0
   -2.0720    1.6631   -0.5360 H   0  0  0  0  0  0  0  0  0  0  0  0
   -1.0726    3.1556   -0.5146 H   0  0  0  0  0  0  0  0  0  0  0  0
    2.1835   -0.5085   -2.1034 H   0  0  0  0  0  0  0  0  0  0  0  0
    0.8638   -1.6977   -1.6914 H   0  0  0  0  0  0  0  0  0  0  0  0
    2.8200   -3.0737   -1.4901 H   0  0  0  0  0  0  0  0  0  0  0  0
    3.8124   -1.7023   -0.7968 H   0  0  0  0  0  0  0  0  0  0  0  0
    3.1743   -2.8948    1.1916 H   0  0  0  0  0  0  0  0  0  0  0  0
    1.5276   -3.2936    0.5200 H   0  0  0  0  0  0  0  0  0  0  0  0
    0.8824   -1.4101    1.7439 H   0  0  0  0  0  0  0  0  0  0  0  0
    2.5554   -0.7133    1.7369 H   0  0  0  0  0  0  0  0  0  0  0  0
   -5.6644    5.4879    9.0621 H   0  0  0  0  0  0  0  0  0  0  0  0
   -7.1343    4.9008   10.7815 H   0  0  0  0  0  0  0  0  0  0  0  0
   -8.8856    2.6518   10.3548 H   0  0  0  0  0  0  0  0  0  0  0  0
   -9.8065    4.1537   10.0043 H   0  0  0  0  0  0  0  0  0  0  0  0
   -8.2064    3.6519   12.5430 H   0  0  0  0  0  0  0  0  0  0  0  0
  -10.0441    2.2462   13.0468 H   0  0  0  0  0  0  0  0  0  0  0  0
  -11.0735    3.0020   11.7455 H   0  0  0  0  0  0  0  0  0  0  0  0
  -10.9866    3.6515   14.6089 H   0  0  0  0  0  0  0  0  0  0  0  0
  -12.0164    4.4061   13.3072 H   0  0  0  0  0  0  0  0  0  0  0  0
  -10.6802    6.2801   13.7294 H   0  0  0  0  0  0  0  0  0  0  0  0
   -9.3182    5.2767   14.3976 H   0  0  0  0  0  0  0  0  0  0  0  0
  1  6  2  0  0  0  0
  1  2  1  0  0  0  0
  2  3  2  0  0  0  0
  3  4  1  0  0  0  0
  3 24  1  0  0  0  0
  4  5  2  0  0  0  0
  5  6  1  0  0  0  0
  6  7  1  0  0  0  0
  7  8  1  0  0  0  0
  8  9  2  0  0  0  0
  8 10  1  0  0  0  0
 10 11  1  0  0  0  0
 11 12  1  0  0  0  0
 12 13  1  0  0  0  0
 13 22  1  0  0  0  0
 13 14  1  0  0  0  0
 14 15  2  0  0  0  0
 14 16  1  0  0  0  0
 16 20  1  0  0  0  0
 16 17  1  0  0  0  0
 16 21  1  0  0  0  0
 17 18  1  0  0  0  0
 18 19  1  0  0  0  0
 19 20  1  0  0  0  0
 21 22  1  0  0  0  0
 22 23  2  0  0  0  0
 24 25  1  0  0  0  0
 25 26  2  0  0  0  0
 25 27  1  0  0  0  0
 27 28  1  0  0  0  0
 28 29  1  0  0  0  0
 29 33  1  0  0  0  0
 29 30  1  0  0  0  0
 30 31  1  0  0  0  0
 31 32  1  0  0  0  0
 32 33  1  0  0  0  0
  1 34  1  0  0  0  0
  2 35  1  0  0  0  0
  4 36  1  0  0  0  0
  5 37  1  0  0  0  0
  7 38  1  0  0  0  0
 10 39  1  0  0  0  0
 10 40  1  0  0  0  0
 11 41  1  0  0  0  0
 11 42  1  0  0  0  0
 12 43  1  0  0  0  0
 12 44  1  0  0  0  0
 17 45  1  0  0  0  0
 17 46  1  0  0  0  0
 18 47  1  0  0  0  0
 18 48  1  0  0  0  0
 19 49  1  0  0  0  0
 19 50  1  0  0  0  0
 20 51  1  0  0  0  0
 20 52  1  0  0  0  0
 24 53  1  0  0  0  0
 27 54  1  0  0  0  0
 28 55  1  0  0  0  0
 28 56  1  0  0  0  0
 29 57  1  0  0  0  0
 30 58  1  0  0  0  0
 30 59  1  0  0  0  0
 31 60  1  0  0  0  0
 31 61  1  0  0  0  0
 32 62  1  0  0  0  0
 32 63  1  0  0  0  0
M  CHG  1  21  -1
M  END
> <Name>
ZINC27856025

> <reference>
BDB4968

> <quality>
0.733

> <status>
decoy

$$$$
ZINC01187537
  SciTegic06141217593D

 18 18  0  0  0  0            999 V2000
   -0.4594   -4.2513   -0.0177 C   0  0  0  0  0  0  0  0  0  0  0  0
   -0.0283   -2.9757   -0.0197 N   0  5  0  0  0  0  0  0  0  0  0  0
   -1.1358   -2.1665    0.0013 C   0  0  0  0  0  0  0  0  0  0  0  0
   -2.2342   -3.0157    0.0072 C   0  0  0  0  0  0  0  0  0  0  0  0
   -1.7641   -4.2741   -0.0049 N   0  0  0  0  0  0  0  0  0  0  0  0
   -3.6561   -2.6106    0.0230 C   0  0  0  0  0  0  0  0  0  0  0  0
   -3.9521   -1.4317    0.0321 O   0  0  0  0  0  0  0  0  0  0  0  0
   -4.6240   -3.5485    0.0272 N   0  0  0  0  0  0  0  0  0  0  0  0
   -5.9857   -3.1606    0.0423 O   0  0  0  0  0  0  0  0  0  0  0  0
   -1.1558   -0.6938    0.0094 C   0  0  0  0  0  0  0  0  0  0  0  0
   -2.2171   -0.1001    0.0227 O   0  0  0  0  0  0  0  0  0  0  0  0
    0.0021   -0.0041    0.0020 N   0  0  0  0  0  0  0  0  0  0  0  0
   -0.0171    1.4118    0.0098 O   0  0  0  0  0  0  0  0  0  0  0  0
    0.1897   -5.1394   -0.0256 H   0  0  0  0  0  0  0  0  0  0  0  0
   -4.3731   -4.5475    0.0194 H   0  0  0  0  0  0  0  0  0  0  0  0
   -6.0960   -2.5779   -0.7504 H   0  0  0  0  0  0  0  0  0  0  0  0
    0.9010   -0.5069   -0.0093 H   0  0  0  0  0  0  0  0  0  0  0  0
   -0.5410    1.6576    0.8131 H   0  0  0  0  0  0  0  0  0  0  0  0
  1  5  2  0  0  0  0
  1  2  1  0  0  0  0
  2  3  1  0  0  0  0
  3  4  2  0  0  0  0
  3 10  1  0  0  0  0
  4  5  1  0  0  0  0
  4  6  1  0  0  0  0
  6  7  2  0  0  0  0
  6  8  1  0  0  0  0
  8  9  1  0  0  0  0
 10 11  2  0  0  0  0
 10 12  1  0  0  0  0
 12 13  1  0  0  0  0
  1 14  1  0  0  0  0
  8 15  1  0  0  0  0
  9 16  1  0  0  0  0
 12 17  1  0  0  0  0
 13 18  1  0  0  0  0
M  CHG  1   2  -1
M  END
> <Name>
ZINC01187537

> <reference>
BDB5257

> <quality>
0.783

> <status>
decoy

$$$$
ZINC06279516
  SciTegic06141217593D

 38 39  0  0  1  0            999 V2000
    1.1595    3.4082   -4.3998 C   0  0  0  0  0  0  0  0  0  0  0  0
   -0.2556    3.0426   -4.4999 N   0  3  0  0  0  0  0  0  0  0  0  0
   -0.8268    2.3632   -3.5353 C   0  0  0  0  0  0  0  0  0  0  0  0
   -0.0535    1.8515   -2.3847 C   0  0  0  0  0  0  0  0  0  0  0  0
   -0.7483    1.6112   -1.2024 C   0  0  0  0  0  0  0  0  0  0  0  0
   -2.1358    1.8272   -1.1677 C   0  0  0  0  0  0  0  0  0  0  0  0
   -2.8445    2.0928   -2.3454 C   0  0  0  0  0  0  0  0  0  0  0  0
   -2.1881    2.0888   -3.5451 N   0  0  0  0  0  0  0  0  0  0  0  0
   -4.1844    2.3488   -2.2974 N   0  0  0  0  0  0  0  0  0  0  0  0
   -2.8311    1.7808    0.0833 C   0  0  0  0  0  0  0  0  0  0  0  0
   -3.3827    1.7439    1.0757 N   0  0  0  0  0  0  0  0  0  0  0  0
   -0.0218    1.1197    0.0231 C   0  0  0  0  0  0  0  0  0  0  0  0
   -0.7110    1.6052    1.2298 C   0  0  0  0  0  0  0  0  0  0  0  0
   -1.2429    1.9799    2.1610 N   0  0  0  0  0  0  0  0  0  0  0  0
    1.3551    1.6127   -2.4817 C   0  0  0  0  0  0  0  0  0  0  0  0
    2.4725    1.4232   -2.5587 N   0  0  0  0  0  0  0  0  0  0  0  0
   -1.0323    3.4362   -5.6780 C   0  0  2  0  0  0  0  0  0  0  0  0
   -0.3863    2.8516   -6.9450 C   0  0  0  0  0  0  0  0  0  0  0  0
   -0.9979    3.5142   -8.2030 C   0  0  0  0  0  0  0  0  0  0  0  0
   -1.4967    5.1725   -7.5839 S   0  0  0  0  0  0  0  0  0  0  0  0
   -2.9084    5.2989   -7.6865 O   0  0  0  0  0  0  0  0  0  0  0  0
   -0.6610    6.1576   -8.1758 O   0  0  0  0  0  0  0  0  0  0  0  0
   -1.0391    4.9861   -5.8089 C   0  0  0  0  0  0  0  0  0  0  0  0
    1.6939    2.4568   -4.2615 H   0  0  0  0  0  0  0  0  0  0  0  0
    1.2456    3.9724   -3.4595 H   0  0  0  0  0  0  0  0  0  0  0  0
    1.5327    3.9763   -5.2647 H   0  0  0  0  0  0  0  0  0  0  0  0
   -2.6857    1.8894   -4.4246 H   0  0  0  0  0  0  0  0  0  0  0  0
   -4.6748    2.3464   -1.3916 H   0  0  0  0  0  0  0  0  0  0  0  0
   -4.7044    2.5440   -3.1648 H   0  0  0  0  0  0  0  0  0  0  0  0
   -0.0097    0.0198    0.0259 H   0  0  0  0  0  0  0  0  0  0  0  0
    1.0112    1.4977    0.0146 H   0  0  0  0  0  0  0  0  0  0  0  0
   -2.0594    3.0588   -5.5651 H   0  0  0  0  0  0  0  0  0  0  0  0
   -0.5652    1.7668   -6.9806 H   0  0  0  0  0  0  0  0  0  0  0  0
    0.6972    3.0402   -6.9233 H   0  0  0  0  0  0  0  0  0  0  0  0
   -0.2377    3.6226   -8.9906 H   0  0  0  0  0  0  0  0  0  0  0  0
   -1.8856    2.9590   -8.5402 H   0  0  0  0  0  0  0  0  0  0  0  0
   -1.8188    5.4290   -5.1719 H   0  0  0  0  0  0  0  0  0  0  0  0
   -0.0343    5.3987   -5.6353 H   0  0  0  0  0  0  0  0  0  0  0  0
  1  2  1  0  0  0  0
  2  3  2  0  0  0  0
  2 17  1  0  0  0  0
  3  8  1  0  0  0  0
  3  4  1  0  0  0  0
  4  5  2  0  0  0  0
  4 15  1  0  0  0  0
  5  6  1  0  0  0  0
  5 12  1  0  0  0  0
  6  7  2  0  0  0  0
  6 10  1  0  0  0  0
  7  8  1  0  0  0  0
  7  9  1  0  0  0  0
 10 11  3  0  0  0  0
 12 13  1  0  0  0  0
 13 14  3  0  0  0  0
 15 16  3  0  0  0  0
 17 23  1  0  0  0  0
 17 18  1  0  0  0  0
 18 19  1  0  0  0  0
 19 20  1  0  0  0  0
 20 21  2  0  0  0  0
 20 22  2  0  0  0  0
 20 23  1  0  0  0  0
  1 24  1  0  0  0  0
  1 25  1  0  0  0  0
  1 26  1  0  0  0  0
  8 27  1  0  0  0  0
  9 28  1  0  0  0  0
  9 29  1  0  0  0  0
 12 30  1  0  0  0  0
 12 31  1  0  0  0  0
 17 32  1  0  0  0  0
 18 33  1  0  0  0  0
 18 34  1  0  0  0  0
 19 35  1  0  0  0  0
 19 36  1  0  0  0  0
 23 37  1  0  0  0  0
 23 38  1  0  0  0  0
M  CHG  1   2   1
M  END
> <Name>
ZINC06279516

> <reference>
BDB4977

> <quality>
0.707

> <status>
decoy

$$$$
ZINC31126591
  SciTegic06141217593D

 52 53  0  0  0  0            999 V2000
    1.4038   -2.7026   -1.9450 C   0  0  0  0  0  0  0  0  0  0  0  0
    1.1249   -2.1834   -0.5331 C   0  0  0  0  0  0  0  0  0  0  0  0
    1.1911   -0.7199   -0.5290 N   0  0  0  0  0  0  0  0  0  0  0  0
    2.3978   -0.0909   -0.2756 C   0  0  0  0  0  0  0  0  0  0  0  0
    2.4339    1.3139   -0.2775 C   0  0  0  0  0  0  0  0  0  0  0  0
    3.6467    1.9741   -0.0235 C   0  0  0  0  0  0  0  0  0  0  0  0
    4.7737    1.1869    0.2223 C   0  0  0  0  0  0  0  0  0  0  0  0
    4.6521   -0.1931    0.2059 C   0  0  0  0  0  0  0  0  0  0  0  0
    3.4990   -0.7833   -0.0360 N   0  0  0  0  0  0  0  0  0  0  0  0
    5.8695   -1.0407    0.4713 C   0  0  1  0  0  0  0  0  0  0  0  0
    6.6505   -1.2334   -0.8302 C   0  0  0  0  0  0  0  0  0  0  0  0
    6.7603   -0.3451    1.5025 C   0  0  0  0  0  0  0  0  0  0  0  0
    3.7280    3.4532   -0.0168 C   0  0  0  0  0  0  0  0  0  0  0  0
    3.3076    4.0886   -0.9622 O   0  0  0  0  0  0  0  0  0  0  0  0
    4.2682    4.0931    1.0379 O   0  0  0  0  0  0  0  0  0  0  0  0
    4.3150    5.5430    0.9759 C   0  0  0  0  0  0  0  0  0  0  0  0
    4.9475    6.0795    2.2341 C   0  0  0  0  0  0  0  0  0  0  0  0
    5.3218    5.3154    3.0978 O   0  0  0  0  0  0  0  0  0  0  0  0
    5.0970    7.4087    2.3994 N   0  0  0  0  0  0  0  0  0  0  0  0
    5.6627    7.8884    3.5247 C   0  0  0  0  0  0  0  0  0  0  0  0
    6.0379    7.1224    4.3905 O   0  0  0  0  0  0  0  0  0  0  0  0
    5.8122    9.2176    3.6900 N   0  0  0  0  0  0  0  0  0  0  0  0
    6.4271    9.7391    4.9132 C   0  0  0  0  0  0  0  0  0  0  0  0
    6.4764   11.2669    4.8478 C   0  0  1  0  0  0  0  0  0  0  0  0
    5.1768   11.7708    4.7278 F   0  0  0  0  0  0  0  0  0  0  0  0
    7.0636   11.7649    6.0159 F   0  0  0  0  0  0  0  0  0  0  0  0
    7.2340   11.6621    3.7401 F   0  0  0  0  0  0  0  0  0  0  0  0
    1.1875    2.0503   -0.5490 C   0  0  0  0  0  0  0  0  0  0  0  0
    1.1702    3.2659   -0.5615 O   0  0  0  0  0  0  0  0  0  0  0  0
    0.0638    1.3373   -0.7845 N   0  0  0  0  0  0  0  0  0  0  0  0
    0.0801   -0.0049   -0.7718 C   0  0  0  0  0  0  0  0  0  0  0  0
   -0.9572   -0.6001   -0.9901 O   0  0  0  0  0  0  0  0  0  0  0  0
    2.4062   -2.3807   -2.2638 H   0  0  0  0  0  0  0  0  0  0  0  0
    0.6519   -2.3003   -2.6399 H   0  0  0  0  0  0  0  0  0  0  0  0
    1.3542   -3.8015   -1.9488 H   0  0  0  0  0  0  0  0  0  0  0  0
    1.8767   -2.5857    0.1619 H   0  0  0  0  0  0  0  0  0  0  0  0
    0.1223   -2.5055   -0.2153 H   0  0  0  0  0  0  0  0  0  0  0  0
    5.7469    1.6572    0.4266 H   0  0  0  0  0  0  0  0  0  0  0  0
    5.5561   -2.0211    0.8594 H   0  0  0  0  0  0  0  0  0  0  0  0
    6.9645   -0.2535   -1.2191 H   0  0  0  0  0  0  0  0  0  0  0  0
    6.0109   -1.7338   -1.5722 H   0  0  0  0  0  0  0  0  0  0  0  0
    7.5393   -1.8521   -0.6371 H   0  0  0  0  0  0  0  0  0  0  0  0
    6.1998   -0.2065    2.4387 H   0  0  0  0  0  0  0  0  0  0  0  0
    7.0744    0.6354    1.1153 H   0  0  0  0  0  0  0  0  0  0  0  0
    7.6492   -0.9633    1.6967 H   0  0  0  0  0  0  0  0  0  0  0  0
    3.2936    5.9403    0.8817 H   0  0  0  0  0  0  0  0  0  0  0  0
    4.9110    5.8539    0.1052 H   0  0  0  0  0  0  0  0  0  0  0  0
    4.7789    8.0579    1.6657 H   0  0  0  0  0  0  0  0  0  0  0  0
    5.4941    9.8668    2.9563 H   0  0  0  0  0  0  0  0  0  0  0  0
    7.4492    9.3438    5.0085 H   0  0  0  0  0  0  0  0  0  0  0  0
    5.8313    9.4290    5.7843 H   0  0  0  0  0  0  0  0  0  0  0  0
   -0.8191    1.8316   -0.9768 H   0  0  0  0  0  0  0  0  0  0  0  0
  1  2  1  0  0  0  0
  2  3  1  0  0  0  0
  3 31  1  0  0  0  0
  3  4  1  0  0  0  0
  4  9  2  0  0  0  0
  4  5  1  0  0  0  0
  5  6  2  0  0  0  0
  5 28  1  0  0  0  0
  6  7  1  0  0  0  0
  6 13  1  0  0  0  0
  7  8  2  0  0  0  0
  8  9  1  0  0  0  0
  8 10  1  0  0  0  0
 10 11  1  0  0  0  0
 10 12  1  0  0  0  0
 13 14  2  0  0  0  0
 13 15  1  0  0  0  0
 15 16  1  0  0  0  0
 16 17  1  0  0  0  0
 17 18  2  0  0  0  0
 17 19  1  0  0  0  0
 19 20  1  0  0  0  0
 20 21  2  0  0  0  0
 20 22  1  0  0  0  0
 22 23  1  0  0  0  0
 23 24  1  0  0  0  0
 24 25  1  0  0  0  0
 24 26  1  0  0  0  0
 24 27  1  0  0  0  0
 28 29  2  0  0  0  0
 28 30  1  0  0  0  0
 30 31  1  0  0  0  0
 31 32  2  0  0  0  0
  1 33  1  0  0  0  0
  1 34  1  0  0  0  0
  1 35  1  0  0  0  0
  2 36  1  0  0  0  0
  2 37  1  0  0  0  0
  7 38  1  0  0  0  0
 10 39  1  0  0  0  0
 11 40  1  0  0  0  0
 11 41  1  0  0  0  0
 11 42  1  0  0  0  0
 12 43  1  0  0  0  0
 12 44  1  0  0  0  0
 12 45  1  0  0  0  0
 16 46  1  0  0  0  0
 16 47  1  0  0  0  0
 19 48  1  0  0  0  0
 22 49  1  0  0  0  0
 23 50  1  0  0  0  0
 23 51  1  0  0  0  0
 30 52  1  0  0  0  0
M  END
> <Name>
ZINC31126591

> <reference>
BDB4968

> <quality>
0.763

> <status>
decoy

$$$$
ZINC03215161
  SciTegic06141217593D

 42 43  0  0  0  0            999 V2000
   -0.5507    0.0985    0.0754 C   0  0  0  0  0  0  0  0  0  0  0  0
   -1.0862    0.8155    1.1894 O   0  0  0  0  0  0  0  0  0  0  0  0
   -0.3875    0.7573    2.3547 C   0  0  0  0  0  0  0  0  0  0  0  0
    0.7809    0.0228    2.4226 C   0  0  0  0  0  0  0  0  0  0  0  0
    1.5018   -0.0330    3.6216 C   0  0  0  0  0  0  0  0  0  0  0  0
    1.0301    0.6484    4.7501 C   0  0  0  0  0  0  0  0  0  0  0  0
   -0.1418    1.3768    4.6753 C   0  0  0  0  0  0  0  0  0  0  0  0
   -0.8537    1.4333    3.4796 C   0  0  0  0  0  0  0  0  0  0  0  0
   -2.0063    2.1505    3.4101 O   0  0  0  0  0  0  0  0  0  0  0  0
   -3.2189    1.4617    3.7222 C   0  0  0  0  0  0  0  0  0  0  0  0
   -0.6009    2.0390    5.7708 O   0  0  0  0  0  0  0  0  0  0  0  0
    0.1789    1.9380    6.9640 C   0  0  0  0  0  0  0  0  0  0  0  0
    2.7464   -0.8085    3.6969 C   0  0  0  0  0  0  0  0  0  0  0  0
    3.6135   -0.8033    2.6527 C   0  0  0  0  0  0  0  0  0  0  0  0
    3.6053    0.0192    1.4267 C   0  0  0  0  0  0  0  0  0  0  0  0
    2.7385    0.8478    1.2186 O   0  0  0  0  0  0  0  0  0  0  0  0
    4.5876   -0.1896    0.5664 N   0  0  0  0  0  0  0  0  0  0  0  0
    5.5464   -1.1085    0.8011 C   0  0  0  0  0  0  0  0  0  0  0  0
    6.4990   -1.4013    0.1038 O   0  0  0  0  0  0  0  0  0  0  0  0
    5.0838   -1.7849    2.3875 S   0  0  0  0  0  0  0  0  0  0  0  0
    4.6357    0.5955   -0.6696 C   0  0  0  0  0  0  0  0  0  0  0  0
    5.4491    1.8696   -0.4331 C   0  0  0  0  0  0  0  0  0  0  0  0
    5.5093    2.6404   -1.6876 N   0  3  0  0  0  0  0  0  0  0  0  0
   -0.4604   -0.9496    0.3968 H   0  0  0  0  0  0  0  0  0  0  0  0
    0.4643    0.4906   -0.0857 H   0  0  0  0  0  0  0  0  0  0  0  0
   -1.1698    0.1931   -0.8289 H   0  0  0  0  0  0  0  0  0  0  0  0
    1.1442   -0.5174    1.5359 H   0  0  0  0  0  0  0  0  0  0  0  0
    1.5916    0.6040    5.6949 H   0  0  0  0  0  0  0  0  0  0  0  0
   -3.0954    1.0640    4.7403 H   0  0  0  0  0  0  0  0  0  0  0  0
   -3.2762    0.6078    3.0311 H   0  0  0  0  0  0  0  0  0  0  0  0
   -4.1067    2.1065    3.6440 H   0  0  0  0  0  0  0  0  0  0  0  0
    1.1840    2.3046    6.7085 H   0  0  0  0  0  0  0  0  0  0  0  0
    0.2589    0.8647    7.1912 H   0  0  0  0  0  0  0  0  0  0  0  0
   -0.2553    2.4988    7.8048 H   0  0  0  0  0  0  0  0  0  0  0  0
    2.9760   -1.3937    4.5996 H   0  0  0  0  0  0  0  0  0  0  0  0
    3.6136    0.8651   -0.9741 H   0  0  0  0  0  0  0  0  0  0  0  0
    5.1100    0.0005   -1.4639 H   0  0  0  0  0  0  0  0  0  0  0  0
    6.4683    1.6031   -0.1166 H   0  0  0  0  0  0  0  0  0  0  0  0
    4.9654    2.4753    0.3474 H   0  0  0  0  0  0  0  0  0  0  0  0
    4.5566    2.8933   -1.9865 H   0  0  0  0  0  0  0  0  0  0  0  0
    5.9623    2.0765   -2.4209 H   0  0  0  0  0  0  0  0  0  0  0  0
    6.0562    3.4995   -1.5333 H   0  0  0  0  0  0  0  0  0  0  0  0
  1  2  1  0  0  0  0
  2  3  1  0  0  0  0
  3  8  2  0  0  0  0
  3  4  1  0  0  0  0
  4  5  2  0  0  0  0
  5  6  1  0  0  0  0
  5 13  1  0  0  0  0
  6  7  2  0  0  0  0
  7  8  1  0  0  0  0
  7 11  1  0  0  0  0
  8  9  1  0  0  0  0
  9 10  1  0  0  0  0
 11 12  1  0  0  0  0
 13 14  2  0  0  0  0
 14 20  1  0  0  0  0
 14 15  1  0  0  0  0
 15 16  2  0  0  0  0
 15 17  1  0  0  0  0
 17 18  1  0  0  0  0
 17 21  1  0  0  0  0
 18 19  2  0  0  0  0
 18 20  1  0  0  0  0
 21 22  1  0  0  0  0
 22 23  1  0  0  0  0
  1 24  1  0  0  0  0
  1 25  1  0  0  0  0
  1 26  1  0  0  0  0
  4 27  1  0  0  0  0
  6 28  1  0  0  0  0
 10 29  1  0  0  0  0
 10 30  1  0  0  0  0
 10 31  1  0  0  0  0
 12 32  1  0  0  0  0
 12 33  1  0  0  0  0
 12 34  1  0  0  0  0
 13 35  1  0  0  0  0
 21 36  1  0  0  0  0
 21 37  1  0  0  0  0
 22 38  1  0  0  0  0
 22 39  1  0  0  0  0
 23 40  1  0  0  0  0
 23 41  1  0  0  0  0
 23 42  1  0  0  0  0
M  CHG  1  23   1
M  END
> <Name>
ZINC03215161

> <reference>
BDB5198

> <quality>
0.776

> <status>
decoy

$$$$
ZINC01603645
  SciTegic06141217593D

 23 23  0  0  0  0            999 V2000
   -0.0127    1.0858    0.0080 C   0  0  0  0  0  0  0  0  0  0  0  0
   -0.7416    1.5850   -1.2129 C   0  0  0  0  0  0  0  0  0  0  0  0
   -1.7322    2.2656   -1.0889 O   0  0  0  0  0  0  0  0  0  0  0  0
   -0.8599    1.6695    1.4972 S   0  0  0  0  0  0  0  0  0  0  0  0
    0.1742    0.9607    2.7352 C   0  0  0  0  0  0  0  0  0  0  0  0
    1.2190    0.2359    2.3642 N   0  3  0  0  0  0  0  0  0  0  0  0
    2.0259   -0.3117    3.2699 C   0  0  0  0  0  0  0  0  0  0  0  0
    1.7520   -0.1220    4.6249 C   0  0  0  0  0  0  0  0  0  0  0  0
    0.6392    0.6434    4.9750 C   0  0  0  0  0  0  0  0  0  0  0  0
   -0.1177    1.1627    4.0114 N   0  0  0  0  0  0  0  0  0  0  0  0
    0.3254    0.8600    6.3113 N   0  0  0  0  0  0  0  0  0  0  0  0
    2.5780   -0.6893    5.6143 N   0  0  0  0  0  0  0  0  0  0  0  0
    3.1225   -1.0666    2.8718 N   0  0  0  0  0  0  0  0  0  0  0  0
   -0.2903    1.2736   -2.4381 O   0  5  0  0  0  0  0  0  0  0  0  0
    0.0018   -0.0141    0.0025 H   0  0  0  0  0  0  0  0  0  0  0  0
    1.0194    1.4662    0.0014 H   0  0  0  0  0  0  0  0  0  0  0  0
    1.4094    0.0943    1.3619 H   0  0  0  0  0  0  0  0  0  0  0  0
    0.9195    0.4519    7.0471 H   0  0  0  0  0  0  0  0  0  0  0  0
   -0.4969    1.4256    6.5658 H   0  0  0  0  0  0  0  0  0  0  0  0
    3.3938   -1.2507    5.3311 H   0  0  0  0  0  0  0  0  0  0  0  0
    2.3699   -0.5452    6.6127 H   0  0  0  0  0  0  0  0  0  0  0  0
    3.3108   -1.2024    1.8683 H   0  0  0  0  0  0  0  0  0  0  0  0
    3.7445   -1.4887    3.5759 H   0  0  0  0  0  0  0  0  0  0  0  0
  1  2  1  0  0  0  0
  1  4  1  0  0  0  0
  2  3  2  0  0  0  0
  2 14  1  0  0  0  0
  4  5  1  0  0  0  0
  5 10  2  0  0  0  0
  5  6  1  0  0  0  0
  6  7  2  0  0  0  0
  7  8  1  0  0  0  0
  7 13  1  0  0  0  0
  8  9  2  0  0  0  0
  8 12  1  0  0  0  0
  9 10  1  0  0  0  0
  9 11  1  0  0  0  0
  1 15  1  0  0  0  0
  1 16  1  0  0  0  0
  6 17  1  0  0  0  0
 11 18  1  0  0  0  0
 11 19  1  0  0  0  0
 12 20  1  0  0  0  0
 12 21  1  0  0  0  0
 13 22  1  0  0  0  0
 13 23  1  0  0  0  0
M  CHG  2   6   1  14  -1
M  END
> <Name>
ZINC01603645

> <reference>
BDB5257

> <quality>
0.800

> <status>
decoy

$$$$
ZINC29918169
  SciTegic06141217593D

 44 45  0  0  0  0            999 V2000
    5.2350    3.4795   -1.3566 C   0  0  0  0  0  0  0  0  0  0  0  0
    3.9593    2.6356   -1.3922 C   0  0  1  0  0  0  0  0  0  0  0  0
    4.1616    1.4448   -2.3313 C   0  0  0  0  0  0  0  0  0  0  0  0
    3.6449    2.1268    0.0160 C   0  0  0  0  0  0  0  0  0  0  0  0
    2.3618    1.4198    0.0047 N   0  0  0  0  0  0  0  0  0  0  0  0
    1.2115    2.1170    0.2412 C   0  0  0  0  0  0  0  0  0  0  0  0
   -0.0148    1.4300    0.2278 C   0  0  0  0  0  0  0  0  0  0  0  0
    0.0100   -0.0133   -0.0425 C   0  0  0  0  0  0  0  0  0  0  0  0
   -1.0217   -0.6588   -0.0660 O   0  0  0  0  0  0  0  0  0  0  0  0
    1.2000   -0.6088   -0.2638 N   0  0  0  0  0  0  0  0  0  0  0  0
    2.3403    0.1001   -0.2387 C   0  0  0  0  0  0  0  0  0  0  0  0
    3.3915   -0.4746   -0.4436 O   0  0  0  0  0  0  0  0  0  0  0  0
   -1.2312    2.1065    0.4607 C   0  0  0  0  0  0  0  0  0  0  0  0
   -1.2421    3.3162    0.5699 O   0  0  0  0  0  0  0  0  0  0  0  0
   -2.5166    1.3281    0.5739 C   0  0  0  0  0  0  0  0  0  0  0  0
   -3.8893    2.4700    0.8704 S   0  0  0  0  0  0  0  0  0  0  0  0
   -5.2260    1.3254    0.9583 C   0  0  0  0  0  0  0  0  0  0  0  0
   -5.1451    0.0233    0.8251 N   0  0  0  0  0  0  0  0  0  0  0  0
   -6.3175   -0.4910    0.9516 N   0  0  0  0  0  0  0  0  0  0  0  0
   -7.1873    0.4536    1.1592 C   0  0  0  0  0  0  0  0  0  0  0  0
   -6.5215    1.6252    1.1689 O   0  0  0  0  0  0  0  0  0  0  0  0
   -8.6705    0.2708    1.3539 C   0  0  0  0  0  0  0  0  0  0  0  0
   -9.0256    0.0471    3.1187 S   0  0  0  0  0  0  0  0  0  0  0  0
  -10.8270   -0.1566    3.1815 C   0  0  0  0  0  0  0  0  0  0  0  0
    1.2517    3.4549    0.4854 N   0  0  0  0  0  0  0  0  0  0  0  0
    5.4618    3.8460   -2.3686 H   0  0  0  0  0  0  0  0  0  0  0  0
    6.0722    2.8653   -0.9935 H   0  0  0  0  0  0  0  0  0  0  0  0
    5.0902    4.3359   -0.6816 H   0  0  0  0  0  0  0  0  0  0  0  0
    3.1227    3.2508   -1.7551 H   0  0  0  0  0  0  0  0  0  0  0  0
    4.9979    0.8288   -1.9691 H   0  0  0  0  0  0  0  0  0  0  0  0
    4.3875    1.8095   -3.3442 H   0  0  0  0  0  0  0  0  0  0  0  0
    3.2447    0.8376   -2.3574 H   0  0  0  0  0  0  0  0  0  0  0  0
    3.5875    2.9780    0.7103 H   0  0  0  0  0  0  0  0  0  0  0  0
    4.4388    1.4394    0.3434 H   0  0  0  0  0  0  0  0  0  0  0  0
    1.2345   -1.6204   -0.4545 H   0  0  0  0  0  0  0  0  0  0  0  0
   -2.6949    0.7763   -0.3608 H   0  0  0  0  0  0  0  0  0  0  0  0
   -2.4441    0.6180    1.4109 H   0  0  0  0  0  0  0  0  0  0  0  0
   -9.2015    1.1601    0.9835 H   0  0  0  0  0  0  0  0  0  0  0  0
   -9.0080   -0.6161    0.7975 H   0  0  0  0  0  0  0  0  0  0  0  0
  -11.1625   -1.0521    2.6379 H   0  0  0  0  0  0  0  0  0  0  0  0
  -11.3584    0.7383    2.8254 H   0  0  0  0  0  0  0  0  0  0  0  0
  -11.1013   -0.2972    4.2374 H   0  0  0  0  0  0  0  0  0  0  0  0
    2.1581    3.9440    0.4915 H   0  0  0  0  0  0  0  0  0  0  0  0
    0.3816    3.9766    0.6632 H   0  0  0  0  0  0  0  0  0  0  0  0
  1  2  1  0  0  0  0
  2  3  1  0  0  0  0
  2  4  1  0  0  0  0
  4  5  1  0  0  0  0
  5 11  1  0  0  0  0
  5  6  1  0  0  0  0
  6  7  2  0  0  0  0
  6 25  1  0  0  0  0
  7  8  1  0  0  0  0
  7 13  1  0  0  0  0
  8  9  2  0  0  0  0
  8 10  1  0  0  0  0
 10 11  1  0  0  0  0
 11 12  2  0  0  0  0
 13 14  2  0  0  0  0
 13 15  1  0  0  0  0
 15 16  1  0  0  0  0
 16 17  1  0  0  0  0
 17 21  1  0  0  0  0
 17 18  2  0  0  0  0
 18 19  1  0  0  0  0
 19 20  2  0  0  0  0
 20 21  1  0  0  0  0
 20 22  1  0  0  0  0
 22 23  1  0  0  0  0
 23 24  1  0  0  0  0
  1 26  1  0  0  0  0
  1 27  1  0  0  0  0
  1 28  1  0  0  0  0
  2 29  1  0  0  0  0
  3 30  1  0  0  0  0
  3 31  1  0  0  0  0
  3 32  1  0  0  0  0
  4 33  1  0  0  0  0
  4 34  1  0  0  0  0
 10 35  1  0  0  0  0
 15 36  1  0  0  0  0
 15 37  1  0  0  0  0
 22 38  1  0  0  0  0
 22 39  1  0  0  0  0
 24 40  1  0  0  0  0
 24 41  1  0  0  0  0
 24 42  1  0  0  0  0
 25 43  1  0  0  0  0
 25 44  1  0  0  0  0
M  END
> <Name>
ZINC29918169

> <reference>
BDB4945

> <quality>
0.715

> <status>
decoy

$$$$
ZINC27654081
  SciTegic06141217593D

 38 39  0  0  0  0            999 V2000
    1.3090   -0.3954   -0.0126 C   0  0  0  0  0  0  0  0  0  0  0  0
    2.0855    0.6482   -0.0144 N   0  0  0  0  0  0  0  0  0  0  0  0
    1.3292    1.7738   -0.0011 C   0  0  0  0  0  0  0  0  0  0  0  0
   -0.0165    1.3678    0.0096 C   0  0  0  0  0  0  0  0  0  0  0  0
    0.0021   -0.0041    0.0020 N   0  0  0  0  0  0  0  0  0  0  0  0
   -1.1671   -0.8869    0.0084 C   0  0  0  0  0  0  0  0  0  0  0  0
   -0.7354   -2.2491   -0.0030 O   0  0  0  0  0  0  0  0  0  0  0  0
   -1.8043   -3.1975    0.0021 C   0  0  0  0  0  0  0  0  0  0  0  0
   -1.2284   -4.6150   -0.0110 C   0  0  0  0  0  0  0  0  0  0  0  0
   -0.4984   -4.8522    1.2215 O   0  0  0  0  0  0  0  0  0  0  0  0
    0.0728   -6.0579    1.3690 C   0  0  0  0  0  0  0  0  0  0  0  0
   -0.0336   -6.8875    0.4971 O   0  0  0  0  0  0  0  0  0  0  0  0
    0.8469   -6.3768    2.6221 C   0  0  0  0  0  0  0  0  0  0  0  0
    1.3899   -7.8046    2.5367 C   0  0  0  0  0  0  0  0  0  0  0  0
    2.1445   -8.1154    3.7581 N   0  3  0  0  0  0  0  0  0  0  0  0
   -0.9710    2.2916    0.0237 N   0  0  0  0  0  0  0  0  0  0  0  0
   -0.6616    3.5781    0.0197 C   0  0  0  0  0  0  0  0  0  0  0  0
    0.5953    4.0037    0.0098 N   0  0  0  0  0  0  0  0  0  0  0  0
    1.6095    3.1487   -0.0007 C   0  0  0  0  0  0  0  0  0  0  0  0
    2.8890    3.5936   -0.0103 O   0  0  0  0  0  0  0  0  0  0  0  0
   -1.6843    4.5123    0.0259 N   0  0  0  0  0  0  0  0  0  0  0  0
    1.6551   -1.4395   -0.0215 H   0  0  0  0  0  0  0  0  0  0  0  0
   -1.7634   -0.6993    0.9135 H   0  0  0  0  0  0  0  0  0  0  0  0
   -1.7813   -0.6902   -0.8827 H   0  0  0  0  0  0  0  0  0  0  0  0
   -2.4318   -3.0492   -0.8891 H   0  0  0  0  0  0  0  0  0  0  0  0
   -2.4139   -3.0583    0.9071 H   0  0  0  0  0  0  0  0  0  0  0  0
   -2.0483   -5.3433   -0.0969 H   0  0  0  0  0  0  0  0  0  0  0  0
   -0.5471   -4.7273   -0.8673 H   0  0  0  0  0  0  0  0  0  0  0  0
    1.6851   -5.6719    2.7249 H   0  0  0  0  0  0  0  0  0  0  0  0
    0.1846   -6.2889    3.4959 H   0  0  0  0  0  0  0  0  0  0  0  0
    0.5522   -8.5101    2.4344 H   0  0  0  0  0  0  0  0  0  0  0  0
    2.0534   -7.8941    1.6639 H   0  0  0  0  0  0  0  0  0  0  0  0
    1.5243   -8.0331    4.5763 H   0  0  0  0  0  0  0  0  0  0  0  0
    2.9294   -7.4556    3.8552 H   0  0  0  0  0  0  0  0  0  0  0  0
    2.5103   -9.0766    3.7012 H   0  0  0  0  0  0  0  0  0  0  0  0
    0.7868    5.0157    0.0103 H   0  0  0  0  0  0  0  0  0  0  0  0
   -2.6703    4.2146    0.0335 H   0  0  0  0  0  0  0  0  0  0  0  0
   -1.4537    5.5161    0.0229 H   0  0  0  0  0  0  0  0  0  0  0  0
  1  5  1  0  0  0  0
  1  2  2  0  0  0  0
  2  3  1  0  0  0  0
  3  4  2  0  0  0  0
  3 19  1  0  0  0  0
  4  5  1  0  0  0  0
  4 16  1  0  0  0  0
  5  6  1  0  0  0  0
  6  7  1  0  0  0  0
  7  8  1  0  0  0  0
  8  9  1  0  0  0  0
  9 10  1  0  0  0  0
 10 11  1  0  0  0  0
 11 12  2  0  0  0  0
 11 13  1  0  0  0  0
 13 14  1  0  0  0  0
 14 15  1  0  0  0  0
 16 17  2  0  0  0  0
 17 18  1  0  0  0  0
 17 21  1  0  0  0  0
 18 19  1  0  0  0  0
 19 20  2  0  0  0  0
  1 22  1  0  0  0  0
  6 23  1  0  0  0  0
  6 24  1  0  0  0  0
  8 25  1  0  0  0  0
  8 26  1  0  0  0  0
  9 27  1  0  0  0  0
  9 28  1  0  0  0  0
 13 29  1  0  0  0  0
 13 30  1  0  0  0  0
 14 31  1  0  0  0  0
 14 32  1  0  0  0  0
 15 33  1  0  0  0  0
 15 34  1  0  0  0  0
 15 35  1  0  0  0  0
 18 36  1  0  0  0  0
 21 37  1  0  0  0  0
 21 38  1  0  0  0  0
M  CHG  1  15   1
M  END
> <Name>
ZINC27654081

> <reference>
BDB5009

> <quality>
0.832

> <status>
decoy

$$$$
ZINC32036344
  SciTegic06141217593D

 41 43  0  0  1  0            999 V2000
    2.8620    3.4176   -0.0076 C   0  0  0  0  0  0  0  0  0  0  0  0
    1.5648    3.3215    0.0045 N   0  0  0  0  0  0  0  0  0  0  0  0
    1.2091    2.0132    0.0013 C   0  0  0  0  0  0  0  0  0  0  0  0
    2.3958    1.2616   -0.0140 C   0  0  0  0  0  0  0  0  0  0  0  0
    3.4211    2.1730   -0.0194 N   0  0  0  0  0  0  0  0  0  0  0  0
    4.8536    1.8663   -0.0356 C   0  0  0  0  0  0  0  0  0  0  0  0
    5.3113    1.6446   -1.4786 C   0  0  0  0  0  0  0  0  0  0  0  0
    6.7086    1.3454   -1.4944 O   0  0  0  0  0  0  0  0  0  0  0  0
    7.2399    1.1196   -2.8016 C   0  0  0  0  0  0  0  0  0  0  0  0
    7.4082    2.7123   -3.6725 P   0  0  0  0  0  0  0  0  0  0  0  0
    6.0804    3.3563   -3.7841 O   0  0  0  0  0  0  0  0  0  0  0  0
    8.4028    3.6726   -2.8474 O   0  5  0  0  0  0  0  0  0  0  0  0
    8.0068    2.4580   -5.1453 O   0  0  0  0  0  0  0  0  0  0  0  0
    2.3218   -0.0656   -0.0205 N   0  0  0  0  0  0  0  0  0  0  0  0
    1.1471   -0.6744   -0.0125 C   0  0  0  0  0  0  0  0  0  0  0  0
    0.0021   -0.0041    0.0020 N   0  0  0  0  0  0  0  0  0  0  0  0
   -0.0159    1.3242    0.0093 C   0  0  0  0  0  0  0  0  0  0  0  0
   -1.2150    2.0146    0.0188 N   0  0  0  0  0  0  0  0  0  0  0  0
   -1.3637    2.8398   -1.2072 C   0  0  0  0  0  0  0  0  0  0  0  0
   -2.8908    3.0903   -1.2828 C   0  0  0  0  0  0  0  0  0  0  0  0
   -3.4857    1.7482   -0.7984 C   0  0  0  0  0  0  0  0  0  0  0  0
   -2.3633    1.0825    0.0192 C   0  0  0  0  0  0  0  0  0  0  0  0
    1.1114   -2.0591   -0.0201 N   0  0  0  0  0  0  0  0  0  0  0  0
    3.4250    4.3626   -0.0082 H   0  0  0  0  0  0  0  0  0  0  0  0
    5.4136    2.7064    0.4011 H   0  0  0  0  0  0  0  0  0  0  0  0
    5.0414    0.9555    0.5519 H   0  0  0  0  0  0  0  0  0  0  0  0
    4.7520    0.8044   -1.9158 H   0  0  0  0  0  0  0  0  0  0  0  0
    5.1253    2.5549   -2.0674 H   0  0  0  0  0  0  0  0  0  0  0  0
    8.2271    0.6415   -2.7188 H   0  0  0  0  0  0  0  0  0  0  0  0
    6.5610    0.4638   -3.3664 H   0  0  0  0  0  0  0  0  0  0  0  0
    7.3957    1.8678   -5.6536 H   0  0  0  0  0  0  0  0  0  0  0  0
   -0.8285    3.7940   -1.0928 H   0  0  0  0  0  0  0  0  0  0  0  0
   -1.0282    2.2770   -2.0908 H   0  0  0  0  0  0  0  0  0  0  0  0
   -3.1945    3.2881   -2.3214 H   0  0  0  0  0  0  0  0  0  0  0  0
   -3.1779    3.9026   -0.5990 H   0  0  0  0  0  0  0  0  0  0  0  0
   -3.7469    1.1177   -1.6611 H   0  0  0  0  0  0  0  0  0  0  0  0
   -4.3595    1.9335   -0.1564 H   0  0  0  0  0  0  0  0  0  0  0  0
   -2.7063    0.9119    1.0503 H   0  0  0  0  0  0  0  0  0  0  0  0
   -2.0729    0.1325   -0.4533 H   0  0  0  0  0  0  0  0  0  0  0  0
    1.9822   -2.6091   -0.0318 H   0  0  0  0  0  0  0  0  0  0  0  0
    0.2019   -2.5425   -0.0140 H   0  0  0  0  0  0  0  0  0  0  0  0
  1  5  1  0  0  0  0
  1  2  2  0  0  0  0
  2  3  1  0  0  0  0
  3 17  2  0  0  0  0
  3  4  1  0  0  0  0
  4  5  1  0  0  0  0
  4 14  2  0  0  0  0
  5  6  1  0  0  0  0
  6  7  1  0  0  0  0
  7  8  1  0  0  0  0
  8  9  1  0  0  0  0
  9 10  1  0  0  0  0
 10 11  2  0  0  0  0
 10 12  1  0  0  0  0
 10 13  1  0  0  0  0
 14 15  1  0  0  0  0
 15 16  2  0  0  0  0
 15 23  1  0  0  0  0
 16 17  1  0  0  0  0
 17 18  1  0  0  0  0
 18 22  1  0  0  0  0
 18 19  1  0  0  0  0
 19 20  1  0  0  0  0
 20 21  1  0  0  0  0
 21 22  1  0  0  0  0
  1 24  1  0  0  0  0
  6 25  1  0  0  0  0
  6 26  1  0  0  0  0
  7 27  1  0  0  0  0
  7 28  1  0  0  0  0
  9 29  1  0  0  0  0
  9 30  1  0  0  0  0
 13 31  1  0  0  0  0
 19 32  1  0  0  0  0
 19 33  1  0  0  0  0
 20 34  1  0  0  0  0
 20 35  1  0  0  0  0
 21 36  1  0  0  0  0
 21 37  1  0  0  0  0
 22 38  1  0  0  0  0
 22 39  1  0  0  0  0
 23 40  1  0  0  0  0
 23 41  1  0  0  0  0
M  CHG  1  12  -1
M  END
> <Name>
ZINC32036344

> <reference>
BDB4942

> <quality>
0.650

> <status>
decoy

$$$$
ZINC15636405
  SciTegic06141217593D

 56 59  0  0  1  0            999 V2000
   -6.0479    5.8552   -0.0074 C   0  0  0  0  0  0  0  0  0  0  0  0
   -5.8396    6.8643    0.9161 C   0  0  0  0  0  0  0  0  0  0  0  0
   -4.6548    7.5705    0.9155 C   0  0  0  0  0  0  0  0  0  0  0  0
   -3.6640    7.2650   -0.0207 C   0  0  0  0  0  0  0  0  0  0  0  0
   -3.8837    6.2491   -0.9541 C   0  0  0  0  0  0  0  0  0  0  0  0
   -5.0710    5.5471   -0.9377 C   0  0  0  0  0  0  0  0  0  0  0  0
   -2.3946    8.0155   -0.0276 C   0  0  0  0  0  0  0  0  0  0  0  0
   -1.2735    7.3924   -0.2257 N   0  0  0  0  0  0  0  0  0  0  0  0
   -1.2534    5.9936   -0.3017 N   0  0  0  0  0  0  0  0  0  0  0  0
   -0.1200    5.3540   -0.6523 C   0  0  0  0  0  0  0  0  0  0  0  0
    0.8850    5.9909   -0.9025 O   0  0  0  0  0  0  0  0  0  0  0  0
   -0.0989    3.8784   -0.7326 C   0  0  0  0  0  0  0  0  0  0  0  0
   -1.2511    3.1440   -0.4454 C   0  0  0  0  0  0  0  0  0  0  0  0
   -1.2257    1.7673   -0.5269 C   0  0  0  0  0  0  0  0  0  0  0  0
   -0.0588    1.1135   -0.8816 C   0  0  0  0  0  0  0  0  0  0  0  0
    1.0862    1.8351   -1.1679 C   0  0  0  0  0  0  0  0  0  0  0  0
    1.0732    3.2129   -1.0953 C   0  0  0  0  0  0  0  0  0  0  0  0
    2.3282    1.1276   -1.5524 N   0  0  0  0  0  0  0  0  0  0  0  0
    2.3413   -0.0886   -1.6165 O   0  0  0  0  0  0  0  0  0  0  0  0
    3.3371    1.7617   -1.8047 O   0  0  0  0  0  0  0  0  0  0  0  0
   -2.3992    9.5059    0.1952 C   0  0  0  0  0  0  0  0  0  0  0  0
   -3.1283   10.1923   -0.9615 C   0  0  1  0  0  0  0  0  0  0  0  0
   -3.2407   11.6684   -0.6792 C   0  0  0  0  0  0  0  0  0  0  0  0
   -4.3679   12.3807   -0.5669 C   0  0  0  0  0  0  0  0  0  0  0  0
   -2.7971   13.9550   -0.9395 C   0  0  2  0  0  0  0  0  0  0  0  0
   -2.1159   12.6278   -0.4622 C   0  0  2  0  0  0  0  0  0  0  0  0
   -0.8617   12.5020   -1.2544 C   0  0  0  0  0  0  0  0  0  0  0  0
   -0.1301   13.6332   -1.3356 C   0  0  0  0  0  0  0  0  0  0  0  0
   -0.5946   14.8564   -0.6493 C   0  0  0  0  0  0  0  0  0  0  0  0
   -1.9254   15.0679   -0.4671 C   0  0  0  0  0  0  0  0  0  0  0  0
   -2.3551    9.9825   -2.2379 C   0  0  0  0  0  0  0  0  0  0  0  0
   -1.3264    9.3489   -2.2238 O   0  0  0  0  0  0  0  0  0  0  0  0
   -4.0795   13.7179   -0.3402 N   0  3  0  0  0  0  0  0  0  0  0  0
   -2.8093   10.4994   -3.3904 O   0  5  0  0  0  0  0  0  0  0  0  0
   -6.9947    5.2952   -0.0020 H   0  0  0  0  0  0  0  0  0  0  0  0
   -6.6208    7.1039    1.6525 H   0  0  0  0  0  0  0  0  0  0  0  0
   -4.4905    8.3723    1.6504 H   0  0  0  0  0  0  0  0  0  0  0  0
   -3.1118    6.0096   -1.7003 H   0  0  0  0  0  0  0  0  0  0  0  0
   -5.2416    4.7405   -1.6659 H   0  0  0  0  0  0  0  0  0  0  0  0
   -2.1047    5.4540   -0.0897 H   0  0  0  0  0  0  0  0  0  0  0  0
   -2.1769    3.6621   -0.1548 H   0  0  0  0  0  0  0  0  0  0  0  0
   -2.1351    1.1878   -0.3095 H   0  0  0  0  0  0  0  0  0  0  0  0
   -0.0416    0.0150   -0.9361 H   0  0  0  0  0  0  0  0  0  0  0  0
    1.9844    3.7855   -1.3227 H   0  0  0  0  0  0  0  0  0  0  0  0
   -1.3636    9.8736    0.2446 H   0  0  0  0  0  0  0  0  0  0  0  0
   -2.9147    9.7340    1.1398 H   0  0  0  0  0  0  0  0  0  0  0  0
   -4.1349    9.7615   -1.0675 H   0  0  0  0  0  0  0  0  0  0  0  0
   -5.3827   11.9633   -0.6438 H   0  0  0  0  0  0  0  0  0  0  0  0
   -2.9257   14.2258   -1.9979 H   0  0  0  0  0  0  0  0  0  0  0  0
   -1.7535   12.5010    0.5686 H   0  0  0  0  0  0  0  0  0  0  0  0
   -0.5555   11.5614   -1.7355 H   0  0  0  0  0  0  0  0  0  0  0  0
    0.8078   13.6445   -1.9102 H   0  0  0  0  0  0  0  0  0  0  0  0
    0.1352   15.5950   -0.2862 H   0  0  0  0  0  0  0  0  0  0  0  0
   -2.3255   15.9844   -0.0090 H   0  0  0  0  0  0  0  0  0  0  0  0
   -4.7910   14.3124   -0.7887 H   0  0  0  0  0  0  0  0  0  0  0  0
   -4.0323   13.9020    0.6721 H   0  0  0  0  0  0  0  0  0  0  0  0
  1  6  2  0  0  0  0
  1  2  1  0  0  0  0
  2  3  2  0  0  0  0
  3  4  1  0  0  0  0
  4  5  2  0  0  0  0
  4  7  1  0  0  0  0
  5  6  1  0  0  0  0
  7  8  2  0  0  0  0
  7 21  1  0  0  0  0
  8  9  1  0  0  0  0
  9 10  1  0  0  0  0
 10 11  2  0  0  0  0
 10 12  1  0  0  0  0
 12 17  2  0  0  0  0
 12 13  1  0  0  0  0
 13 14  2  0  0  0  0
 14 15  1  0  0  0  0
 15 16  2  0  0  0  0
 16 17  1  0  0  0  0
 16 18  1  0  0  0  0
 18 19  2  0  0  0  0
 18 20  2  0  0  0  0
 21 22  1  0  0  0  0
 22 23  1  0  0  0  0
 22 31  1  0  0  0  0
 23 26  1  0  0  0  0
 23 24  2  0  0  0  0
 24 33  1  0  0  0  0
 25 30  1  0  0  0  0
 25 26  1  0  0  0  0
 25 33  1  0  0  0  0
 26 27  1  0  0  0  0
 27 28  2  0  0  0  0
 28 29  1  0  0  0  0
 29 30  2  0  0  0  0
 31 32  2  0  0  0  0
 31 34  1  0  0  0  0
  1 35  1  0  0  0  0
  2 36  1  0  0  0  0
  3 37  1  0  0  0  0
  5 38  1  0  0  0  0
  6 39  1  0  0  0  0
  9 40  1  0  0  0  0
 13 41  1  0  0  0  0
 14 42  1  0  0  0  0
 15 43  1  0  0  0  0
 17 44  1  0  0  0  0
 21 45  1  0  0  0  0
 21 46  1  0  0  0  0
 22 47  1  0  0  0  0
 24 48  1  0  0  0  0
 25 49  1  0  0  0  0
 26 50  1  0  0  0  0
 27 51  1  0  0  0  0
 28 52  1  0  0  0  0
 29 53  1  0  0  0  0
 30 54  1  0  0  0  0
 33 55  1  0  0  0  0
 33 56  1  0  0  0  0
M  CHG  2  33   1  34  -1
M  END
> <Name>
ZINC15636405

> <reference>
BDB4968

> <quality>
0.817

> <status>
decoy

$$$$
ZINC20341969
  SciTegic06141217593D

 39 39  0  0  1  0            999 V2000
    4.2423    2.0538   -7.1733 C   0  0  0  0  0  0  0  0  0  0  0  0
    3.7258    0.6145   -7.2225 C   0  0  0  0  0  0  0  0  0  0  0  0
    3.8930   -0.0111   -5.9039 N   0  0  0  0  0  0  0  0  0  0  0  0
    3.8657   -1.4761   -6.0090 C   0  0  0  0  0  0  0  0  0  0  0  0
    5.0876   -1.9538   -6.7962 C   0  0  0  0  0  0  0  0  0  0  0  0
    6.2756   -1.6495   -6.0626 O   0  0  0  0  0  0  0  0  0  0  0  0
    2.8738    0.4682   -4.9608 C   0  0  0  0  0  0  0  0  0  0  0  0
    3.3403    0.2217   -3.5491 C   0  0  0  0  0  0  0  0  0  0  0  0
    4.3833   -0.3636   -3.3486 O   0  0  0  0  0  0  0  0  0  0  0  0
    2.5982    0.6518   -2.5095 N   0  0  0  0  0  0  0  0  0  0  0  0
    3.0272    0.4251   -1.2111 C   0  0  0  0  0  0  0  0  0  0  0  0
    2.4069    0.7882   -0.0203 C   0  0  0  0  0  0  0  0  0  0  0  0
    3.0801    0.4156    1.2016 C   0  0  0  0  0  0  0  0  0  0  0  0
    4.2467   -0.2429    1.0838 C   0  0  0  0  0  0  0  0  0  0  0  0
    4.4665   -0.3767   -0.6783 S   0  0  0  0  0  0  0  0  0  0  0  0
    5.1510   -0.7458    2.1795 C   0  0  0  0  0  0  0  0  0  0  0  0
    2.5001    0.7507    2.5515 C   0  0  0  0  0  0  0  0  0  0  0  0
    1.1315    1.5075   -0.0064 C   0  0  0  0  0  0  0  0  0  0  0  0
    1.1191    2.7238   -0.0058 O   0  0  0  0  0  0  0  0  0  0  0  0
   -0.0297    0.8213    0.0058 O   0  5  0  0  0  0  0  0  0  0  0  0
    5.3081    2.0529   -6.9012 H   0  0  0  0  0  0  0  0  0  0  0  0
    3.6735    2.6231   -6.4234 H   0  0  0  0  0  0  0  0  0  0  0  0
    4.1174    2.5229   -8.1604 H   0  0  0  0  0  0  0  0  0  0  0  0
    2.6599    0.6164   -7.4944 H   0  0  0  0  0  0  0  0  0  0  0  0
    4.2945    0.0451   -7.9724 H   0  0  0  0  0  0  0  0  0  0  0  0
    2.9492   -1.7905   -6.5297 H   0  0  0  0  0  0  0  0  0  0  0  0
    3.8843   -1.9166   -5.0012 H   0  0  0  0  0  0  0  0  0  0  0  0
    5.1190   -1.4450   -7.7710 H   0  0  0  0  0  0  0  0  0  0  0  0
    5.0217   -3.0407   -6.9518 H   0  0  0  0  0  0  0  0  0  0  0  0
    6.2493   -2.1076   -5.1853 H   0  0  0  0  0  0  0  0  0  0  0  0
    2.7135    1.5461   -5.1105 H   0  0  0  0  0  0  0  0  0  0  0  0
    1.9304   -0.0704   -5.1337 H   0  0  0  0  0  0  0  0  0  0  0  0
    1.7123    1.1489   -2.6798 H   0  0  0  0  0  0  0  0  0  0  0  0
    4.4583   -1.3560    2.7777 H   0  0  0  0  0  0  0  0  0  0  0  0
    5.3178    0.1684    2.7680 H   0  0  0  0  0  0  0  0  0  0  0  0
    6.0708   -1.2663    1.8745 H   0  0  0  0  0  0  0  0  0  0  0  0
    1.4948    0.3046    2.5337 H   0  0  0  0  0  0  0  0  0  0  0  0
    2.3619    1.8417    2.5247 H   0  0  0  0  0  0  0  0  0  0  0  0
    3.1036    0.4153    3.4078 H   0  0  0  0  0  0  0  0  0  0  0  0
  1  2  1  0  0  0  0
  2  3  1  0  0  0  0
  3  4  1  0  0  0  0
  3  7  1  0  0  0  0
  4  5  1  0  0  0  0
  5  6  1  0  0  0  0
  7  8  1  0  0  0  0
  8  9  2  0  0  0  0
  8 10  1  0  0  0  0
 10 11  1  0  0  0  0
 11 15  1  0  0  0  0
 11 12  2  0  0  0  0
 12 13  1  0  0  0  0
 12 18  1  0  0  0  0
 13 14  2  0  0  0  0
 13 17  1  0  0  0  0
 14 15  1  0  0  0  0
 14 16  1  0  0  0  0
 18 19  2  0  0  0  0
 18 20  1  0  0  0  0
  1 21  1  0  0  0  0
  1 22  1  0  0  0  0
  1 23  1  0  0  0  0
  2 24  1  0  0  0  0
  2 25  1  0  0  0  0
  4 26  1  0  0  0  0
  4 27  1  0  0  0  0
  5 28  1  0  0  0  0
  5 29  1  0  0  0  0
  6 30  1  0  0  0  0
  7 31  1  0  0  0  0
  7 32  1  0  0  0  0
 10 33  1  0  0  0  0
 16 34  1  0  0  0  0
 16 35  1  0  0  0  0
 16 36  1  0  0  0  0
 17 37  1  0  0  0  0
 17 38  1  0  0  0  0
 17 39  1  0  0  0  0
M  CHG  1  20  -1
M  END
> <Name>
ZINC20341969

> <reference>
BDB4995

> <quality>
0.767

> <status>
decoy

$$$$
ZINC25187303
  SciTegic06141217593D

 58 59  0  0  1  0            999 V2000
   -2.3762    1.1799   -4.1763 C   0  0  0  0  0  0  0  0  0  0  0  0
   -3.4228    2.0791   -3.5152 C   0  0  2  0  0  0  0  0  0  0  0  0
   -3.6095    1.6610   -2.0794 C   0  0  0  0  0  0  0  0  0  0  0  0
   -4.5864    1.0187   -1.7570 O   0  0  0  0  0  0  0  0  0  0  0  0
   -2.6908    2.0009   -1.1537 N   0  0  0  0  0  0  0  0  0  0  0  0
   -1.4391    2.6613   -1.5484 C   0  0  0  0  0  0  0  0  0  0  0  0
   -0.2607    1.8639   -0.9807 C   0  0  0  0  0  0  0  0  0  0  0  0
   -0.4374    1.7055    0.5312 C   0  0  2  0  0  0  0  0  0  0  0  0
   -1.7273    0.9318    0.8168 C   0  0  0  0  0  0  0  0  0  0  0  0
   -2.9223    1.7186    0.2695 C   0  0  2  0  0  0  0  0  0  0  0  0
   -4.1790    0.9014    0.4246 C   0  0  0  0  0  0  0  0  0  0  0  0
   -4.2507   -0.2014   -0.0751 O   0  0  0  0  0  0  0  0  0  0  0  0
   -5.2231    1.3960    1.1185 N   0  0  0  0  0  0  0  0  0  0  0  0
   -6.4448    0.6016    1.2692 C   0  0  0  0  0  0  0  0  0  0  0  0
   -7.4660    1.3879    2.0936 C   0  0  0  0  0  0  0  0  0  0  0  0
   -8.7418    0.5582    2.2510 C   0  0  0  0  0  0  0  0  0  0  0  0
   -9.7477    1.3327    3.0631 C   0  0  0  0  0  0  0  0  0  0  0  0
   -9.4724    2.4352    3.4737 O   0  0  0  0  0  0  0  0  0  0  0  0
  -10.9495    0.7978    3.3301 O   0  0  0  0  0  0  0  0  0  0  0  0
  -11.8681    1.6005    4.1176 C   0  0  0  0  0  0  0  0  0  0  0  0
   -0.5140    3.0289    1.1549 N   0  0  0  0  0  0  0  0  0  0  0  0
    0.6161    3.6845    1.4858 C   0  0  0  0  0  0  0  0  0  0  0  0
    1.6987    3.1778    1.2668 O   0  0  0  0  0  0  0  0  0  0  0  0
    0.5386    5.0227    2.1166 C   0  0  0  0  0  0  0  0  0  0  0  0
   -0.6965    5.6262    2.3719 C   0  0  0  0  0  0  0  0  0  0  0  0
   -0.7227    6.8730    2.9664 C   0  0  0  0  0  0  0  0  0  0  0  0
    0.3953    7.4960    3.2817 N   0  0  0  0  0  0  0  0  0  0  0  0
    1.5801    6.9654    3.0533 C   0  0  0  0  0  0  0  0  0  0  0  0
    1.6986    5.7198    2.4677 C   0  0  0  0  0  0  0  0  0  0  0  0
   -4.6643    1.9571   -4.2121 O   0  0  0  0  0  0  0  0  0  0  0  0
   -2.7149    0.1339   -4.1408 H   0  0  0  0  0  0  0  0  0  0  0  0
   -1.4200    1.2734   -3.6406 H   0  0  0  0  0  0  0  0  0  0  0  0
   -2.2394    1.4846   -5.2244 H   0  0  0  0  0  0  0  0  0  0  0  0
   -3.0832    3.1247   -3.5514 H   0  0  0  0  0  0  0  0  0  0  0  0
   -1.3682    2.6913   -2.6457 H   0  0  0  0  0  0  0  0  0  0  0  0
   -1.4182    3.6848   -1.1458 H   0  0  0  0  0  0  0  0  0  0  0  0
    0.6784    2.3987   -1.1856 H   0  0  0  0  0  0  0  0  0  0  0  0
   -0.2286    0.8705   -1.4520 H   0  0  0  0  0  0  0  0  0  0  0  0
    0.4199    1.1538    0.9444 H   0  0  0  0  0  0  0  0  0  0  0  0
   -1.8434    0.7976    1.9024 H   0  0  0  0  0  0  0  0  0  0  0  0
   -1.6812   -0.0522    0.3273 H   0  0  0  0  0  0  0  0  0  0  0  0
   -3.0356    2.6615    0.8245 H   0  0  0  0  0  0  0  0  0  0  0  0
   -5.1622    2.3325    1.5429 H   0  0  0  0  0  0  0  0  0  0  0  0
   -6.8655    0.3837    0.2764 H   0  0  0  0  0  0  0  0  0  0  0  0
   -6.2088   -0.3422    1.7826 H   0  0  0  0  0  0  0  0  0  0  0  0
   -7.0461    1.6058    3.0867 H   0  0  0  0  0  0  0  0  0  0  0  0
   -7.7042    2.3316    1.5811 H   0  0  0  0  0  0  0  0  0  0  0  0
   -8.5057   -0.3856    2.7644 H   0  0  0  0  0  0  0  0  0  0  0  0
   -9.1625    0.3403    1.2582 H   0  0  0  0  0  0  0  0  0  0  0  0
  -12.0019    2.5452    3.5702 H   0  0  0  0  0  0  0  0  0  0  0  0
  -11.3509    1.8270    5.0616 H   0  0  0  0  0  0  0  0  0  0  0  0
  -12.8289    1.0946    4.2934 H   0  0  0  0  0  0  0  0  0  0  0  0
   -1.4316    3.4583    1.3405 H   0  0  0  0  0  0  0  0  0  0  0  0
   -1.6333    5.1159    2.1034 H   0  0  0  0  0  0  0  0  0  0  0  0
   -1.6896    7.3523    3.1795 H   0  0  0  0  0  0  0  0  0  0  0  0
    2.4868    7.5220    3.3328 H   0  0  0  0  0  0  0  0  0  0  0  0
    2.6907    5.2830    2.2805 H   0  0  0  0  0  0  0  0  0  0  0  0
   -4.9708    1.0163   -4.1799 H   0  0  0  0  0  0  0  0  0  0  0  0
  1  2  1  0  0  0  0
  2  3  1  0  0  0  0
  2 30  1  0  0  0  0
  3  4  2  0  0  0  0
  3  5  1  0  0  0  0
  5 10  1  0  0  0  0
  5  6  1  0  0  0  0
  6  7  1  0  0  0  0
  7  8  1  0  0  0  0
  8  9  1  0  0  0  0
  8 21  1  0  0  0  0
  9 10  1  0  0  0  0
 10 11  1  0  0  0  0
 11 12  2  0  0  0  0
 11 13  1  0  0  0  0
 13 14  1  0  0  0  0
 14 15  1  0  0  0  0
 15 16  1  0  0  0  0
 16 17  1  0  0  0  0
 17 18  2  0  0  0  0
 17 19  1  0  0  0  0
 19 20  1  0  0  0  0
 21 22  1  0  0  0  0
 22 23  2  0  0  0  0
 22 24  1  0  0  0  0
 24 29  2  0  0  0  0
 24 25  1  0  0  0  0
 25 26  2  0  0  0  0
 26 27  1  0  0  0  0
 27 28  2  0  0  0  0
 28 29  1  0  0  0  0
  1 31  1  0  0  0  0
  1 32  1  0  0  0  0
  1 33  1  0  0  0  0
  2 34  1  0  0  0  0
  6 35  1  0  0  0  0
  6 36  1  0  0  0  0
  7 37  1  0  0  0  0
  7 38  1  0  0  0  0
  8 39  1  0  0  0  0
  9 40  1  0  0  0  0
  9 41  1  0  0  0  0
 10 42  1  0  0  0  0
 13 43  1  0  0  0  0
 14 44  1  0  0  0  0
 14 45  1  0  0  0  0
 15 46  1  0  0  0  0
 15 47  1  0  0  0  0
 16 48  1  0  0  0  0
 16 49  1  0  0  0  0
 20 50  1  0  0  0  0
 20 51  1  0  0  0  0
 20 52  1  0  0  0  0
 21 53  1  0  0  0  0
 25 54  1  0  0  0  0
 26 55  1  0  0  0  0
 28 56  1  0  0  0  0
 29 57  1  0  0  0  0
 30 58  1  0  0  0  0
M  END
> <Name>
ZINC25187303

> <reference>
BDB4965

> <quality>
0.663

> <status>
decoy

$$$$
ZINC05089417
  SciTegic06141217593D

 42 44  0  0  0  0            999 V2000
    1.2023    5.8667    0.0221 C   0  0  0  0  0  0  0  0  0  0  0  0
   -0.0639    5.2043    0.0311 O   0  0  0  0  0  0  0  0  0  0  0  0
   -0.0493    3.8455    0.0236 C   0  0  0  0  0  0  0  0  0  0  0  0
    1.1596    3.1639    0.0080 C   0  0  0  0  0  0  0  0  0  0  0  0
    1.1751    1.7825    0.0004 C   0  0  0  0  0  0  0  0  0  0  0  0
   -0.0126    1.0758    0.0080 C   0  0  0  0  0  0  0  0  0  0  0  0
   -1.2238    1.7526    0.0174 C   0  0  0  0  0  0  0  0  0  0  0  0
   -1.2419    3.1390    0.0312 C   0  0  0  0  0  0  0  0  0  0  0  0
   -2.3914    1.0572    0.0192 O   0  0  0  0  0  0  0  0  0  0  0  0
   -2.2972   -0.3687    0.0110 C   0  0  0  0  0  0  0  0  0  0  0  0
   -3.6819   -0.9636    0.0144 C   0  0  0  0  0  0  0  0  0  0  0  0
   -4.3961   -1.2631   -1.0335 N   0  0  0  0  0  0  0  0  0  0  0  0
   -5.5278   -1.7526   -0.6708 N   0  0  0  0  0  0  0  0  0  0  0  0
   -5.5972   -1.7922    0.6396 C   0  0  0  0  0  0  0  0  0  0  0  0
   -4.4190   -1.2945    1.1177 N   0  0  0  0  0  0  0  0  0  0  0  0
   -4.0537   -1.1536    2.4263 N   0  0  0  0  0  0  0  0  0  0  0  0
   -6.9517   -2.3820    1.5997 S   0  0  0  0  0  0  0  0  0  0  0  0
   -8.0893   -2.8624    0.2764 C   0  0  0  0  0  0  0  0  0  0  0  0
   -9.3567   -3.4123    0.8784 C   0  0  0  0  0  0  0  0  0  0  0  0
   -9.4790   -3.4734    2.0851 O   0  0  0  0  0  0  0  0  0  0  0  0
  -10.4032   -3.8568    0.0386 C   0  0  0  0  0  0  0  0  0  0  0  0
  -10.4058   -3.8417   -1.3457 C   0  0  0  0  0  0  0  0  0  0  0  0
  -11.6300   -4.3724   -1.7558 C   0  0  0  0  0  0  0  0  0  0  0  0
  -12.3416   -4.6865   -0.6446 C   0  0  0  0  0  0  0  0  0  0  0  0
  -11.6116   -4.3799    0.4472 N   0  0  0  0  0  0  0  0  0  0  0  0
    1.7312    5.5107   -0.8743 H   0  0  0  0  0  0  0  0  0  0  0  0
    1.7489    5.5011    0.9039 H   0  0  0  0  0  0  0  0  0  0  0  0
    1.1091    6.9627    0.0290 H   0  0  0  0  0  0  0  0  0  0  0  0
    2.1062    3.7241    0.0017 H   0  0  0  0  0  0  0  0  0  0  0  0
    2.1343    1.2442   -0.0117 H   0  0  0  0  0  0  0  0  0  0  0  0
    0.0023   -0.0241    0.0066 H   0  0  0  0  0  0  0  0  0  0  0  0
   -2.2010    3.6773    0.0482 H   0  0  0  0  0  0  0  0  0  0  0  0
   -1.7605   -0.6957   -0.8918 H   0  0  0  0  0  0  0  0  0  0  0  0
   -1.7517   -0.7064    0.9045 H   0  0  0  0  0  0  0  0  0  0  0  0
   -3.1167   -0.7523    2.5744 H   0  0  0  0  0  0  0  0  0  0  0  0
   -4.6547   -1.4221    3.2185 H   0  0  0  0  0  0  0  0  0  0  0  0
   -7.6183   -3.6328   -0.3518 H   0  0  0  0  0  0  0  0  0  0  0  0
   -8.3281   -1.9827   -0.3393 H   0  0  0  0  0  0  0  0  0  0  0  0
   -9.5972   -3.4804   -1.9981 H   0  0  0  0  0  0  0  0  0  0  0  0
  -11.9594   -4.5113   -2.7961 H   0  0  0  0  0  0  0  0  0  0  0  0
  -13.3519   -5.1215   -0.6354 H   0  0  0  0  0  0  0  0  0  0  0  0
  -11.9078   -4.5143    1.4245 H   0  0  0  0  0  0  0  0  0  0  0  0
  1  2  1  0  0  0  0
  2  3  1  0  0  0  0
  3  8  2  0  0  0  0
  3  4  1  0  0  0  0
  4  5  2  0  0  0  0
  5  6  1  0  0  0  0
  6  7  2  0  0  0  0
  7  8  1  0  0  0  0
  7  9  1  0  0  0  0
  9 10  1  0  0  0  0
 10 11  1  0  0  0  0
 11 15  1  0  0  0  0
 11 12  2  0  0  0  0
 12 13  1  0  0  0  0
 13 14  2  0  0  0  0
 14 15  1  0  0  0  0
 14 17  1  0  0  0  0
 15 16  1  0  0  0  0
 17 18  1  0  0  0  0
 18 19  1  0  0  0  0
 19 20  2  0  0  0  0
 19 21  1  0  0  0  0
 21 25  1  0  0  0  0
 21 22  2  0  0  0  0
 22 23  1  0  0  0  0
 23 24  2  0  0  0  0
 24 25  1  0  0  0  0
  1 26  1  0  0  0  0
  1 27  1  0  0  0  0
  1 28  1  0  0  0  0
  4 29  1  0  0  0  0
  5 30  1  0  0  0  0
  6 31  1  0  0  0  0
  8 32  1  0  0  0  0
 10 33  1  0  0  0  0
 10 34  1  0  0  0  0
 16 35  1  0  0  0  0
 16 36  1  0  0  0  0
 18 37  1  0  0  0  0
 18 38  1  0  0  0  0
 22 39  1  0  0  0  0
 23 40  1  0  0  0  0
 24 41  1  0  0  0  0
 25 42  1  0  0  0  0
M  END
> <Name>
ZINC05089417

> <reference>
BDB5003

> <quality>
0.756

> <status>
decoy

$$$$
ZINC01731417
  SciTegic06141217593D

 35 35  0  0  0  0            999 V2000
    1.4195    1.7069   -0.0023 C   0  0  0  0  0  0  0  0  0  0  0  0
    2.8543    1.2464   -0.0185 C   0  0  0  0  0  0  0  0  0  0  0  0
    3.9459    2.6814   -0.0212 Cl  0  0  0  0  0  0  0  0  0  0  0  0
    0.4092    0.7905    0.0024 N   0  0  0  0  0  0  0  0  0  0  0  0
   -0.7505    1.1626    0.0104 O   0  0  0  0  0  0  0  0  0  0  0  0
   -1.6974    0.2088    0.0090 C   0  0  0  0  0  0  0  0  0  0  0  0
   -1.3785   -0.9642   -0.0001 O   0  0  0  0  0  0  0  0  0  0  0  0
   -3.1238    0.5855    0.0183 C   0  0  0  0  0  0  0  0  0  0  0  0
   -3.4917    1.9334    0.0344 C   0  0  0  0  0  0  0  0  0  0  0  0
   -4.8289    2.2836    0.0373 C   0  0  0  0  0  0  0  0  0  0  0  0
   -5.8088    1.2943    0.0361 C   0  0  0  0  0  0  0  0  0  0  0  0
   -5.4449   -0.0496    0.0254 C   0  0  0  0  0  0  0  0  0  0  0  0
   -4.1093   -0.4051    0.0167 C   0  0  0  0  0  0  0  0  0  0  0  0
   -6.4046   -1.0133    0.0239 O   0  0  0  0  0  0  0  0  0  0  0  0
   -5.9602   -2.3713    0.0132 C   0  0  0  0  0  0  0  0  0  0  0  0
   -7.1226    1.6413    0.0452 O   0  0  0  0  0  0  0  0  0  0  0  0
   -7.7434    1.7985    1.3227 C   0  0  0  0  0  0  0  0  0  0  0  0
   -5.1877    3.5954    0.0469 O   0  0  0  0  0  0  0  0  0  0  0  0
   -4.1307    4.5570    0.0474 C   0  0  0  0  0  0  0  0  0  0  0  0
    1.0750    2.9781    0.0078 N   0  0  0  0  0  0  0  0  0  0  0  0
    3.0376    0.6456   -0.9215 H   0  0  0  0  0  0  0  0  0  0  0  0
    3.0539    0.6363    0.8748 H   0  0  0  0  0  0  0  0  0  0  0  0
    0.6270   -0.2162   -0.0008 H   0  0  0  0  0  0  0  0  0  0  0  0
   -2.7179    2.7151    0.0448 H   0  0  0  0  0  0  0  0  0  0  0  0
   -3.8224   -1.4670    0.0085 H   0  0  0  0  0  0  0  0  0  0  0  0
   -5.3190   -2.4938    0.8985 H   0  0  0  0  0  0  0  0  0  0  0  0
   -5.3275   -2.4826   -0.8797 H   0  0  0  0  0  0  0  0  0  0  0  0
   -6.7919   -3.0912    0.0126 H   0  0  0  0  0  0  0  0  0  0  0  0
   -7.1591    2.5610    1.8587 H   0  0  0  0  0  0  0  0  0  0  0  0
   -7.6133    0.8417    1.8496 H   0  0  0  0  0  0  0  0  0  0  0  0
   -8.8044    2.0792    1.2485 H   0  0  0  0  0  0  0  0  0  0  0  0
   -3.5234    4.3495   -0.8460 H   0  0  0  0  0  0  0  0  0  0  0  0
   -3.5146    4.3389    0.9322 H   0  0  0  0  0  0  0  0  0  0  0  0
   -4.4986    5.5936    0.0554 H   0  0  0  0  0  0  0  0  0  0  0  0
    1.8301    3.6786    0.0043 H   0  0  0  0  0  0  0  0  0  0  0  0
  1  2  1  0  0  0  0
  1  4  1  0  0  0  0
  1 20  2  0  0  0  0
  2  3  1  0  0  0  0
  4  5  1  0  0  0  0
  5  6  1  0  0  0  0
  6  7  2  0  0  0  0
  6  8  1  0  0  0  0
  8 13  2  0  0  0  0
  8  9  1  0  0  0  0
  9 10  2  0  0  0  0
 10 11  1  0  0  0  0
 10 18  1  0  0  0  0
 11 12  2  0  0  0  0
 11 16  1  0  0  0  0
 12 13  1  0  0  0  0
 12 14  1  0  0  0  0
 14 15  1  0  0  0  0
 16 17  1  0  0  0  0
 18 19  1  0  0  0  0
  2 21  1  0  0  0  0
  2 22  1  0  0  0  0
  4 23  1  0  0  0  0
  9 24  1  0  0  0  0
 13 25  1  0  0  0  0
 15 26  1  0  0  0  0
 15 27  1  0  0  0  0
 15 28  1  0  0  0  0
 17 29  1  0  0  0  0
 17 30  1  0  0  0  0
 17 31  1  0  0  0  0
 19 32  1  0  0  0  0
 19 33  1  0  0  0  0
 19 34  1  0  0  0  0
 20 35  1  0  0  0  0
M  END
> <Name>
ZINC01731417

> <reference>
BDB4986

> <quality>
0.750

> <status>
decoy

$$$$
ZINC20236119
  SciTegic06141217593D

 40 40  0  0  1  0            999 V2000
   -1.2161    1.8798   -2.6360 C   0  0  0  0  0  0  0  0  0  0  0  0
   -1.5933    2.0912   -1.1684 C   0  0  0  0  0  0  0  0  0  0  0  0
   -0.2267    1.5447   -0.1081 S   0  0  0  0  0  0  0  0  0  0  0  0
   -0.0755    0.1343   -0.1926 O   0  0  0  0  0  0  0  0  0  0  0  0
    0.8930    2.4044   -0.2708 O   0  0  0  0  0  0  0  0  0  0  0  0
   -0.7508    1.8216    1.4382 N   0  0  0  0  0  0  0  0  0  0  0  0
   -1.5843    0.8270    2.1183 C   0  0  0  0  0  0  0  0  0  0  0  0
   -0.6984   -0.0833    2.9712 C   0  0  0  0  0  0  0  0  0  0  0  0
   -1.5341   -1.0806    3.6531 N   0  3  0  0  0  0  0  0  0  0  0  0
   -0.3977    3.0054    2.0952 C   0  0  0  0  0  0  0  0  0  0  0  0
    0.9395    3.2967    2.3303 C   0  0  0  0  0  0  0  0  0  0  0  0
    1.2902    4.4682    2.9745 C   0  0  0  0  0  0  0  0  0  0  0  0
    0.3078    5.3488    3.3971 C   0  0  0  0  0  0  0  0  0  0  0  0
   -1.0332    5.0574    3.1678 C   0  0  0  0  0  0  0  0  0  0  0  0
   -1.3845    3.8861    2.5171 C   0  0  0  0  0  0  0  0  0  0  0  0
   -1.9980    5.9218    3.5816 O   0  0  0  0  0  0  0  0  0  0  0  0
   -3.3535    5.5584    3.3121 C   0  0  0  0  0  0  0  0  0  0  0  0
    0.6545    6.4992    4.0363 O   0  0  0  0  0  0  0  0  0  0  0  0
    2.0496    6.7341    4.2381 C   0  0  0  0  0  0  0  0  0  0  0  0
   -1.0185    0.8126   -2.8149 H   0  0  0  0  0  0  0  0  0  0  0  0
   -0.3142    2.4637   -2.8717 H   0  0  0  0  0  0  0  0  0  0  0  0
   -2.0444    2.2110   -3.2796 H   0  0  0  0  0  0  0  0  0  0  0  0
   -1.7904    3.1586   -0.9904 H   0  0  0  0  0  0  0  0  0  0  0  0
   -2.4953    1.5074   -0.9327 H   0  0  0  0  0  0  0  0  0  0  0  0
   -2.3127    1.3389    2.7644 H   0  0  0  0  0  0  0  0  0  0  0  0
   -2.1185    0.2219    1.3710 H   0  0  0  0  0  0  0  0  0  0  0  0
   -0.1642    0.5200    3.7199 H   0  0  0  0  0  0  0  0  0  0  0  0
    0.0300   -0.5958    2.3256 H   0  0  0  0  0  0  0  0  0  0  0  0
   -2.0343   -1.6472    2.9533 H   0  0  0  0  0  0  0  0  0  0  0  0
   -2.2167   -0.6021    4.2581 H   0  0  0  0  0  0  0  0  0  0  0  0
   -0.9383   -1.6938    4.2275 H   0  0  0  0  0  0  0  0  0  0  0  0
    1.7205    2.5944    2.0035 H   0  0  0  0  0  0  0  0  0  0  0  0
    2.3504    4.7016    3.1518 H   0  0  0  0  0  0  0  0  0  0  0  0
   -2.4442    3.6540    2.3349 H   0  0  0  0  0  0  0  0  0  0  0  0
   -3.5112    4.5785    3.7865 H   0  0  0  0  0  0  0  0  0  0  0  0
   -3.4264    5.4216    2.2231 H   0  0  0  0  0  0  0  0  0  0  0  0
   -4.0746    6.3053    3.6757 H   0  0  0  0  0  0  0  0  0  0  0  0
    2.5139    6.7144    3.2411 H   0  0  0  0  0  0  0  0  0  0  0  0
    2.4297    5.8711    4.8044 H   0  0  0  0  0  0  0  0  0  0  0  0
    2.2505    7.6814    4.7599 H   0  0  0  0  0  0  0  0  0  0  0  0
  1  2  1  0  0  0  0
  2  3  1  0  0  0  0
  3  4  2  0  0  0  0
  3  5  2  0  0  0  0
  3  6  1  0  0  0  0
  6  7  1  0  0  0  0
  6 10  1  0  0  0  0
  7  8  1  0  0  0  0
  8  9  1  0  0  0  0
 10 15  2  0  0  0  0
 10 11  1  0  0  0  0
 11 12  2  0  0  0  0
 12 13  1  0  0  0  0
 13 14  2  0  0  0  0
 13 18  1  0  0  0  0
 14 15  1  0  0  0  0
 14 16  1  0  0  0  0
 16 17  1  0  0  0  0
 18 19  1  0  0  0  0
  1 20  1  0  0  0  0
  1 21  1  0  0  0  0
  1 22  1  0  0  0  0
  2 23  1  0  0  0  0
  2 24  1  0  0  0  0
  7 25  1  0  0  0  0
  7 26  1  0  0  0  0
  8 27  1  0  0  0  0
  8 28  1  0  0  0  0
  9 29  1  0  0  0  0
  9 30  1  0  0  0  0
  9 31  1  0  0  0  0
 11 32  1  0  0  0  0
 12 33  1  0  0  0  0
 15 34  1  0  0  0  0
 17 35  1  0  0  0  0
 17 36  1  0  0  0  0
 17 37  1  0  0  0  0
 19 38  1  0  0  0  0
 19 39  1  0  0  0  0
 19 40  1  0  0  0  0
M  CHG  1   9   1
M  END
> <Name>
ZINC20236119

> <reference>
BDB5222

> <quality>
0.747

> <status>
decoy

$$$$
ZINC02269343
  SciTegic06141217593D

 50 51  0  0  1  0            999 V2000
    2.0723    5.0934   -0.2071 C   0  0  0  0  0  0  0  0  0  0  0  0
    3.1699    5.8439   -0.9164 C   0  0  0  0  0  0  0  0  0  0  0  0
    4.1941    5.1854   -1.4336 C   0  0  0  0  0  0  0  0  0  0  0  0
    5.2630    5.8836   -2.2531 C   0  0  0  0  0  0  0  0  0  0  0  0
    6.5321    5.5344   -1.6876 O   0  0  0  0  0  0  0  0  0  0  0  0
    6.7075    4.2399   -1.3065 C   0  0  0  0  0  0  0  0  0  0  0  0
    7.9991    3.7594   -1.1370 C   0  0  0  0  0  0  0  0  0  0  0  0
    8.2070    2.4545   -0.7340 C   0  0  0  0  0  0  0  0  0  0  0  0
    7.1302    1.6171   -0.5080 C   0  0  0  0  0  0  0  0  0  0  0  0
    5.8417    2.0863   -0.6781 C   0  0  0  0  0  0  0  0  0  0  0  0
    5.6263    3.3966   -1.0801 C   0  0  0  0  0  0  0  0  0  0  0  0
    4.3480    3.8350   -1.2590 O   0  0  0  0  0  0  0  0  0  0  0  0
    3.1056    7.2368   -1.0281 N   0  0  0  0  0  0  0  0  0  0  0  0
    2.0697    7.9520   -0.3796 O   0  0  0  0  0  0  0  0  0  0  0  0
    2.1266    9.3659   -0.5789 C   0  0  0  0  0  0  0  0  0  0  0  0
    0.9663   10.0326    0.1627 C   0  0  2  0  0  0  0  0  0  0  0  0
    0.9534   11.5300   -0.1513 C   0  0  0  0  0  0  0  0  0  0  0  0
   -0.2044   13.6118    0.2824 C   0  0  2  0  0  0  0  0  0  0  0  0
   -0.3890   13.8358   -1.2199 C   0  0  0  0  0  0  0  0  0  0  0  0
   -1.3749   14.2422    1.0396 C   0  0  0  0  0  0  0  0  0  0  0  0
    1.1051   14.2590    0.7374 C   0  0  0  0  0  0  0  0  0  0  0  0
    1.1281    9.8423    1.5697 O   0  0  0  0  0  0  0  0  0  0  0  0
   -0.1676   12.1649    0.5672 N   0  3  0  0  0  0  0  0  0  0  0  0
    2.5779    4.5275    0.5892 H   0  0  0  0  0  0  0  0  0  0  0  0
    1.6999    4.3644   -0.9419 H   0  0  0  0  0  0  0  0  0  0  0  0
    1.2739    5.7426    0.1816 H   0  0  0  0  0  0  0  0  0  0  0  0
    5.1199    6.9730   -2.2009 H   0  0  0  0  0  0  0  0  0  0  0  0
    5.2139    5.5404   -3.2970 H   0  0  0  0  0  0  0  0  0  0  0  0
    8.8590    4.4194   -1.3241 H   0  0  0  0  0  0  0  0  0  0  0  0
    9.2318    2.0807   -0.5925 H   0  0  0  0  0  0  0  0  0  0  0  0
    7.2994    0.5769   -0.1927 H   0  0  0  0  0  0  0  0  0  0  0  0
    4.9858    1.4202   -0.4946 H   0  0  0  0  0  0  0  0  0  0  0  0
    3.8117    7.7422   -1.5820 H   0  0  0  0  0  0  0  0  0  0  0  0
    3.0801    9.7530   -0.1904 H   0  0  0  0  0  0  0  0  0  0  0  0
    2.0507    9.5892   -1.6533 H   0  0  0  0  0  0  0  0  0  0  0  0
    0.0167    9.5818   -0.1615 H   0  0  0  0  0  0  0  0  0  0  0  0
    1.9016   11.9822    0.1749 H   0  0  0  0  0  0  0  0  0  0  0  0
    0.8264   11.6785   -1.2338 H   0  0  0  0  0  0  0  0  0  0  0  0
   -0.4216   14.9152   -1.4295 H   0  0  0  0  0  0  0  0  0  0  0  0
   -1.3302   13.3706   -1.5481 H   0  0  0  0  0  0  0  0  0  0  0  0
    0.4522   13.3828   -1.7650 H   0  0  0  0  0  0  0  0  0  0  0  0
   -2.3170   13.7774    0.7134 H   0  0  0  0  0  0  0  0  0  0  0  0
   -1.4083   15.3219    0.8320 H   0  0  0  0  0  0  0  0  0  0  0  0
   -1.2428   14.0815    2.1198 H   0  0  0  0  0  0  0  0  0  0  0  0
    1.0733   15.3387    0.5296 H   0  0  0  0  0  0  0  0  0  0  0  0
    1.9474   13.8063    0.1937 H   0  0  0  0  0  0  0  0  0  0  0  0
    1.2384   14.0983    1.8174 H   0  0  0  0  0  0  0  0  0  0  0  0
    1.9825   10.2479    1.8624 H   0  0  0  0  0  0  0  0  0  0  0  0
   -0.0508   12.0200    1.5803 H   0  0  0  0  0  0  0  0  0  0  0  0
   -1.0537   11.7355    0.2651 H   0  0  0  0  0  0  0  0  0  0  0  0
  1  2  1  0  0  0  0
  2  3  2  0  0  0  0
  2 13  1  0  0  0  0
  3 12  1  0  0  0  0
  3  4  1  0  0  0  0
  4  5  1  0  0  0  0
  5  6  1  0  0  0  0
  6 11  2  0  0  0  0
  6  7  1  0  0  0  0
  7  8  2  0  0  0  0
  8  9  1  0  0  0  0
  9 10  2  0  0  0  0
 10 11  1  0  0  0  0
 11 12  1  0  0  0  0
 13 14  1  0  0  0  0
 14 15  1  0  0  0  0
 15 16  1  0  0  0  0
 16 17  1  0  0  0  0
 16 22  1  0  0  0  0
 17 23  1  0  0  0  0
 18 19  1  0  0  0  0
 18 20  1  0  0  0  0
 18 21  1  0  0  0  0
 18 23  1  0  0  0  0
  1 24  1  0  0  0  0
  1 25  1  0  0  0  0
  1 26  1  0  0  0  0
  4 27  1  0  0  0  0
  4 28  1  0  0  0  0
  7 29  1  0  0  0  0
  8 30  1  0  0  0  0
  9 31  1  0  0  0  0
 10 32  1  0  0  0  0
 13 33  1  0  0  0  0
 15 34  1  0  0  0  0
 15 35  1  0  0  0  0
 16 36  1  0  0  0  0
 17 37  1  0  0  0  0
 17 38  1  0  0  0  0
 19 39  1  0  0  0  0
 19 40  1  0  0  0  0
 19 41  1  0  0  0  0
 20 42  1  0  0  0  0
 20 43  1  0  0  0  0
 20 44  1  0  0  0  0
 21 45  1  0  0  0  0
 21 46  1  0  0  0  0
 21 47  1  0  0  0  0
 22 48  1  0  0  0  0
 23 49  1  0  0  0  0
 23 50  1  0  0  0  0
M  CHG  1  23   1
M  END
> <Name>
ZINC02269343

> <reference>
BDB5025

> <quality>
0.797

> <status>
decoy

$$$$
ZINC20236263
  SciTegic06141217593D

 41 41  0  0  1  0            999 V2000
    2.1972    5.6276    0.0104 C   0  0  0  0  0  0  0  0  0  0  0  0
    2.4192    4.1138    0.0007 C   0  0  0  0  0  0  0  0  0  0  0  0
    1.1554    3.4469    0.0091 O   0  0  0  0  0  0  0  0  0  0  0  0
    1.1747    2.0871    0.0021 C   0  0  0  0  0  0  0  0  0  0  0  0
   -0.0167    1.3769    0.0096 C   0  0  0  0  0  0  0  0  0  0  0  0
    0.0021   -0.0041    0.0020 C   0  0  0  0  0  0  0  0  0  0  0  0
    1.2141   -0.6815   -0.0132 C   0  0  0  0  0  0  0  0  0  0  0  0
    2.4064    0.0303   -0.0208 C   0  0  0  0  0  0  0  0  0  0  0  0
    2.3858    1.4112   -0.0132 C   0  0  0  0  0  0  0  0  0  0  0  0
    1.2340   -2.0807   -0.0205 N   0  0  0  0  0  0  0  0  0  0  0  0
    0.1000   -2.8323    0.5230 C   0  0  0  0  0  0  0  0  0  0  0  0
   -0.9730   -2.9881   -0.5565 C   0  0  0  0  0  0  0  0  0  0  0  0
   -2.1101   -3.7417   -0.0115 N   0  3  0  0  0  0  0  0  0  0  0  0
    2.5395   -2.8870   -0.6434 S   0  0  0  0  0  0  0  0  0  0  0  0
    2.0486   -4.1158   -1.1614 O   0  0  0  0  0  0  0  0  0  0  0  0
    3.2499   -1.9524   -1.4441 O   0  0  0  0  0  0  0  0  0  0  0  0
    3.5298   -3.2709    0.6271 N   0  0  0  0  0  0  0  0  0  0  0  0
    3.4463   -4.5958    1.2466 C   0  0  0  0  0  0  0  0  0  0  0  0
    4.4894   -2.2855    1.1316 C   0  0  0  0  0  0  0  0  0  0  0  0
    1.6395    5.9116    0.9150 H   0  0  0  0  0  0  0  0  0  0  0  0
    1.6228    5.9207   -0.8808 H   0  0  0  0  0  0  0  0  0  0  0  0
    3.1697    6.1416    0.0039 H   0  0  0  0  0  0  0  0  0  0  0  0
    2.9766    3.8306   -0.9043 H   0  0  0  0  0  0  0  0  0  0  0  0
    2.9936    3.8206    0.8918 H   0  0  0  0  0  0  0  0  0  0  0  0
   -0.9768    1.9137    0.0216 H   0  0  0  0  0  0  0  0  0  0  0  0
   -0.9428   -0.5672    0.0080 H   0  0  0  0  0  0  0  0  0  0  0  0
    3.3670   -0.5055   -0.0329 H   0  0  0  0  0  0  0  0  0  0  0  0
    3.3302    1.9752   -0.0193 H   0  0  0  0  0  0  0  0  0  0  0  0
    0.4405   -3.8268    0.8470 H   0  0  0  0  0  0  0  0  0  0  0  0
   -0.3218   -2.2911    1.3828 H   0  0  0  0  0  0  0  0  0  0  0  0
   -0.5533   -3.5302   -1.4167 H   0  0  0  0  0  0  0  0  0  0  0  0
   -1.3143   -1.9939   -0.8807 H   0  0  0  0  0  0  0  0  0  0  0  0
   -2.5050   -3.2348    0.7935 H   0  0  0  0  0  0  0  0  0  0  0  0
   -1.7920   -4.6730    0.2924 H   0  0  0  0  0  0  0  0  0  0  0  0
   -2.8328   -3.8469   -0.7378 H   0  0  0  0  0  0  0  0  0  0  0  0
    3.6042   -5.2986    0.4152 H   0  0  0  0  0  0  0  0  0  0  0  0
    2.3916   -4.6949    1.5428 H   0  0  0  0  0  0  0  0  0  0  0  0
    4.1411   -4.7624    2.0830 H   0  0  0  0  0  0  0  0  0  0  0  0
    3.8764   -1.4063    1.3792 H   0  0  0  0  0  0  0  0  0  0  0  0
    5.0890   -2.0100    0.2515 H   0  0  0  0  0  0  0  0  0  0  0  0
    5.1053   -2.6269    1.9767 H   0  0  0  0  0  0  0  0  0  0  0  0
  1  2  1  0  0  0  0
  2  3  1  0  0  0  0
  3  4  1  0  0  0  0
  4  9  2  0  0  0  0
  4  5  1  0  0  0  0
  5  6  2  0  0  0  0
  6  7  1  0  0  0  0
  7  8  2  0  0  0  0
  7 10  1  0  0  0  0
  8  9  1  0  0  0  0
 10 11  1  0  0  0  0
 10 14  1  0  0  0  0
 11 12  1  0  0  0  0
 12 13  1  0  0  0  0
 14 15  2  0  0  0  0
 14 16  2  0  0  0  0
 14 17  1  0  0  0  0
 17 18  1  0  0  0  0
 17 19  1  0  0  0  0
  1 20  1  0  0  0  0
  1 21  1  0  0  0  0
  1 22  1  0  0  0  0
  2 23  1  0  0  0  0
  2 24  1  0  0  0  0
  5 25  1  0  0  0  0
  6 26  1  0  0  0  0
  8 27  1  0  0  0  0
  9 28  1  0  0  0  0
 11 29  1  0  0  0  0
 11 30  1  0  0  0  0
 12 31  1  0  0  0  0
 12 32  1  0  0  0  0
 13 33  1  0  0  0  0
 13 34  1  0  0  0  0
 13 35  1  0  0  0  0
 18 36  1  0  0  0  0
 18 37  1  0  0  0  0
 18 38  1  0  0  0  0
 19 39  1  0  0  0  0
 19 40  1  0  0  0  0
 19 41  1  0  0  0  0
M  CHG  1  13   1
M  END
> <Name>
ZINC20236263

> <reference>
BDB5195

> <quality>
0.791

> <status>
decoy

$$$$
ZINC06382443
  SciTegic06141217593D

 40 41  0  0  1  0            999 V2000
    4.2277    0.4826    2.1967 C   0  0  0  0  0  0  0  0  0  0  0  0
    3.5310    1.4728    1.2613 C   0  0  0  0  0  0  0  0  0  0  0  0
    1.4519    1.5908    2.4967 C   0  0  0  0  0  0  0  0  0  0  0  0
    1.4669    3.1163    2.6142 C   0  0  0  0  0  0  0  0  0  0  0  0
    1.4457    1.8456    0.0888 C   0  0  0  0  0  0  0  0  0  0  0  0
    0.0743    1.2129   -0.1558 C   0  0  2  0  0  0  0  0  0  0  0  0
   -0.5526    1.8235   -1.4109 C   0  0  0  0  0  0  0  0  0  0  0  0
   -1.8657    1.2177   -1.6451 N   0  0  0  0  0  0  0  0  0  0  0  0
   -2.6074    1.6039   -2.7029 C   0  0  0  0  0  0  0  0  0  0  0  0
   -2.1775    2.5301   -3.5409 N   0  0  0  0  0  0  0  0  0  0  0  0
   -2.8869    2.9926   -4.5642 C   0  0  0  0  0  0  0  0  0  0  0  0
   -4.1998    2.8159   -4.6590 N   0  0  0  0  0  0  0  0  0  0  0  0
   -4.7552    2.0785   -3.6982 C   0  0  0  0  0  0  0  0  0  0  0  0
   -5.8855    2.1634   -3.0330 N   0  0  0  0  0  0  0  0  0  0  0  0
   -5.8562    1.4291   -1.9133 C   0  0  0  0  0  0  0  0  0  0  0  0
   -4.7545    0.7471   -1.7725 N   0  0  0  0  0  0  0  0  0  0  0  0
   -3.9604    1.0009   -2.9713 C   0  0  2  0  0  0  0  0  0  0  0  0
   -0.7722    1.4611    0.9684 O   0  0  0  0  0  0  0  0  0  0  0  0
    2.0862    1.1623    1.2323 N   0  3  0  0  0  0  0  0  0  0  0  0
    4.0820   -0.5440    1.8295 H   0  0  0  0  0  0  0  0  0  0  0  0
    3.8141    0.5734    3.2119 H   0  0  0  0  0  0  0  0  0  0  0  0
    5.3042    0.7070    2.2239 H   0  0  0  0  0  0  0  0  0  0  0  0
    3.9478    1.3794    0.2476 H   0  0  0  0  0  0  0  0  0  0  0  0
    3.6799    2.4975    1.6324 H   0  0  0  0  0  0  0  0  0  0  0  0
    0.4121    1.2328    2.5208 H   0  0  0  0  0  0  0  0  0  0  0  0
    2.0007    1.1547    3.3444 H   0  0  0  0  0  0  0  0  0  0  0  0
    0.9182    3.5476    1.7640 H   0  0  0  0  0  0  0  0  0  0  0  0
    2.5087    3.4685    2.5887 H   0  0  0  0  0  0  0  0  0  0  0  0
    0.9930    3.4249    3.5577 H   0  0  0  0  0  0  0  0  0  0  0  0
    1.3238    2.9141    0.3200 H   0  0  0  0  0  0  0  0  0  0  0  0
    2.0714    1.7274   -0.8082 H   0  0  0  0  0  0  0  0  0  0  0  0
    0.1906    0.1279   -0.2947 H   0  0  0  0  0  0  0  0  0  0  0  0
   -0.6694    2.9084   -1.2719 H   0  0  0  0  0  0  0  0  0  0  0  0
    0.0981    1.6328   -2.2770 H   0  0  0  0  0  0  0  0  0  0  0  0
   -2.2224    0.4968   -1.0017 H   0  0  0  0  0  0  0  0  0  0  0  0
   -2.3676    3.5425   -5.3629 H   0  0  0  0  0  0  0  0  0  0  0  0
   -6.6801    1.4041   -1.1849 H   0  0  0  0  0  0  0  0  0  0  0  0
   -3.7910    0.0522   -3.5017 H   0  0  0  0  0  0  0  0  0  0  0  0
   -0.8776    2.4374    1.0941 H   0  0  0  0  0  0  0  0  0  0  0  0
    1.9646    0.1451    1.1251 H   0  0  0  0  0  0  0  0  0  0  0  0
  1  2  1  0  0  0  0
  2 19  1  0  0  0  0
  3  4  1  0  0  0  0
  3 19  1  0  0  0  0
  5  6  1  0  0  0  0
  5 19  1  0  0  0  0
  6  7  1  0  0  0  0
  6 18  1  0  0  0  0
  7  8  1  0  0  0  0
  8  9  1  0  0  0  0
  9 17  1  0  0  0  0
  9 10  2  0  0  0  0
 10 11  1  0  0  0  0
 11 12  2  0  0  0  0
 12 13  1  0  0  0  0
 13 17  1  0  0  0  0
 13 14  2  0  0  0  0
 14 15  1  0  0  0  0
 15 16  2  0  0  0  0
 16 17  1  0  0  0  0
  1 20  1  0  0  0  0
  1 21  1  0  0  0  0
  1 22  1  0  0  0  0
  2 23  1  0  0  0  0
  2 24  1  0  0  0  0
  3 25  1  0  0  0  0
  3 26  1  0  0  0  0
  4 27  1  0  0  0  0
  4 28  1  0  0  0  0
  4 29  1  0  0  0  0
  5 30  1  0  0  0  0
  5 31  1  0  0  0  0
  6 32  1  0  0  0  0
  7 33  1  0  0  0  0
  7 34  1  0  0  0  0
  8 35  1  0  0  0  0
 11 36  1  0  0  0  0
 15 37  1  0  0  0  0
 17 38  1  0  0  0  0
 18 39  1  0  0  0  0
 19 40  1  0  0  0  0
M  CHG  1  19   1
M  END
> <Name>
ZINC06382443

> <reference>
BDB5222

> <quality>
0.774

> <status>
decoy

$$$$
ZINC12398420
  SciTegic06141217593D

 39 40  0  0  0  0            999 V2000
    0.1999    6.1299    1.4711 C   0  0  0  0  0  0  0  0  0  0  0  0
    1.7060    6.0783    1.4577 C   0  0  0  0  0  0  0  0  0  0  0  0
    2.5408    7.1432    1.4554 C   0  0  0  0  0  0  0  0  0  0  0  0
    3.8536    6.6610    1.4412 C   0  0  0  0  0  0  0  0  0  0  0  0
    3.8087    5.3534    1.4409 N   0  0  0  0  0  0  0  0  0  0  0  0
    2.4637    4.9617    1.4455 N   0  0  0  0  0  0  0  0  0  0  0  0
    1.9674    3.5833    1.4438 C   0  0  0  0  0  0  0  0  0  0  0  0
    1.7812    3.1101    0.0008 C   0  0  0  0  0  0  0  0  0  0  0  0
    1.2707    1.6922   -0.0010 C   0  0  0  0  0  0  0  0  0  0  0  0
   -0.0158    1.3136    0.0093 N   0  0  0  0  0  0  0  0  0  0  0  0
    0.0021   -0.0041    0.0020 C   0  0  0  0  0  0  0  0  0  0  0  0
    1.2920   -0.3725   -0.0123 O   0  0  0  0  0  0  0  0  0  0  0  0
    1.9983    0.6138   -0.0137 N   0  0  0  0  0  0  0  0  0  0  0  0
   -1.1753   -0.9049    0.0089 C   0  0  0  0  0  0  0  0  0  0  0  0
   -2.2970   -0.4384    0.0225 O   0  0  0  0  0  0  0  0  0  0  0  0
   -1.0013   -2.2414    0.0000 N   0  0  0  0  0  0  0  0  0  0  0  0
   -2.1648   -3.1316    0.0067 C   0  0  0  0  0  0  0  0  0  0  0  0
   -1.6933   -4.5871   -0.0058 C   0  0  0  0  0  0  0  0  0  0  0  0
    5.1040    7.5022    1.4340 C   0  0  1  0  0  0  0  0  0  0  0  0
    5.5028    7.7561    2.7506 F   0  0  0  0  0  0  0  0  0  0  0  0
    6.1225    6.8179    0.7620 F   0  0  0  0  0  0  0  0  0  0  0  0
    4.8474    8.7134    0.7826 F   0  0  0  0  0  0  0  0  0  0  0  0
   -2.8708   -5.4730   -0.0209 N   0  3  0  0  0  0  0  0  0  0  0  0
   -0.0531    5.5161    2.3481 H   0  0  0  0  0  0  0  0  0  0  0  0
   -0.0685    5.5249    0.5925 H   0  0  0  0  0  0  0  0  0  0  0  0
   -0.2540    7.1319    1.4801 H   0  0  0  0  0  0  0  0  0  0  0  0
    2.2401    8.2013    1.4633 H   0  0  0  0  0  0  0  0  0  0  0  0
    2.6932    2.9315    1.9521 H   0  0  0  0  0  0  0  0  0  0  0  0
    1.0028    3.5390    1.9707 H   0  0  0  0  0  0  0  0  0  0  0  0
    1.0552    3.7613   -0.5080 H   0  0  0  0  0  0  0  0  0  0  0  0
    2.7451    3.1526   -0.5275 H   0  0  0  0  0  0  0  0  0  0  0  0
   -0.0503   -2.6369   -0.0115 H   0  0  0  0  0  0  0  0  0  0  0  0
   -2.7620   -2.9480    0.9120 H   0  0  0  0  0  0  0  0  0  0  0  0
   -2.7806   -2.9388   -0.8842 H   0  0  0  0  0  0  0  0  0  0  0  0
   -1.0939   -4.7884    0.8943 H   0  0  0  0  0  0  0  0  0  0  0  0
   -1.0851   -4.7691   -0.9041 H   0  0  0  0  0  0  0  0  0  0  0  0
   -3.4340   -5.2886   -0.8633 H   0  0  0  0  0  0  0  0  0  0  0  0
   -3.4426   -5.3059    0.8193 H   0  0  0  0  0  0  0  0  0  0  0  0
   -2.5583   -6.4544   -0.0294 H   0  0  0  0  0  0  0  0  0  0  0  0
  1  2  1  0  0  0  0
  2  6  1  0  0  0  0
  2  3  2  0  0  0  0
  3  4  1  0  0  0  0
  4  5  2  0  0  0  0
  4 19  1  0  0  0  0
  5  6  1  0  0  0  0
  6  7  1  0  0  0  0
  7  8  1  0  0  0  0
  8  9  1  0  0  0  0
  9 13  2  0  0  0  0
  9 10  1  0  0  0  0
 10 11  2  0  0  0  0
 11 12  1  0  0  0  0
 11 14  1  0  0  0  0
 12 13  1  0  0  0  0
 14 15  2  0  0  0  0
 14 16  1  0  0  0  0
 16 17  1  0  0  0  0
 17 18  1  0  0  0  0
 18 23  1  0  0  0  0
 19 20  1  0  0  0  0
 19 21  1  0  0  0  0
 19 22  1  0  0  0  0
  1 24  1  0  0  0  0
  1 25  1  0  0  0  0
  1 26  1  0  0  0  0
  3 27  1  0  0  0  0
  7 28  1  0  0  0  0
  7 29  1  0  0  0  0
  8 30  1  0  0  0  0
  8 31  1  0  0  0  0
 16 32  1  0  0  0  0
 17 33  1  0  0  0  0
 17 34  1  0  0  0  0
 18 35  1  0  0  0  0
 18 36  1  0  0  0  0
 23 37  1  0  0  0  0
 23 38  1  0  0  0  0
 23 39  1  0  0  0  0
M  CHG  1  23   1
M  END
> <Name>
ZINC12398420

> <reference>
BDB5025

> <quality>
0.738

> <status>
decoy

$$$$
ZINC21038636
  SciTegic06141217593D

 35 37  0  0  0  0            999 V2000
   17.5203   -1.2284   -0.1708 C   0  0  0  0  0  0  0  0  0  0  0  0
   16.4000   -2.0403   -0.1585 C   0  0  0  0  0  0  0  0  0  0  0  0
   15.1386   -1.4308   -0.1494 C   0  0  0  0  0  0  0  0  0  0  0  0
   15.0641   -0.0356   -0.1417 C   0  0  0  0  0  0  0  0  0  0  0  0
   16.1606    0.6930   -0.1483 N   0  0  0  0  0  0  0  0  0  0  0  0
   17.3612    0.1457   -0.1624 C   0  0  0  0  0  0  0  0  0  0  0  0
   13.9111   -2.2475   -0.1421 C   0  0  0  0  0  0  0  0  0  0  0  0
   12.7477   -1.6708   -0.1282 N   0  0  0  0  0  0  0  0  0  0  0  0
   11.5813   -2.4468   -0.1212 N   0  0  0  0  0  0  0  0  0  0  0  0
   10.3382   -1.8307   -0.1065 C   0  0  0  0  0  0  0  0  0  0  0  0
    9.1269   -2.4649   -0.0983 N   0  0  0  0  0  0  0  0  0  0  0  0
    8.1504   -1.5100   -0.0839 C   0  0  0  0  0  0  0  0  0  0  0  0
    8.7327   -0.3346   -0.0888 N   0  0  0  0  0  0  0  0  0  0  0  0
   10.1188   -0.5382   -0.0974 N   0  0  0  0  0  0  0  0  0  0  0  0
    6.4134   -1.8052   -0.0689 S   0  0  0  0  0  0  0  0  0  0  0  0
    5.6860   -0.1435   -0.0530 C   0  0  0  0  0  0  0  0  0  0  0  0
    4.1830   -0.2532   -0.0392 C   0  0  0  0  0  0  0  0  0  0  0  0
    3.6547   -1.3448   -0.0401 O   0  0  0  0  0  0  0  0  0  0  0  0
    3.4261    0.8619   -0.0260 N   0  0  0  0  0  0  0  0  0  0  0  0
    2.0399    0.7607   -0.0133 C   0  0  0  0  0  0  0  0  0  0  0  0
    1.3111   -0.3926   -0.0126 N   0  0  0  0  0  0  0  0  0  0  0  0
    0.0021   -0.0041    0.0020 C   0  0  0  0  0  0  0  0  0  0  0  0
   -0.0156    1.2995    0.0093 N   0  0  0  0  0  0  0  0  0  0  0  0
    1.1859    1.7559    0.0003 N   0  5  0  0  0  0  0  0  0  0  0  0
   18.5272   -1.6711   -0.1871 H   0  0  0  0  0  0  0  0  0  0  0  0
   16.4972   -3.1360   -0.1559 H   0  0  0  0  0  0  0  0  0  0  0  0
   14.0812    0.4581   -0.1300 H   0  0  0  0  0  0  0  0  0  0  0  0
   18.2505    0.7931   -0.1676 H   0  0  0  0  0  0  0  0  0  0  0  0
   13.9808   -3.3453   -0.1484 H   0  0  0  0  0  0  0  0  0  0  0  0
   11.6466   -3.4747   -0.1270 H   0  0  0  0  0  0  0  0  0  0  0  0
   10.8390    0.1982   -0.0967 H   0  0  0  0  0  0  0  0  0  0  0  0
    6.0046    0.4060   -0.9511 H   0  0  0  0  0  0  0  0  0  0  0  0
    6.0221    0.3954    0.8451 H   0  0  0  0  0  0  0  0  0  0  0  0
    3.8749    1.7890   -0.0253 H   0  0  0  0  0  0  0  0  0  0  0  0
   -0.8749   -0.6680    0.0067 H   0  0  0  0  0  0  0  0  0  0  0  0
  1  6  2  0  0  0  0
  1  2  1  0  0  0  0
  2  3  2  0  0  0  0
  3  4  1  0  0  0  0
  3  7  1  0  0  0  0
  4  5  2  0  0  0  0
  5  6  1  0  0  0  0
  7  8  2  0  0  0  0
  8  9  1  0  0  0  0
  9 10  1  0  0  0  0
 10 14  1  0  0  0  0
 10 11  2  0  0  0  0
 11 12  1  0  0  0  0
 12 13  2  0  0  0  0
 12 15  1  0  0  0  0
 13 14  1  0  0  0  0
 15 16  1  0  0  0  0
 16 17  1  0  0  0  0
 17 18  2  0  0  0  0
 17 19  1  0  0  0  0
 19 20  1  0  0  0  0
 20 21  2  0  0  0  0
 20 24  1  0  0  0  0
 21 22  1  0  0  0  0
 22 23  2  0  0  0  0
 23 24  1  0  0  0  0
  1 25  1  0  0  0  0
  2 26  1  0  0  0  0
  4 27  1  0  0  0  0
  6 28  1  0  0  0  0
  7 29  1  0  0  0  0
  9 30  1  0  0  0  0
 14 31  1  0  0  0  0
 16 32  1  0  0  0  0
 16 33  1  0  0  0  0
 19 34  1  0  0  0  0
 22 35  1  0  0  0  0
M  CHG  1  24  -1
M  END
> <Name>
ZINC21038636

> <reference>
BDB5244

> <quality>
0.692

> <status>
decoy

$$$$
ZINC26540596
  SciTegic06141217593D

 37 38  0  0  0  0            999 V2000
   -3.1310    0.2635    5.6359 C   0  0  0  0  0  0  0  0  0  0  0  0
   -4.0471    0.1652    4.4970 N   0  0  0  0  0  0  0  0  0  0  0  0
   -5.3943    0.2665    4.5402 C   0  0  0  0  0  0  0  0  0  0  0  0
   -5.8636    0.1258    3.3309 N   0  0  0  0  0  0  0  0  0  0  0  0
   -4.8444   -0.0683    2.4802 C   0  0  0  0  0  0  0  0  0  0  0  0
   -3.6992   -0.0521    3.1911 C   0  0  0  0  0  0  0  0  0  0  0  0
   -2.0921   -0.2630    2.5694 Cl  0  0  0  0  0  0  0  0  0  0  0  0
   -4.9797   -0.3097    0.7401 S   0  0  0  0  0  0  0  0  0  0  0  0
   -6.2879   -0.8099    0.5000 O   0  0  0  0  0  0  0  0  0  0  0  0
   -3.8106   -1.0085    0.3349 O   0  0  0  0  0  0  0  0  0  0  0  0
   -4.9071    1.1852    0.0313 N   0  5  0  0  0  0  0  0  0  0  0  0
   -3.7574    1.9719    0.1726 C   0  0  0  0  0  0  0  0  0  0  0  0
   -2.5058    1.3757    0.1979 C   0  0  0  0  0  0  0  0  0  0  0  0
   -1.3718    2.1546    0.3370 C   0  0  0  0  0  0  0  0  0  0  0  0
   -1.4817    3.5275    0.4568 C   0  0  0  0  0  0  0  0  0  0  0  0
   -2.7254    4.1308    0.4269 C   0  0  0  0  0  0  0  0  0  0  0  0
   -3.8679    3.3575    0.2878 C   0  0  0  0  0  0  0  0  0  0  0  0
   -5.1288    3.9658    0.2625 N   0  0  0  0  0  0  0  0  0  0  0  0
   -5.2424    5.4213    0.3837 C   0  0  0  0  0  0  0  0  0  0  0  0
   -6.7173    5.8243    0.3269 C   0  0  0  0  0  0  0  0  0  0  0  0
   -7.3996    5.2957    1.4658 O   0  0  0  0  0  0  0  0  0  0  0  0
   -0.0368    1.5160    0.3637 N   0  0  0  0  0  0  0  0  0  0  0  0
    0.0617    0.3062    0.2633 O   0  0  0  0  0  0  0  0  0  0  0  0
    0.9635    2.2008    0.4812 O   0  0  0  0  0  0  0  0  0  0  0  0
   -2.4366    1.0525    5.3115 H   0  0  0  0  0  0  0  0  0  0  0  0
   -2.5660   -0.6776    5.5650 H   0  0  0  0  0  0  0  0  0  0  0  0
   -3.5831    0.4419    6.6227 H   0  0  0  0  0  0  0  0  0  0  0  0
   -5.9955    0.4390    5.4451 H   0  0  0  0  0  0  0  0  0  0  0  0
   -2.4150    0.2832    0.1073 H   0  0  0  0  0  0  0  0  0  0  0  0
   -0.5770    4.1417    0.5763 H   0  0  0  0  0  0  0  0  0  0  0  0
   -2.8085    5.2242    0.5135 H   0  0  0  0  0  0  0  0  0  0  0  0
   -5.9764    3.3899    0.1587 H   0  0  0  0  0  0  0  0  0  0  0  0
   -4.6995    5.9027   -0.4430 H   0  0  0  0  0  0  0  0  0  0  0  0
   -4.8113    5.7443    1.3428 H   0  0  0  0  0  0  0  0  0  0  0  0
   -6.7981    6.9213    0.3282 H   0  0  0  0  0  0  0  0  0  0  0  0
   -7.1728    5.4241   -0.5909 H   0  0  0  0  0  0  0  0  0  0  0  0
   -6.9914    5.6558    2.2927 H   0  0  0  0  0  0  0  0  0  0  0  0
  1  2  1  0  0  0  0
  2  6  1  0  0  0  0
  2  3  1  0  0  0  0
  3  4  2  0  0  0  0
  4  5  1  0  0  0  0
  5  6  2  0  0  0  0
  5  8  1  0  0  0  0
  6  7  1  0  0  0  0
  8  9  2  0  0  0  0
  8 10  2  0  0  0  0
  8 11  1  0  0  0  0
 11 12  1  0  0  0  0
 12 17  2  0  0  0  0
 12 13  1  0  0  0  0
 13 14  2  0  0  0  0
 14 15  1  0  0  0  0
 14 22  1  0  0  0  0
 15 16  2  0  0  0  0
 16 17  1  0  0  0  0
 17 18  1  0  0  0  0
 18 19  1  0  0  0  0
 19 20  1  0  0  0  0
 20 21  1  0  0  0  0
 22 23  2  0  0  0  0
 22 24  2  0  0  0  0
  1 25  1  0  0  0  0
  1 26  1  0  0  0  0
  1 27  1  0  0  0  0
  3 28  1  0  0  0  0
 13 29  1  0  0  0  0
 15 30  1  0  0  0  0
 16 31  1  0  0  0  0
 18 32  1  0  0  0  0
 19 33  1  0  0  0  0
 19 34  1  0  0  0  0
 20 35  1  0  0  0  0
 20 36  1  0  0  0  0
 21 37  1  0  0  0  0
M  CHG  1  11  -1
M  END
> <Name>
ZINC26540596

> <reference>
BDB4952

> <quality>
0.738

> <status>
decoy

$$$$
ZINC01843099
  SciTegic06141217593D

 55 57  0  0  1  0            999 V2000
    3.4405    3.5987   -0.0114 C   0  0  0  0  0  0  0  0  0  0  0  0
    3.4745    2.1341   -0.0196 N   0  0  0  0  0  0  0  0  0  0  0  0
    4.7598    1.4313   -0.0357 C   0  0  0  0  0  0  0  0  0  0  0  0
    5.1935    1.1944   -1.4837 C   0  0  0  0  0  0  0  0  0  0  0  0
    6.5358    0.4604   -1.5004 C   0  0  0  0  0  0  0  0  0  0  0  0
    6.9511    0.2336   -2.8869 N   0  0  0  0  0  0  0  0  0  0  0  0
    8.1113   -0.4007   -3.1477 C   0  0  0  0  0  0  0  0  0  0  0  0
    8.8116   -0.7838   -2.2345 O   0  0  0  0  0  0  0  0  0  0  0  0
    8.5385   -0.6341   -4.5739 C   0  0  1  0  0  0  0  0  0  0  0  0
    8.8086    0.7153   -5.2674 C   0  0  0  0  0  0  0  0  0  0  0  0
   10.2846    0.6185   -5.7241 C   0  0  0  0  0  0  0  0  0  0  0  0
   10.5200   -0.9135   -5.7393 C   0  0  0  0  0  0  0  0  0  0  0  0
    9.7661   -1.3814   -4.6004 O   0  0  0  0  0  0  0  0  0  0  0  0
    2.2924    1.4145   -0.0122 C   0  0  0  0  0  0  0  0  0  0  0  0
    1.1504    2.0746    0.0022 N   0  0  0  0  0  0  0  0  0  0  0  0
   -0.0171    1.4123    0.0098 C   0  0  0  0  0  0  0  0  0  0  0  0
   -1.2457    2.0842    0.0309 C   0  0  0  0  0  0  0  0  0  0  0  0
   -2.4164    1.3584    0.0338 C   0  0  0  0  0  0  0  0  0  0  0  0
   -2.3896   -0.0430    0.0255 C   0  0  0  0  0  0  0  0  0  0  0  0
   -1.2027   -0.7183    0.0101 C   0  0  0  0  0  0  0  0  0  0  0  0
    0.0021   -0.0041    0.0020 C   0  0  0  0  0  0  0  0  0  0  0  0
    1.2579   -0.6576   -0.0135 C   0  0  0  0  0  0  0  0  0  0  0  0
    2.3548    0.0861   -0.0199 N   0  0  0  0  0  0  0  0  0  0  0  0
    1.3377   -2.0347   -0.0221 N   0  0  0  0  0  0  0  0  0  0  0  0
   -3.5587   -0.7381    0.0334 O   0  0  0  0  0  0  0  0  0  0  0  0
   -3.4658   -2.1641    0.0248 C   0  0  0  0  0  0  0  0  0  0  0  0
   -3.6096    2.0077    0.0500 O   0  0  0  0  0  0  0  0  0  0  0  0
   -3.5708    3.4361    0.0577 C   0  0  0  0  0  0  0  0  0  0  0  0
    4.0163    3.8990   -0.8993 H   0  0  0  0  0  0  0  0  0  0  0  0
    4.0332    3.8895    0.8684 H   0  0  0  0  0  0  0  0  0  0  0  0
    2.4280    4.0286    0.0006 H   0  0  0  0  0  0  0  0  0  0  0  0
    5.5176    2.0408    0.4784 H   0  0  0  0  0  0  0  0  0  0  0  0
    4.6567    0.4642    0.4782 H   0  0  0  0  0  0  0  0  0  0  0  0
    4.4363    0.5846   -1.9983 H   0  0  0  0  0  0  0  0  0  0  0  0
    5.2983    2.1606   -1.9990 H   0  0  0  0  0  0  0  0  0  0  0  0
    7.2936    1.0699   -0.9862 H   0  0  0  0  0  0  0  0  0  0  0  0
    6.4326   -0.5067   -0.9865 H   0  0  0  0  0  0  0  0  0  0  0  0
    6.3564    0.5589   -3.6624 H   0  0  0  0  0  0  0  0  0  0  0  0
    7.7361   -1.1835   -5.0881 H   0  0  0  0  0  0  0  0  0  0  0  0
    8.6884    1.5412   -4.5509 H   0  0  0  0  0  0  0  0  0  0  0  0
    8.1497    0.8309   -6.1406 H   0  0  0  0  0  0  0  0  0  0  0  0
   10.3998    1.0326   -6.7366 H   0  0  0  0  0  0  0  0  0  0  0  0
   10.9461    1.0991   -4.9883 H   0  0  0  0  0  0  0  0  0  0  0  0
   11.5893   -1.1343   -5.6060 H   0  0  0  0  0  0  0  0  0  0  0  0
   10.1199   -1.3486   -6.6670 H   0  0  0  0  0  0  0  0  0  0  0  0
   -1.2756    3.1837    0.0451 H   0  0  0  0  0  0  0  0  0  0  0  0
   -1.1929   -1.8182    0.0041 H   0  0  0  0  0  0  0  0  0  0  0  0
    0.4711   -2.5914   -0.0171 H   0  0  0  0  0  0  0  0  0  0  0  0
    2.2546   -2.5038   -0.0334 H   0  0  0  0  0  0  0  0  0  0  0  0
   -2.8690   -2.4404    0.9066 H   0  0  0  0  0  0  0  0  0  0  0  0
   -2.8867   -2.4308   -0.8716 H   0  0  0  0  0  0  0  0  0  0  0  0
   -4.4503   -2.6547    0.0320 H   0  0  0  0  0  0  0  0  0  0  0  0
   -3.0030    3.7349   -0.8358 H   0  0  0  0  0  0  0  0  0  0  0  0
   -2.9843    3.7248    0.9424 H   0  0  0  0  0  0  0  0  0  0  0  0
   -4.5732    3.8889    0.0708 H   0  0  0  0  0  0  0  0  0  0  0  0
  1  2  1  0  0  0  0
  2  3  1  0  0  0  0
  2 14  1  0  0  0  0
  3  4  1  0  0  0  0
  4  5  1  0  0  0  0
  5  6  1  0  0  0  0
  6  7  1  0  0  0  0
  7  8  2  0  0  0  0
  7  9  1  0  0  0  0
  9 13  1  0  0  0  0
  9 10  1  0  0  0  0
 10 11  1  0  0  0  0
 11 12  1  0  0  0  0
 12 13  1  0  0  0  0
 14 23  2  0  0  0  0
 14 15  1  0  0  0  0
 15 16  2  0  0  0  0
 16 21  1  0  0  0  0
 16 17  1  0  0  0  0
 17 18  2  0  0  0  0
 18 19  1  0  0  0  0
 18 27  1  0  0  0  0
 19 20  2  0  0  0  0
 19 25  1  0  0  0  0
 20 21  1  0  0  0  0
 21 22  2  0  0  0  0
 22 23  1  0  0  0  0
 22 24  1  0  0  0  0
 25 26  1  0  0  0  0
 27 28  1  0  0  0  0
  1 29  1  0  0  0  0
  1 30  1  0  0  0  0
  1 31  1  0  0  0  0
  3 32  1  0  0  0  0
  3 33  1  0  0  0  0
  4 34  1  0  0  0  0
  4 35  1  0  0  0  0
  5 36  1  0  0  0  0
  5 37  1  0  0  0  0
  6 38  1  0  0  0  0
  9 39  1  0  0  0  0
 10 40  1  0  0  0  0
 10 41  1  0  0  0  0
 11 42  1  0  0  0  0
 11 43  1  0  0  0  0
 12 44  1  0  0  0  0
 12 45  1  0  0  0  0
 17 46  1  0  0  0  0
 20 47  1  0  0  0  0
 24 48  1  0  0  0  0
 24 49  1  0  0  0  0
 26 50  1  0  0  0  0
 26 51  1  0  0  0  0
 26 52  1  0  0  0  0
 28 53  1  0  0  0  0
 28 54  1  0  0  0  0
 28 55  1  0  0  0  0
M  END
> <Name>
ZINC01843099

> <reference>
BDB4945

> <quality>
0.747

> <status>
decoy

$$$$
ZINC03978077
  SciTegic06141217593D

 32 33  0  0  1  0            999 V2000
   -4.8929   -0.3699    1.0452 C   0  0  0  0  0  0  0  0  0  0  0  0
   -5.6582   -0.8530    0.0986 N   0  0  0  0  0  0  0  0  0  0  0  0
   -5.6296   -2.1603   -0.1970 C   0  0  0  0  0  0  0  0  0  0  0  0
   -4.8231   -2.9801    0.4625 N   0  0  0  0  0  0  0  0  0  0  0  0
   -4.0317   -2.5045    1.4281 C   0  0  0  0  0  0  0  0  0  0  0  0
   -3.2886   -3.2549    2.0375 O   0  0  0  0  0  0  0  0  0  0  0  0
   -4.0605   -1.1889    1.7248 N   0  0  0  0  0  0  0  0  0  0  0  0
   -3.1991   -0.6525    2.7814 C   0  0  0  0  0  0  0  0  0  0  0  0
   -1.8595   -0.2242    2.1789 C   0  0  2  0  0  0  0  0  0  0  0  0
   -0.8812    0.2310    3.2916 C   0  0  2  0  0  0  0  0  0  0  0  0
    0.0730    1.1738    2.5188 C   0  0  1  0  0  0  0  0  0  0  0  0
   -0.7288    1.5792    1.2668 C   0  0  2  0  0  0  0  0  0  0  0  0
   -2.0233    0.9622    1.3663 O   0  0  0  0  0  0  0  0  0  0  0  0
   -0.0127    1.0858    0.0080 C   0  0  0  0  0  0  0  0  0  0  0  0
   -0.7038    1.5592   -1.1497 O   0  0  0  0  0  0  0  0  0  0  0  0
    0.3859    2.3243    3.3066 O   0  0  0  0  0  0  0  0  0  0  0  0
   -0.1692   -0.8839    3.8321 O   0  0  0  0  0  0  0  0  0  0  0  0
   -6.4409   -2.6532   -1.1883 N   0  0  0  0  0  0  0  0  0  0  0  0
   -4.9278    0.7026    1.2870 H   0  0  0  0  0  0  0  0  0  0  0  0
   -3.0267   -1.4265    3.5437 H   0  0  0  0  0  0  0  0  0  0  0  0
   -3.6865    0.2174    3.2458 H   0  0  0  0  0  0  0  0  0  0  0  0
   -1.4887   -1.0885    1.6083 H   0  0  0  0  0  0  0  0  0  0  0  0
   -1.3763    0.7071    4.1508 H   0  0  0  0  0  0  0  0  0  0  0  0
    1.0313    0.6943    2.2703 H   0  0  0  0  0  0  0  0  0  0  0  0
   -0.8235    2.6733    1.2033 H   0  0  0  0  0  0  0  0  0  0  0  0
    1.0191    1.4669   -0.0002 H   0  0  0  0  0  0  0  0  0  0  0  0
    0.0026   -0.0141    0.0008 H   0  0  0  0  0  0  0  0  0  0  0  0
   -0.7175    2.5491   -1.1452 H   0  0  0  0  0  0  0  0  0  0  0  0
    0.8192    2.0323    4.1475 H   0  0  0  0  0  0  0  0  0  0  0  0
    0.3384   -1.3230    3.1043 H   0  0  0  0  0  0  0  0  0  0  0  0
   -7.0700   -2.0213   -1.7039 H   0  0  0  0  0  0  0  0  0  0  0  0
   -6.4203   -3.6573   -1.4168 H   0  0  0  0  0  0  0  0  0  0  0  0
  1  7  1  0  0  0  0
  1  2  2  0  0  0  0
  2  3  1  0  0  0  0
  3  4  2  0  0  0  0
  3 18  1  0  0  0  0
  4  5  1  0  0  0  0
  5  6  2  0  0  0  0
  5  7  1  0  0  0  0
  7  8  1  0  0  0  0
  8  9  1  0  0  0  0
  9 13  1  0  0  0  0
  9 10  1  0  0  0  0
 10 11  1  0  0  0  0
 10 17  1  0  0  0  0
 11 12  1  0  0  0  0
 11 16  1  0  0  0  0
 12 13  1  0  0  0  0
 12 14  1  0  0  0  0
 14 15  1  0  0  0  0
  1 19  1  0  0  0  0
  8 20  1  0  0  0  0
  8 21  1  0  0  0  0
  9 22  1  0  0  0  0
 10 23  1  0  0  0  0
 11 24  1  0  0  0  0
 12 25  1  0  0  0  0
 14 26  1  0  0  0  0
 14 27  1  0  0  0  0
 15 28  1  0  0  0  0
 16 29  1  0  0  0  0
 17 30  1  0  0  0  0
 18 31  1  0  0  0  0
 18 32  1  0  0  0  0
M  END
> <Name>
ZINC03978077

> <reference>
BDB5257

> <quality>
0.782

> <status>
decoy

$$$$
ZINC05192440
  SciTegic06141217593D

 43 44  0  0  1  0            999 V2000
    1.4241   -0.6049   -0.0149 C   0  0  0  0  0  0  0  0  0  0  0  0
    0.0021   -0.0041    0.0020 C   0  0  1  0  0  0  0  0  0  0  0  0
   -0.0187    1.5274    0.0104 C   0  0  1  0  0  0  0  0  0  0  0  0
    1.3865    2.1667    0.0005 C   0  0  1  0  0  0  0  0  0  0  0  0
    2.4045    0.7983   -0.7044 S   0  0  0  0  0  0  0  0  0  0  0  0
    1.4224    3.4002   -0.9041 C   0  0  0  0  0  0  0  0  0  0  0  0
    2.7905    4.0758   -0.7912 C   0  0  0  0  0  0  0  0  0  0  0  0
    2.8263    5.3092   -1.6958 C   0  0  0  0  0  0  0  0  0  0  0  0
    4.1944    5.9848   -1.5829 C   0  0  0  0  0  0  0  0  0  0  0  0
    4.2298    7.1997   -2.4739 C   0  0  0  0  0  0  0  0  0  0  0  0
    3.2566    7.4961   -3.1341 O   0  0  0  0  0  0  0  0  0  0  0  0
    5.3429    7.9570   -2.5370 N   0  0  0  0  0  0  0  0  0  0  0  0
    5.3758    9.0864   -3.3653 N   0  0  0  0  0  0  0  0  0  0  0  0
    6.4889    9.8437   -3.4284 C   0  0  0  0  0  0  0  0  0  0  0  0
    7.4621    9.5474   -2.7681 O   0  0  0  0  0  0  0  0  0  0  0  0
    6.5242   11.0586   -4.3193 C   0  0  0  0  0  0  0  0  0  0  0  0
    7.8020   11.6896   -4.2139 O   0  0  0  0  0  0  0  0  0  0  0  0
    7.9448   12.8865   -5.0430 N   0  0  0  0  0  0  0  0  0  0  0  0
   -0.7172    1.8821   -1.2352 N   0  0  0  0  0  0  0  0  0  0  0  0
   -1.0573    0.7578   -1.8803 C   0  0  0  0  0  0  0  0  0  0  0  0
   -1.6485    0.7556   -2.9428 O   0  0  0  0  0  0  0  0  0  0  0  0
   -0.6868   -0.3639   -1.2475 N   0  0  0  0  0  0  0  0  0  0  0  0
    1.7618   -0.8333    1.0068 H   0  0  0  0  0  0  0  0  0  0  0  0
    1.4738   -1.4674   -0.6957 H   0  0  0  0  0  0  0  0  0  0  0  0
   -0.4679   -0.3958    0.9162 H   0  0  0  0  0  0  0  0  0  0  0  0
   -0.4991    1.8962    0.9287 H   0  0  0  0  0  0  0  0  0  0  0  0
    1.7274    2.5222    0.9841 H   0  0  0  0  0  0  0  0  0  0  0  0
    1.2495    3.0955   -1.9468 H   0  0  0  0  0  0  0  0  0  0  0  0
    0.6386    4.1068   -0.5937 H   0  0  0  0  0  0  0  0  0  0  0  0
    2.9639    4.3811    0.2512 H   0  0  0  0  0  0  0  0  0  0  0  0
    3.5756    3.3709   -1.1023 H   0  0  0  0  0  0  0  0  0  0  0  0
    2.6534    5.0045   -2.7385 H   0  0  0  0  0  0  0  0  0  0  0  0
    2.0425    6.0158   -1.3854 H   0  0  0  0  0  0  0  0  0  0  0  0
    4.9795    5.2799   -1.8940 H   0  0  0  0  0  0  0  0  0  0  0  0
    4.3678    6.2901   -0.5404 H   0  0  0  0  0  0  0  0  0  0  0  0
    6.1694    7.7054   -1.9762 H   0  0  0  0  0  0  0  0  0  0  0  0
    4.5493    9.3380   -3.9261 H   0  0  0  0  0  0  0  0  0  0  0  0
    6.3512   10.7540   -5.3620 H   0  0  0  0  0  0  0  0  0  0  0  0
    5.7404   11.7652   -4.0088 H   0  0  0  0  0  0  0  0  0  0  0  0
    7.2085   13.5493   -4.7611 H   0  0  0  0  0  0  0  0  0  0  0  0
    7.7768   12.6091   -6.0206 H   0  0  0  0  0  0  0  0  0  0  0  0
   -0.9131    2.8400   -1.5590 H   0  0  0  0  0  0  0  0  0  0  0  0
   -0.8568   -1.3232   -1.5818 H   0  0  0  0  0  0  0  0  0  0  0  0
  1  5  1  0  0  0  0
  1  2  1  0  0  0  0
  2 22  1  0  0  0  0
  2  3  1  0  0  0  0
  3  4  1  0  0  0  0
  3 19  1  0  0  0  0
  4  5  1  0  0  0  0
  4  6  1  0  0  0  0
  6  7  1  0  0  0  0
  7  8  1  0  0  0  0
  8  9  1  0  0  0  0
  9 10  1  0  0  0  0
 10 11  2  0  0  0  0
 10 12  1  0  0  0  0
 12 13  1  0  0  0  0
 13 14  1  0  0  0  0
 14 15  2  0  0  0  0
 14 16  1  0  0  0  0
 16 17  1  0  0  0  0
 17 18  1  0  0  0  0
 19 20  1  0  0  0  0
 20 21  2  0  0  0  0
 20 22  1  0  0  0  0
  1 23  1  0  0  0  0
  1 24  1  0  0  0  0
  2 25  1  0  0  0  0
  3 26  1  0  0  0  0
  4 27  1  0  0  0  0
  6 28  1  0  0  0  0
  6 29  1  0  0  0  0
  7 30  1  0  0  0  0
  7 31  1  0  0  0  0
  8 32  1  0  0  0  0
  8 33  1  0  0  0  0
  9 34  1  0  0  0  0
  9 35  1  0  0  0  0
 12 36  1  0  0  0  0
 13 37  1  0  0  0  0
 16 38  1  0  0  0  0
 16 39  1  0  0  0  0
 18 40  1  0  0  0  0
 18 41  1  0  0  0  0
 19 42  1  0  0  0  0
 22 43  1  0  0  0  0
M  END
> <Name>
ZINC05192440

> <reference>
BDB5013

> <quality>
0.720

> <status>
decoy

$$$$
ZINC10186482
  SciTegic06141217593D

 43 43  0  0  1  0            999 V2000
   -3.5676   -4.2028   -2.0569 C   0  0  0  0  0  0  0  0  0  0  0  0
   -2.2424   -4.1387   -2.7716 C   0  0  0  0  0  0  0  0  0  0  0  0
   -1.7011   -5.2815   -3.3268 C   0  0  0  0  0  0  0  0  0  0  0  0
   -0.4787   -5.2238   -3.9796 C   0  0  0  0  0  0  0  0  0  0  0  0
    0.1983   -4.0170   -4.0804 C   0  0  0  0  0  0  0  0  0  0  0  0
   -0.3442   -2.8727   -3.5304 C   0  0  0  0  0  0  0  0  0  0  0  0
   -1.5681   -2.9298   -2.8767 C   0  0  0  0  0  0  0  0  0  0  0  0
   -2.1192   -1.7689   -2.3184 N   0  0  0  0  0  0  0  0  0  0  0  0
   -1.3169   -0.7473   -1.9592 C   0  0  0  0  0  0  0  0  0  0  0  0
   -0.1120   -0.8703   -2.0254 O   0  0  0  0  0  0  0  0  0  0  0  0
   -1.9167    0.5477   -1.4753 C   0  0  0  0  0  0  0  0  0  0  0  0
   -0.7965    1.5328   -1.1350 C   0  0  1  0  0  0  0  0  0  0  0  0
   -1.3947    2.8667   -0.7688 C   0  0  0  0  0  0  0  0  0  0  0  0
   -1.1936    3.3391    0.3249 O   0  0  0  0  0  0  0  0  0  0  0  0
    1.3463    1.5602   -0.0080 C   0  0  0  0  0  0  0  0  0  0  0  0
    2.1239    1.0015    1.1854 C   0  0  1  0  0  0  0  0  0  0  0  0
    3.5792    1.4673    1.1090 C   0  0  0  0  0  0  0  0  0  0  0  0
    1.4945    1.5058    2.4855 C   0  0  0  0  0  0  0  0  0  0  0  0
    0.0567   -6.3505   -4.5207 O   0  0  0  0  0  0  0  0  0  0  0  0
   -2.1509    3.5298   -1.6577 O   0  5  0  0  0  0  0  0  0  0  0  0
   -0.0224    1.0102    0.0066 N   0  3  0  0  0  0  0  0  0  0  0  0
   -4.2064   -3.4714   -2.5737 H   0  0  0  0  0  0  0  0  0  0  0  0
   -3.3686   -3.8063   -1.0503 H   0  0  0  0  0  0  0  0  0  0  0  0
   -4.0128   -5.2084   -2.0331 H   0  0  0  0  0  0  0  0  0  0  0  0
   -2.2395   -6.2377   -3.2513 H   0  0  0  0  0  0  0  0  0  0  0  0
    1.1675   -3.9719   -4.5986 H   0  0  0  0  0  0  0  0  0  0  0  0
    0.1929   -1.9160   -3.6100 H   0  0  0  0  0  0  0  0  0  0  0  0
   -3.1376   -1.6962   -2.1825 H   0  0  0  0  0  0  0  0  0  0  0  0
   -2.5235    0.3591   -0.5774 H   0  0  0  0  0  0  0  0  0  0  0  0
   -2.5527    0.9749   -2.2646 H   0  0  0  0  0  0  0  0  0  0  0  0
   -0.1349    1.6566   -2.0050 H   0  0  0  0  0  0  0  0  0  0  0  0
    1.3019    2.6570    0.0631 H   0  0  0  0  0  0  0  0  0  0  0  0
    1.8481    1.2706   -0.9431 H   0  0  0  0  0  0  0  0  0  0  0  0
    2.0891   -0.0977    1.1636 H   0  0  0  0  0  0  0  0  0  0  0  0
    3.6151    2.5665    1.1311 H   0  0  0  0  0  0  0  0  0  0  0  0
    4.0327    1.1049    0.1747 H   0  0  0  0  0  0  0  0  0  0  0  0
    4.1389    1.0660    1.9667 H   0  0  0  0  0  0  0  0  0  0  0  0
    0.4481    1.1711    2.5415 H   0  0  0  0  0  0  0  0  0  0  0  0
    1.5290    2.6050    2.5085 H   0  0  0  0  0  0  0  0  0  0  0  0
    2.0531    1.1045    3.3439 H   0  0  0  0  0  0  0  0  0  0  0  0
   -0.6357   -6.6889   -5.1422 H   0  0  0  0  0  0  0  0  0  0  0  0
   -0.4878    1.2776    0.8857 H   0  0  0  0  0  0  0  0  0  0  0  0
    0.0227   -0.0171   -0.0520 H   0  0  0  0  0  0  0  0  0  0  0  0
  1  2  1  0  0  0  0
  2  7  2  0  0  0  0
  2  3  1  0  0  0  0
  3  4  2  0  0  0  0
  4  5  1  0  0  0  0
  4 19  1  0  0  0  0
  5  6  2  0  0  0  0
  6  7  1  0  0  0  0
  7  8  1  0  0  0  0
  8  9  1  0  0  0  0
  9 10  2  0  0  0  0
  9 11  1  0  0  0  0
 11 12  1  0  0  0  0
 12 13  1  0  0  0  0
 12 21  1  0  0  0  0
 13 14  2  0  0  0  0
 13 20  1  0  0  0  0
 15 16  1  0  0  0  0
 15 21  1  0  0  0  0
 16 17  1  0  0  0  0
 16 18  1  0  0  0  0
  1 22  1  0  0  0  0
  1 23  1  0  0  0  0
  1 24  1  0  0  0  0
  3 25  1  0  0  0  0
  5 26  1  0  0  0  0
  6 27  1  0  0  0  0
  8 28  1  0  0  0  0
 11 29  1  0  0  0  0
 11 30  1  0  0  0  0
 12 31  1  0  0  0  0
 15 32  1  0  0  0  0
 15 33  1  0  0  0  0
 16 34  1  0  0  0  0
 17 35  1  0  0  0  0
 17 36  1  0  0  0  0
 17 37  1  0  0  0  0
 18 38  1  0  0  0  0
 18 39  1  0  0  0  0
 18 40  1  0  0  0  0
 19 41  1  0  0  0  0
 21 42  1  0  0  0  0
 21 43  1  0  0  0  0
M  CHG  2  20  -1  21   1
M  END
> <Name>
ZINC10186482

> <reference>
BDB4986

> <quality>
0.724

> <status>
decoy

$$$$
ZINC19751955
  SciTegic06141217593D

 34 35  0  0  0  0            999 V2000
   -0.0127    1.0858    0.0080 C   0  0  0  0  0  0  0  0  0  0  0  0
   -0.6816    1.5467    1.1837 O   0  0  0  0  0  0  0  0  0  0  0  0
   -0.7875    2.8932    1.3463 C   0  0  0  0  0  0  0  0  0  0  0  0
   -0.2597    3.7422    0.3962 C   0  0  0  0  0  0  0  0  0  0  0  0
   -0.3692    5.1260    0.5635 C   0  0  0  0  0  0  0  0  0  0  0  0
   -1.0168    5.6385    1.6996 C   0  0  0  0  0  0  0  0  0  0  0  0
   -1.5440    4.7737    2.6490 C   0  0  0  0  0  0  0  0  0  0  0  0
   -1.4349    3.4077    2.4712 C   0  0  0  0  0  0  0  0  0  0  0  0
   -1.9564    2.5605    3.3988 O   0  0  0  0  0  0  0  0  0  0  0  0
   -2.6057    3.1524    4.5257 C   0  0  0  0  0  0  0  0  0  0  0  0
   -0.9640    7.0146    1.5799 N   0  0  0  0  0  0  0  0  0  0  0  0
   -0.3110    7.2947    0.4190 C   0  0  0  0  0  0  0  0  0  0  0  0
    0.0369    6.1913   -0.1755 N   0  0  0  0  0  0  0  0  0  0  0  0
   -0.0318    8.6811   -0.1016 C   0  0  0  0  0  0  0  0  0  0  0  0
   -1.1470    9.1188   -0.9517 N   0  3  0  0  0  0  0  0  0  0  0  0
   -1.5096    7.9904    2.5267 C   0  0  0  0  0  0  0  0  0  0  0  0
   -2.9338    8.3111    2.1527 C   0  0  0  0  0  0  0  0  0  0  0  0
   -3.4410    7.7792    1.1937 O   0  0  0  0  0  0  0  0  0  0  0  0
   -3.6389    9.1877    2.8851 O   0  5  0  0  0  0  0  0  0  0  0  0
    0.9922    1.5328    0.0286 H   0  0  0  0  0  0  0  0  0  0  0  0
   -0.5561    1.5166   -0.8459 H   0  0  0  0  0  0  0  0  0  0  0  0
    0.0332   -0.0116   -0.0529 H   0  0  0  0  0  0  0  0  0  0  0  0
    0.2458    3.3319   -0.4904 H   0  0  0  0  0  0  0  0  0  0  0  0
   -2.0475    5.1750    3.5409 H   0  0  0  0  0  0  0  0  0  0  0  0
   -3.4052    3.7909    4.1218 H   0  0  0  0  0  0  0  0  0  0  0  0
   -1.8610    3.8059    5.0036 H   0  0  0  0  0  0  0  0  0  0  0  0
   -3.0007    2.4055    5.2300 H   0  0  0  0  0  0  0  0  0  0  0  0
    0.0780    9.3754    0.7445 H   0  0  0  0  0  0  0  0  0  0  0  0
    0.8965    8.6724   -0.6916 H   0  0  0  0  0  0  0  0  0  0  0  0
   -2.0170    9.1286   -0.4004 H   0  0  0  0  0  0  0  0  0  0  0  0
   -1.2510    8.4696   -1.7445 H   0  0  0  0  0  0  0  0  0  0  0  0
   -0.9567   10.0664   -1.3078 H   0  0  0  0  0  0  0  0  0  0  0  0
   -0.9070    8.9101    2.4951 H   0  0  0  0  0  0  0  0  0  0  0  0
   -1.4837    7.5697    3.5428 H   0  0  0  0  0  0  0  0  0  0  0  0
  1  2  1  0  0  0  0
  2  3  1  0  0  0  0
  3  8  2  0  0  0  0
  3  4  1  0  0  0  0
  4  5  2  0  0  0  0
  5 13  1  0  0  0  0
  5  6  1  0  0  0  0
  6  7  2  0  0  0  0
  6 11  1  0  0  0  0
  7  8  1  0  0  0  0
  8  9  1  0  0  0  0
  9 10  1  0  0  0  0
 11 12  1  0  0  0  0
 11 16  1  0  0  0  0
 12 13  2  0  0  0  0
 12 14  1  0  0  0  0
 14 15  1  0  0  0  0
 16 17  1  0  0  0  0
 17 18  2  0  0  0  0
 17 19  1  0  0  0  0
  1 20  1  0  0  0  0
  1 21  1  0  0  0  0
  1 22  1  0  0  0  0
  4 23  1  0  0  0  0
  7 24  1  0  0  0  0
 10 25  1  0  0  0  0
 10 26  1  0  0  0  0
 10 27  1  0  0  0  0
 14 28  1  0  0  0  0
 14 29  1  0  0  0  0
 15 30  1  0  0  0  0
 15 31  1  0  0  0  0
 15 32  1  0  0  0  0
 16 33  1  0  0  0  0
 16 34  1  0  0  0  0
M  CHG  2  15   1  19  -1
M  END
> <Name>
ZINC19751955

> <reference>
BDB5242

> <quality>
0.756

> <status>
decoy

$$$$
ZINC22754895
  SciTegic06141217593D

 54 55  0  0  1  0            999 V2000
    1.1034   -1.7945   11.0135 C   0  0  0  0  0  0  0  0  0  0  0  0
    1.8686   -0.7879   10.1520 C   0  0  1  0  0  0  0  0  0  0  0  0
    3.1419   -0.3559   10.8820 C   0  0  0  0  0  0  0  0  0  0  0  0
    2.2411   -1.4377    8.8179 C   0  0  1  0  0  0  0  0  0  0  0  0
    0.9818   -1.9993    8.1549 C   0  0  0  0  0  0  0  0  0  0  0  0
    1.3183   -2.5147    6.8254 N   0  0  0  0  0  0  0  0  0  0  0  0
    0.3593   -3.0611    6.0519 C   0  0  0  0  0  0  0  0  0  0  0  0
   -0.7848   -3.1262    6.4574 O   0  0  0  0  0  0  0  0  0  0  0  0
    0.6989   -3.5812    4.7103 C   0  0  0  0  0  0  0  0  0  0  0  0
   -0.2919   -4.1476    3.9067 C   0  0  0  0  0  0  0  0  0  0  0  0
    0.0316   -4.6307    2.6556 C   0  0  0  0  0  0  0  0  0  0  0  0
    1.3347   -4.5546    2.1970 C   0  0  0  0  0  0  0  0  0  0  0  0
    2.3226   -3.9991    2.9906 C   0  0  0  0  0  0  0  0  0  0  0  0
    2.0115   -3.5075    4.2416 C   0  0  0  0  0  0  0  0  0  0  0  0
    1.7394   -5.1744    0.5980 S   0  0  0  0  0  0  0  0  0  0  0  0
    0.7502   -6.1422    0.2753 O   0  0  0  0  0  0  0  0  0  0  0  0
    3.1267   -5.4814    0.6206 O   0  0  0  0  0  0  0  0  0  0  0  0
    1.5481   -3.9266   -0.4737 N   0  5  0  0  0  0  0  0  0  0  0  0
    2.3081   -2.7612   -0.3329 C   0  0  0  0  0  0  0  0  0  0  0  0
    3.6214   -2.8363    0.1109 C   0  0  0  0  0  0  0  0  0  0  0  0
    4.3700   -1.6834    0.2487 C   0  0  0  0  0  0  0  0  0  0  0  0
    3.8135   -0.4546   -0.0552 C   0  0  0  0  0  0  0  0  0  0  0  0
    2.5056   -0.3743   -0.4972 C   0  0  0  0  0  0  0  0  0  0  0  0
    1.7503   -1.5241   -0.6375 C   0  0  0  0  0  0  0  0  0  0  0  0
    0.4745   -1.4464   -1.0750 F   0  0  0  0  0  0  0  0  0  0  0  0
    2.8514   -0.4327    7.9373 N   0  3  0  0  0  0  0  0  0  0  0  0
    2.1812    0.8669    8.0778 C   0  0  0  0  0  0  0  0  0  0  0  0
    4.2926   -0.3124    8.1951 C   0  0  0  0  0  0  0  0  0  0  0  0
    0.8348   -1.3282   11.9729 H   0  0  0  0  0  0  0  0  0  0  0  0
    1.7356   -2.6754   11.1989 H   0  0  0  0  0  0  0  0  0  0  0  0
    0.1878   -2.1055   10.4892 H   0  0  0  0  0  0  0  0  0  0  0  0
    1.2355    0.0924    9.9670 H   0  0  0  0  0  0  0  0  0  0  0  0
    3.7759   -1.2355   11.0673 H   0  0  0  0  0  0  0  0  0  0  0  0
    2.8751    0.1117   11.8413 H   0  0  0  0  0  0  0  0  0  0  0  0
    3.6926    0.3678   10.2631 H   0  0  0  0  0  0  0  0  0  0  0  0
    2.9573   -2.2536    8.9948 H   0  0  0  0  0  0  0  0  0  0  0  0
    0.5751   -2.8144    8.7714 H   0  0  0  0  0  0  0  0  0  0  0  0
    0.2300   -1.2021    8.0588 H   0  0  0  0  0  0  0  0  0  0  0  0
    2.2877   -2.4595    6.4818 H   0  0  0  0  0  0  0  0  0  0  0  0
   -1.3283   -4.2086    4.2701 H   0  0  0  0  0  0  0  0  0  0  0  0
   -0.7482   -5.0774    2.0213 H   0  0  0  0  0  0  0  0  0  0  0  0
    3.3583   -3.9493    2.6233 H   0  0  0  0  0  0  0  0  0  0  0  0
    2.7962   -3.0585    4.8682 H   0  0  0  0  0  0  0  0  0  0  0  0
    4.0656   -3.8131    0.3527 H   0  0  0  0  0  0  0  0  0  0  0  0
    5.4104   -1.7431    0.6007 H   0  0  0  0  0  0  0  0  0  0  0  0
    4.4126    0.4613    0.0549 H   0  0  0  0  0  0  0  0  0  0  0  0
    2.0658    0.6049   -0.7373 H   0  0  0  0  0  0  0  0  0  0  0  0
    2.7292   -0.7483    6.9645 H   0  0  0  0  0  0  0  0  0  0  0  0
    2.2623    1.1974    9.1238 H   0  0  0  0  0  0  0  0  0  0  0  0
    1.1186    0.7487    7.8191 H   0  0  0  0  0  0  0  0  0  0  0  0
    2.6482    1.6088    7.4133 H   0  0  0  0  0  0  0  0  0  0  0  0
    4.7674   -1.2894    8.0218 H   0  0  0  0  0  0  0  0  0  0  0  0
    4.4427   -0.0204    9.2450 H   0  0  0  0  0  0  0  0  0  0  0  0
    4.7357    0.4428    7.5293 H   0  0  0  0  0  0  0  0  0  0  0  0
  1  2  1  0  0  0  0
  2  3  1  0  0  0  0
  2  4  1  0  0  0  0
  4  5  1  0  0  0  0
  4 26  1  0  0  0  0
  5  6  1  0  0  0  0
  6  7  1  0  0  0  0
  7  8  2  0  0  0  0
  7  9  1  0  0  0  0
  9 14  2  0  0  0  0
  9 10  1  0  0  0  0
 10 11  2  0  0  0  0
 11 12  1  0  0  0  0
 12 13  2  0  0  0  0
 12 15  1  0  0  0  0
 13 14  1  0  0  0  0
 15 16  2  0  0  0  0
 15 17  2  0  0  0  0
 15 18  1  0  0  0  0
 18 19  1  0  0  0  0
 19 24  2  0  0  0  0
 19 20  1  0  0  0  0
 20 21  2  0  0  0  0
 21 22  1  0  0  0  0
 22 23  2  0  0  0  0
 23 24  1  0  0  0  0
 24 25  1  0  0  0  0
 26 27  1  0  0  0  0
 26 28  1  0  0  0  0
  1 29  1  0  0  0  0
  1 30  1  0  0  0  0
  1 31  1  0  0  0  0
  2 32  1  0  0  0  0
  3 33  1  0  0  0  0
  3 34  1  0  0  0  0
  3 35  1  0  0  0  0
  4 36  1  0  0  0  0
  5 37  1  0  0  0  0
  5 38  1  0  0  0  0
  6 39  1  0  0  0  0
 10 40  1  0  0  0  0
 11 41  1  0  0  0  0
 13 42  1  0  0  0  0
 14 43  1  0  0  0  0
 20 44  1  0  0  0  0
 21 45  1  0  0  0  0
 22 46  1  0  0  0  0
 23 47  1  0  0  0  0
 26 48  1  0  0  0  0
 27 49  1  0  0  0  0
 27 50  1  0  0  0  0
 27 51  1  0  0  0  0
 28 52  1  0  0  0  0
 28 53  1  0  0  0  0
 28 54  1  0  0  0  0
M  CHG  2  18  -1  26   1
M  END
> <Name>
ZINC22754895

> <reference>
BDB5007

> <quality>
0.801

> <status>
decoy

$$$$
ZINC20744634
  SciTegic06141217593D

 47 49  0  0  0  0            999 V2000
   -1.8318    3.1508    0.0443 C   0  0  0  0  0  0  0  0  0  0  0  0
   -1.3287    1.7750    0.0297 N   0  0  0  0  0  0  0  0  0  0  0  0
   -0.0170    1.4042    0.0098 C   0  0  0  0  0  0  0  0  0  0  0  0
    0.0021   -0.0041    0.0020 C   0  0  0  0  0  0  0  0  0  0  0  0
   -1.3421   -0.4356    0.0125 C   0  0  0  0  0  0  0  0  0  0  0  0
   -2.1127    0.6144    0.0255 N   0  0  0  0  0  0  0  0  0  0  0  0
    1.2504   -0.6572   -0.0130 C   0  0  0  0  0  0  0  0  0  0  0  0
    2.3524    0.0830   -0.0192 N   0  0  0  0  0  0  0  0  0  0  0  0
    2.2886    1.4093   -0.0114 C   0  0  0  0  0  0  0  0  0  0  0  0
    1.1400    2.0640    0.0023 N   0  0  0  0  0  0  0  0  0  0  0  0
    3.4680    2.1331   -0.0189 N   0  0  0  0  0  0  0  0  0  0  0  0
    4.7559    1.4349   -0.0350 C   0  0  0  0  0  0  0  0  0  0  0  0
    5.8746    2.4446   -0.0403 C   0  0  0  0  0  0  0  0  0  0  0  0
    6.3793    2.9092   -1.2408 C   0  0  0  0  0  0  0  0  0  0  0  0
    7.4010    3.8389   -1.2483 C   0  0  0  0  0  0  0  0  0  0  0  0
    7.9283    4.2980   -0.0501 C   0  0  0  0  0  0  0  0  0  0  0  0
    7.4240    3.8261    1.1531 C   0  0  0  0  0  0  0  0  0  0  0  0
    6.3985    2.9006    1.1553 C   0  0  0  0  0  0  0  0  0  0  0  0
    8.9369    5.2089   -0.0549 O   0  0  0  0  0  0  0  0  0  0  0  0
    9.4063    5.6503   -1.3303 C   0  0  0  0  0  0  0  0  0  0  0  0
    1.3259   -2.0360   -0.0207 N   0  0  0  0  0  0  0  0  0  0  0  0
    2.6327   -2.6980   -0.0363 C   0  0  0  0  0  0  0  0  0  0  0  0
    2.4357   -4.2152   -0.0421 C   0  0  0  0  0  0  0  0  0  0  0  0
    3.8005   -4.9066   -0.0584 C   0  0  0  0  0  0  0  0  0  0  0  0
    3.6166   -6.3237   -0.0638 O   0  0  0  0  0  0  0  0  0  0  0  0
   -2.4903    3.1532    0.9255 H   0  0  0  0  0  0  0  0  0  0  0  0
   -2.5020    3.1675   -0.8278 H   0  0  0  0  0  0  0  0  0  0  0  0
   -1.0797    3.9535    0.0458 H   0  0  0  0  0  0  0  0  0  0  0  0
   -1.6814   -1.4820    0.0101 H   0  0  0  0  0  0  0  0  0  0  0  0
    3.4404    3.1627   -0.0132 H   0  0  0  0  0  0  0  0  0  0  0  0
    4.8237    0.8089   -0.9370 H   0  0  0  0  0  0  0  0  0  0  0  0
    4.8401    0.7999    0.8592 H   0  0  0  0  0  0  0  0  0  0  0  0
    5.9669    2.5382   -2.1907 H   0  0  0  0  0  0  0  0  0  0  0  0
    7.7961    4.2149   -2.2036 H   0  0  0  0  0  0  0  0  0  0  0  0
    7.8404    4.1886    2.1045 H   0  0  0  0  0  0  0  0  0  0  0  0
    5.9983    2.5261    2.1090 H   0  0  0  0  0  0  0  0  0  0  0  0
    8.5333    6.0672   -1.8538 H   0  0  0  0  0  0  0  0  0  0  0  0
    9.7251    4.7475   -1.8719 H   0  0  0  0  0  0  0  0  0  0  0  0
   10.2212    6.3851   -1.2528 H   0  0  0  0  0  0  0  0  0  0  0  0
    0.4634   -2.5990   -0.0155 H   0  0  0  0  0  0  0  0  0  0  0  0
    3.1856   -2.3971   -0.9384 H   0  0  0  0  0  0  0  0  0  0  0  0
    3.2034   -2.4065    0.8578 H   0  0  0  0  0  0  0  0  0  0  0  0
    1.8832   -4.5168    0.8600 H   0  0  0  0  0  0  0  0  0  0  0  0
    1.8661   -4.5087   -0.9362 H   0  0  0  0  0  0  0  0  0  0  0  0
    4.3712   -4.6151    0.8357 H   0  0  0  0  0  0  0  0  0  0  0  0
    4.3534   -4.6057   -0.9605 H   0  0  0  0  0  0  0  0  0  0  0  0
    3.1040   -6.5878   -0.8685 H   0  0  0  0  0  0  0  0  0  0  0  0
  1  2  1  0  0  0  0
  2  6  1  0  0  0  0
  2  3  1  0  0  0  0
  3 10  2  0  0  0  0
  3  4  1  0  0  0  0
  4  5  1  0  0  0  0
  4  7  2  0  0  0  0
  5  6  2  0  0  0  0
  7  8  1  0  0  0  0
  7 21  1  0  0  0  0
  8  9  2  0  0  0  0
  9 10  1  0  0  0  0
  9 11  1  0  0  0  0
 11 12  1  0  0  0  0
 12 13  1  0  0  0  0
 13 18  2  0  0  0  0
 13 14  1  0  0  0  0
 14 15  2  0  0  0  0
 15 16  1  0  0  0  0
 16 17  2  0  0  0  0
 16 19  1  0  0  0  0
 17 18  1  0  0  0  0
 19 20  1  0  0  0  0
 21 22  1  0  0  0  0
 22 23  1  0  0  0  0
 23 24  1  0  0  0  0
 24 25  1  0  0  0  0
  1 26  1  0  0  0  0
  1 27  1  0  0  0  0
  1 28  1  0  0  0  0
  5 29  1  0  0  0  0
 11 30  1  0  0  0  0
 12 31  1  0  0  0  0
 12 32  1  0  0  0  0
 14 33  1  0  0  0  0
 15 34  1  0  0  0  0
 17 35  1  0  0  0  0
 18 36  1  0  0  0  0
 20 37  1  0  0  0  0
 20 38  1  0  0  0  0
 20 39  1  0  0  0  0
 21 40  1  0  0  0  0
 22 41  1  0  0  0  0
 22 42  1  0  0  0  0
 23 43  1  0  0  0  0
 23 44  1  0  0  0  0
 24 45  1  0  0  0  0
 24 46  1  0  0  0  0
 25 47  1  0  0  0  0
M  END
> <Name>
ZINC20744634

> <reference>
BDB5003

> <quality>
0.685

> <status>
decoy

$$$$
ZINC05758200
  SciTegic06141217593D

 20 20  0  0  0  0            999 V2000
    1.2009   -0.6984   -0.0167 C   0  0  0  0  0  0  0  0  0  0  0  0
    0.0106   -0.0085    0.1060 C   0  0  0  0  0  0  0  0  0  0  0  0
   -1.1819   -0.7349    0.1198 C   0  0  0  0  0  0  0  0  0  0  0  0
   -1.1324   -2.0583    0.0047 N   0  0  0  0  0  0  0  0  0  0  0  0
    0.0300   -2.6822   -0.1111 C   0  0  0  0  0  0  0  0  0  0  0  0
    1.1769   -2.0188   -0.1220 N   0  0  0  0  0  0  0  0  0  0  0  0
    0.0473   -4.0615   -0.2230 N   0  0  0  0  0  0  0  0  0  0  0  0
    1.2369   -4.7222   -0.3428 N   0  0  0  0  0  0  0  0  0  0  0  0
   -2.3990   -0.0855    0.2467 N   0  0  0  0  0  0  0  0  0  0  0  0
   -3.5502   -0.7103   -0.1410 N   0  0  0  0  0  0  0  0  0  0  0  0
   -0.0004    1.4668    0.2263 N   0  0  0  0  0  0  0  0  0  0  0  0
    1.0486    2.0772    0.3297 O   0  0  0  0  0  0  0  0  0  0  0  0
   -1.0581    2.0707    0.2170 O   0  0  0  0  0  0  0  0  0  0  0  0
    2.1585   -0.1573   -0.0269 H   0  0  0  0  0  0  0  0  0  0  0  0
   -0.8368   -4.5899   -0.2160 H   0  0  0  0  0  0  0  0  0  0  0  0
    1.7837   -4.4362    0.4819 H   0  0  0  0  0  0  0  0  0  0  0  0
    1.6913   -4.3036   -1.1669 H   0  0  0  0  0  0  0  0  0  0  0  0
   -2.4359    0.8684    0.6334 H   0  0  0  0  0  0  0  0  0  0  0  0
   -3.5699   -1.5883    0.3971 H   0  0  0  0  0  0  0  0  0  0  0  0
   -3.3955   -0.9636   -1.1273 H   0  0  0  0  0  0  0  0  0  0  0  0
  1  6  2  0  0  0  0
  1  2  1  0  0  0  0
  2  3  2  0  0  0  0
  2 11  1  0  0  0  0
  3  4  1  0  0  0  0
  3  9  1  0  0  0  0
  4  5  2  0  0  0  0
  5  6  1  0  0  0  0
  5  7  1  0  0  0  0
  7  8  1  0  0  0  0
  9 10  1  0  0  0  0
 11 12  2  0  0  0  0
 11 13  2  0  0  0  0
  1 14  1  0  0  0  0
  7 15  1  0  0  0  0
  8 16  1  0  0  0  0
  8 17  1  0  0  0  0
  9 18  1  0  0  0  0
 10 19  1  0  0  0  0
 10 20  1  0  0  0  0
M  END
> <Name>
ZINC05758200

> <reference>
BDB5008

> <quality>
0.697

> <status>
decoy

$$$$
ZINC28090587
  SciTegic06141217593D

 52 52  0  0  1  0            999 V2000
    0.6775    4.7015   -6.4765 C   0  0  0  0  0  0  0  0  0  0  0  0
    2.0385    4.0845   -6.1477 C   0  0  0  0  0  0  0  0  0  0  0  0
    1.8607    2.9884   -5.0953 C   0  0  1  0  0  0  0  0  0  0  0  0
    1.0301    1.8462   -5.6838 C   0  0  0  0  0  0  0  0  0  0  0  0
    3.2327    2.4573   -4.6752 C   0  0  1  0  0  0  0  0  0  0  0  0
    3.0575    1.3776   -3.6385 C   0  0  0  0  0  0  0  0  0  0  0  0
    3.1217    0.2149   -3.9605 O   0  0  0  0  0  0  0  0  0  0  0  0
    2.8303    1.7077   -2.3574 O   0  0  0  0  0  0  0  0  0  0  0  0
    2.6715    0.6158   -1.4136 C   0  0  0  0  0  0  0  0  0  0  0  0
    2.4220    1.1832   -0.0147 C   0  0  0  0  0  0  0  0  0  0  0  0
    1.1435    1.8983    0.0013 N   0  0  0  0  0  0  0  0  0  0  0  0
   -0.0144    1.2086    0.0087 C   0  0  0  0  0  0  0  0  0  0  0  0
    0.0021   -0.0041    0.0020 O   0  0  0  0  0  0  0  0  0  0  0  0
   -1.3296    1.9443    0.0189 C   0  0  0  0  0  0  0  0  0  0  0  0
   -2.4616    0.9495    0.0189 C   0  0  0  0  0  0  0  0  0  0  0  0
   -2.9892    0.5051   -1.1792 C   0  0  0  0  0  0  0  0  0  0  0  0
   -4.0239   -0.4117   -1.1846 C   0  0  0  0  0  0  0  0  0  0  0  0
   -4.5421   -0.8786    0.0127 C   0  0  0  0  0  0  0  0  0  0  0  0
   -4.0149   -0.4269    1.2186 C   0  0  0  0  0  0  0  0  0  0  0  0
   -2.9740    0.4878    1.2169 C   0  0  0  0  0  0  0  0  0  0  0  0
   -4.5198   -0.8825    2.3963 O   0  0  0  0  0  0  0  0  0  0  0  0
   -5.5634   -1.7766    0.0092 O   0  0  0  0  0  0  0  0  0  0  0  0
   -6.0543   -2.1957   -1.2657 C   0  0  0  0  0  0  0  0  0  0  0  0
    1.1243    3.3142    0.0091 O   0  0  0  0  0  0  0  0  0  0  0  0
    3.9232    1.9033   -5.8474 N   0  3  0  0  0  0  0  0  0  0  0  0
    0.2412    5.1365   -5.5652 H   0  0  0  0  0  0  0  0  0  0  0  0
    0.0060    3.9233   -6.8685 H   0  0  0  0  0  0  0  0  0  0  0  0
    0.8046    5.4897   -7.2332 H   0  0  0  0  0  0  0  0  0  0  0  0
    2.7100    4.8626   -5.7558 H   0  0  0  0  0  0  0  0  0  0  0  0
    2.4739    3.6495   -7.0594 H   0  0  0  0  0  0  0  0  0  0  0  0
    1.3436    3.4033   -4.2175 H   0  0  0  0  0  0  0  0  0  0  0  0
    1.5465    1.4304   -6.5616 H   0  0  0  0  0  0  0  0  0  0  0  0
    0.0433    2.2269   -5.9859 H   0  0  0  0  0  0  0  0  0  0  0  0
    0.9019    1.0577   -4.9276 H   0  0  0  0  0  0  0  0  0  0  0  0
    3.8299    3.2784   -4.2520 H   0  0  0  0  0  0  0  0  0  0  0  0
    3.5852    0.0034   -1.4025 H   0  0  0  0  0  0  0  0  0  0  0  0
    1.8161   -0.0072   -1.7139 H   0  0  0  0  0  0  0  0  0  0  0  0
    3.2329    1.8775    0.2506 H   0  0  0  0  0  0  0  0  0  0  0  0
    2.3904    0.3603    0.7146 H   0  0  0  0  0  0  0  0  0  0  0  0
   -1.4019    2.5809   -0.8753 H   0  0  0  0  0  0  0  0  0  0  0  0
   -1.3926    2.5706    0.9210 H   0  0  0  0  0  0  0  0  0  0  0  0
   -2.5848    0.8818   -2.1303 H   0  0  0  0  0  0  0  0  0  0  0  0
   -4.4358   -0.7705   -2.1394 H   0  0  0  0  0  0  0  0  0  0  0  0
   -2.5555    0.8465    2.1688 H   0  0  0  0  0  0  0  0  0  0  0  0
   -4.4351   -1.8676    2.3452 H   0  0  0  0  0  0  0  0  0  0  0  0
   -5.1934   -2.6174   -1.8052 H   0  0  0  0  0  0  0  0  0  0  0  0
   -6.3676   -1.2820   -1.7920 H   0  0  0  0  0  0  0  0  0  0  0  0
   -6.8779   -2.9206   -1.1872 H   0  0  0  0  0  0  0  0  0  0  0  0
    1.6457    3.5788   -0.7898 H   0  0  0  0  0  0  0  0  0  0  0  0
    4.0436    2.6407   -6.5564 H   0  0  0  0  0  0  0  0  0  0  0  0
    3.3649    1.1341   -6.2442 H   0  0  0  0  0  0  0  0  0  0  0  0
    4.8470    1.5456   -5.5652 H   0  0  0  0  0  0  0  0  0  0  0  0
  1  2  1  0  0  0  0
  2  3  1  0  0  0  0
  3  4  1  0  0  0  0
  3  5  1  0  0  0  0
  5  6  1  0  0  0  0
  5 25  1  0  0  0  0
  6  7  2  0  0  0  0
  6  8  1  0  0  0  0
  8  9  1  0  0  0  0
  9 10  1  0  0  0  0
 10 11  1  0  0  0  0
 11 12  1  0  0  0  0
 11 24  1  0  0  0  0
 12 13  2  0  0  0  0
 12 14  1  0  0  0  0
 14 15  1  0  0  0  0
 15 20  2  0  0  0  0
 15 16  1  0  0  0  0
 16 17  2  0  0  0  0
 17 18  1  0  0  0  0
 18 19  2  0  0  0  0
 18 22  1  0  0  0  0
 19 20  1  0  0  0  0
 19 21  1  0  0  0  0
 22 23  1  0  0  0  0
  1 26  1  0  0  0  0
  1 27  1  0  0  0  0
  1 28  1  0  0  0  0
  2 29  1  0  0  0  0
  2 30  1  0  0  0  0
  3 31  1  0  0  0  0
  4 32  1  0  0  0  0
  4 33  1  0  0  0  0
  4 34  1  0  0  0  0
  5 35  1  0  0  0  0
  9 36  1  0  0  0  0
  9 37  1  0  0  0  0
 10 38  1  0  0  0  0
 10 39  1  0  0  0  0
 14 40  1  0  0  0  0
 14 41  1  0  0  0  0
 16 42  1  0  0  0  0
 17 43  1  0  0  0  0
 20 44  1  0  0  0  0
 21 45  1  0  0  0  0
 23 46  1  0  0  0  0
 23 47  1  0  0  0  0
 23 48  1  0  0  0  0
 24 49  1  0  0  0  0
 25 50  1  0  0  0  0
 25 51  1  0  0  0  0
 25 52  1  0  0  0  0
M  CHG  1  25   1
M  END
> <Name>
ZINC28090587

> <reference>
BDB4997

> <quality>
0.660

> <status>
decoy

$$$$
ZINC05472967
  SciTegic06141217593D

 32 33  0  0  1  0            999 V2000
    2.0897   -0.3454    1.2296 C   0  0  0  0  0  0  0  0  0  0  0  0
    1.2806   -0.7192   -0.0140 C   0  0  1  0  0  0  0  0  0  0  0  0
    2.0360   -0.3467   -1.2212 C   0  0  0  0  0  0  0  0  0  0  0  0
    2.6191   -0.0592   -2.1528 N   0  0  0  0  0  0  0  0  0  0  0  0
    1.0214   -2.2271   -0.0197 C   0  0  2  0  0  0  0  0  0  0  0  0
    1.5076   -3.0320    1.1873 C   0  0  0  0  0  0  0  0  0  0  0  0
    2.2330   -3.1516   -0.1545 C   0  0  0  0  0  0  0  0  0  0  0  0
    0.0021   -0.0041    0.0020 N   0  0  0  0  0  0  0  0  0  0  0  0
   -0.0162    1.3436    0.0094 C   0  0  0  0  0  0  0  0  0  0  0  0
    1.0258    1.9642    0.0028 O   0  0  0  0  0  0  0  0  0  0  0  0
   -1.3314    2.0792    0.0197 C   0  0  0  0  0  0  0  0  0  0  0  0
   -1.0241    3.8670    0.0279 S   0  0  0  0  0  0  0  0  0  0  0  0
   -2.6369    4.5766    0.0394 C   0  0  0  0  0  0  0  0  0  0  0  0
   -2.9271    5.9122    0.0481 N   0  0  0  0  0  0  0  0  0  0  0  0
   -4.2863    6.0489    0.0544 C   0  0  0  0  0  0  0  0  0  0  0  0
   -4.8142    4.8497    0.0499 N   0  0  0  0  0  0  0  0  0  0  0  0
   -3.7694    3.9165    0.0355 N   0  0  0  0  0  0  0  0  0  0  0  0
   -4.9860    7.2487    0.0636 N   0  0  0  0  0  0  0  0  0  0  0  0
    2.2763    0.7386    1.2347 H   0  0  0  0  0  0  0  0  0  0  0  0
    3.0498   -0.8821    1.2186 H   0  0  0  0  0  0  0  0  0  0  0  0
    1.5257   -0.6235    2.1321 H   0  0  0  0  0  0  0  0  0  0  0  0
    0.0626   -2.1186   -0.5478 H   0  0  0  0  0  0  0  0  0  0  0  0
    0.8646   -3.9042    1.3764 H   0  0  0  0  0  0  0  0  0  0  0  0
    2.0679   -2.4013    1.8931 H   0  0  0  0  0  0  0  0  0  0  0  0
    3.1755   -2.5845   -0.1545 H   0  0  0  0  0  0  0  0  0  0  0  0
    1.9712   -4.0864   -0.6719 H   0  0  0  0  0  0  0  0  0  0  0  0
   -0.8828   -0.5312    0.0076 H   0  0  0  0  0  0  0  0  0  0  0  0
   -1.9087    1.8111   -0.8774 H   0  0  0  0  0  0  0  0  0  0  0  0
   -1.9010    1.8018    0.9189 H   0  0  0  0  0  0  0  0  0  0  0  0
   -2.2413    6.6807    0.0496 H   0  0  0  0  0  0  0  0  0  0  0  0
   -4.4100    8.1026    0.0657 H   0  0  0  0  0  0  0  0  0  0  0  0
   -6.0148    7.2979    0.0681 H   0  0  0  0  0  0  0  0  0  0  0  0
  1  2  1  0  0  0  0
  2  3  1  0  0  0  0
  2  5  1  0  0  0  0
  2  8  1  0  0  0  0
  3  4  3  0  0  0  0
  5  7  1  0  0  0  0
  5  6  1  0  0  0  0
  6  7  1  0  0  0  0
  8  9  1  0  0  0  0
  9 10  2  0  0  0  0
  9 11  1  0  0  0  0
 11 12  1  0  0  0  0
 12 13  1  0  0  0  0
 13 17  2  0  0  0  0
 13 14  1  0  0  0  0
 14 15  1  0  0  0  0
 15 16  2  0  0  0  0
 15 18  1  0  0  0  0
 16 17  1  0  0  0  0
  1 19  1  0  0  0  0
  1 20  1  0  0  0  0
  1 21  1  0  0  0  0
  5 22  1  0  0  0  0
  6 23  1  0  0  0  0
  6 24  1  0  0  0  0
  7 25  1  0  0  0  0
  7 26  1  0  0  0  0
  8 27  1  0  0  0  0
 11 28  1  0  0  0  0
 11 29  1  0  0  0  0
 14 30  1  0  0  0  0
 18 31  1  0  0  0  0
 18 32  1  0  0  0  0
M  END
> <Name>
ZINC05472967

> <reference>
BDB5233

> <quality>
0.723

> <status>
decoy

$$$$
ZINC05665859
  SciTegic06141217593D

 52 53  0  0  1  0            999 V2000
   -2.2890   -1.6369   -0.2738 C   0  0  0  0  0  0  0  0  0  0  0  0
   -1.7987   -1.2521    1.0982 C   0  0  0  0  0  0  0  0  0  0  0  0
   -0.7290   -0.4897    1.2270 C   0  0  0  0  0  0  0  0  0  0  0  0
    0.0021   -0.0041    0.0020 C   0  5  0  0  0  0  0  0  0  0  0  0
    1.3718   -0.6559   -0.0146 C   0  0  0  0  0  0  0  0  0  0  0  0
    1.4940   -1.8620   -0.0226 O   0  0  0  0  0  0  0  0  0  0  0  0
    2.4496    0.1569   -0.0205 N   0  0  0  0  0  0  0  0  0  0  0  0
    2.3318    1.4896   -0.0118 C   0  0  0  0  0  0  0  0  0  0  0  0
    3.3545    2.1453   -0.0176 O   0  0  0  0  0  0  0  0  0  0  0  0
    1.1700    2.1529    0.0025 N   0  0  0  0  0  0  0  0  0  0  0  0
   -0.0185    1.5128    0.0104 C   0  0  0  0  0  0  0  0  0  0  0  0
   -1.0635    2.1273    0.0187 O   0  0  0  0  0  0  0  0  0  0  0  0
    1.1881    3.6178    0.0096 C   0  0  2  0  0  0  0  0  0  0  0  0
    1.9039    4.1252   -1.2438 C   0  0  0  0  0  0  0  0  0  0  0  0
    1.9228    5.6550   -1.2363 C   0  0  0  0  0  0  0  0  0  0  0  0
    2.6620    6.1498    0.0086 C   0  0  0  0  0  0  0  0  0  0  0  0
    1.9462    5.6425    1.2620 C   0  0  0  0  0  0  0  0  0  0  0  0
    1.9273    4.1126    1.2545 C   0  0  0  0  0  0  0  0  0  0  0  0
   -0.9879   -0.6070    3.6827 C   0  0  0  0  0  0  0  0  0  0  0  0
   -0.2894   -0.0777    4.9368 C   0  0  0  0  0  0  0  0  0  0  0  0
   -0.8976   -2.0104    6.2624 C   0  0  0  0  0  0  0  0  0  0  0  0
   -0.5096    0.1230    7.3397 C   0  0  0  0  0  0  0  0  0  0  0  0
   -0.2175   -0.0924    2.4980 N   0  3  0  0  0  0  0  0  0  0  0  0
   -1.0298   -0.5444    6.1278 N   0  0  0  0  0  0  0  0  0  0  0  0
   -1.4332   -2.1297   -0.7583 H   0  0  0  0  0  0  0  0  0  0  0  0
   -2.4586   -0.6844   -0.7972 H   0  0  0  0  0  0  0  0  0  0  0  0
   -3.1862   -2.2731   -0.2591 H   0  0  0  0  0  0  0  0  0  0  0  0
   -2.3323   -1.6066    1.9924 H   0  0  0  0  0  0  0  0  0  0  0  0
    3.3908   -0.2614   -0.0320 H   0  0  0  0  0  0  0  0  0  0  0  0
    0.1556    3.9972    0.0211 H   0  0  0  0  0  0  0  0  0  0  0  0
    1.3732    3.7702   -2.1395 H   0  0  0  0  0  0  0  0  0  0  0  0
    2.9365    3.7463   -1.2552 H   0  0  0  0  0  0  0  0  0  0  0  0
    2.4379    6.0199   -2.1372 H   0  0  0  0  0  0  0  0  0  0  0  0
    0.8908    6.0355   -1.2245 H   0  0  0  0  0  0  0  0  0  0  0  0
    2.6760    7.2497    0.0151 H   0  0  0  0  0  0  0  0  0  0  0  0
    3.6943    5.7699   -0.0025 H   0  0  0  0  0  0  0  0  0  0  0  0
    2.4778    5.9977    2.1571 H   0  0  0  0  0  0  0  0  0  0  0  0
    0.9135    6.0211    1.2744 H   0  0  0  0  0  0  0  0  0  0  0  0
    1.4125    3.7484    2.1558 H   0  0  0  0  0  0  0  0  0  0  0  0
    2.9600    3.7340    1.2438 H   0  0  0  0  0  0  0  0  0  0  0  0
   -0.9752   -1.7069    3.6856 H   0  0  0  0  0  0  0  0  0  0  0  0
   -2.0216   -0.2329    3.6451 H   0  0  0  0  0  0  0  0  0  0  0  0
   -0.2795    1.0221    4.9176 H   0  0  0  0  0  0  0  0  0  0  0  0
    0.7420   -0.4584    4.9723 H   0  0  0  0  0  0  0  0  0  0  0  0
    0.1659   -2.2715    6.3665 H   0  0  0  0  0  0  0  0  0  0  0  0
   -1.3055   -2.4963    5.3638 H   0  0  0  0  0  0  0  0  0  0  0  0
   -1.4499   -2.3533    7.1497 H   0  0  0  0  0  0  0  0  0  0  0  0
   -0.6311    1.2113    7.2359 H   0  0  0  0  0  0  0  0  0  0  0  0
    0.5581   -0.1146    7.4557 H   0  0  0  0  0  0  0  0  0  0  0  0
   -1.0633   -0.2272    8.2233 H   0  0  0  0  0  0  0  0  0  0  0  0
    0.7579   -0.4144    2.5739 H   0  0  0  0  0  0  0  0  0  0  0  0
   -0.2001    0.9367    2.5381 H   0  0  0  0  0  0  0  0  0  0  0  0
  1  2  1  0  0  0  0
  2  3  2  0  0  0  0
  3  4  1  0  0  0  0
  3 23  1  0  0  0  0
  4 11  1  0  0  0  0
  4  5  1  0  0  0  0
  5  6  2  0  0  0  0
  5  7  1  0  0  0  0
  7  8  1  0  0  0  0
  8  9  2  0  0  0  0
  8 10  1  0  0  0  0
 10 11  1  0  0  0  0
 10 13  1  0  0  0  0
 11 12  2  0  0  0  0
 13 18  1  0  0  0  0
 13 14  1  0  0  0  0
 14 15  1  0  0  0  0
 15 16  1  0  0  0  0
 16 17  1  0  0  0  0
 17 18  1  0  0  0  0
 19 20  1  0  0  0  0
 19 23  1  0  0  0  0
 20 24  1  0  0  0  0
 21 24  1  0  0  0  0
 22 24  1  0  0  0  0
  1 25  1  0  0  0  0
  1 26  1  0  0  0  0
  1 27  1  0  0  0  0
  2 28  1  0  0  0  0
  7 29  1  0  0  0  0
 13 30  1  0  0  0  0
 14 31  1  0  0  0  0
 14 32  1  0  0  0  0
 15 33  1  0  0  0  0
 15 34  1  0  0  0  0
 16 35  1  0  0  0  0
 16 36  1  0  0  0  0
 17 37  1  0  0  0  0
 17 38  1  0  0  0  0
 18 39  1  0  0  0  0
 18 40  1  0  0  0  0
 19 41  1  0  0  0  0
 19 42  1  0  0  0  0
 20 43  1  0  0  0  0
 20 44  1  0  0  0  0
 21 45  1  0  0  0  0
 21 46  1  0  0  0  0
 21 47  1  0  0  0  0
 22 48  1  0  0  0  0
 22 49  1  0  0  0  0
 22 50  1  0  0  0  0
 23 51  1  0  0  0  0
 23 52  1  0  0  0  0
M  CHG  2   4  -1  23   1
M  END
> <Name>
ZINC05665859

> <reference>
BDB5200

> <quality>
0.741

> <status>
decoy

$$$$
ZINC06380326
  SciTegic06141217593D

 44 45  0  0  1  0            999 V2000
   -0.0127    1.0858    0.0080 C   0  0  0  0  0  0  0  0  0  0  0  0
   -0.6816    1.5467    1.1837 O   0  0  0  0  0  0  0  0  0  0  0  0
   -2.0366    1.1060    1.2920 C   0  0  2  0  0  0  0  0  0  0  0  0
   -2.7248    1.8487    2.4403 C   0  0  2  0  0  0  0  0  0  0  0  0
   -2.0182    1.5065    3.7555 C   0  0  2  0  0  0  0  0  0  0  0  0
   -2.0365   -0.0125    3.9520 C   0  0  1  0  0  0  0  0  0  0  0  0
   -1.3749   -0.6834    2.7454 C   0  0  2  0  0  0  0  0  0  0  0  0
   -2.0615   -0.2989    1.5525 O   0  0  0  0  0  0  0  0  0  0  0  0
   -1.4427   -2.2034    2.9057 C   0  0  0  0  0  0  0  0  0  0  0  0
   -0.7252   -2.8273    1.8389 O   0  0  0  0  0  0  0  0  0  0  0  0
   -1.3167   -0.3491    5.1397 O   0  0  0  0  0  0  0  0  0  0  0  0
   -2.6989    2.1373    4.8421 O   0  0  0  0  0  0  0  0  0  0  0  0
   -2.2088    3.4424    5.1559 C   0  0  1  0  0  0  0  0  0  0  0  0
   -3.0849    4.0689    6.2438 C   0  0  1  0  0  0  0  0  0  0  0  0
   -2.5180    5.4421    6.6172 C   0  0  2  0  0  0  0  0  0  0  0  0
   -1.0629    5.2765    7.0663 C   0  0  1  0  0  0  0  0  0  0  0  0
   -0.2648    4.6034    5.9466 C   0  0  0  0  0  0  0  0  0  0  0  0
   -0.8630    3.3456    5.6267 O   0  0  0  0  0  0  0  0  0  0  0  0
   -0.5016    6.5598    7.3495 O   0  0  0  0  0  0  0  0  0  0  0  0
   -3.2865    6.0027    7.6835 O   0  0  0  0  0  0  0  0  0  0  0  0
   -4.4189    4.2201    5.7544 O   0  0  0  0  0  0  0  0  0  0  0  0
   -4.0943    1.4477    2.5155 O   0  0  0  0  0  0  0  0  0  0  0  0
   -0.5864    1.4411   -0.8607 H   0  0  0  0  0  0  0  0  0  0  0  0
   -0.0429   -0.0137    0.0188 H   0  0  0  0  0  0  0  0  0  0  0  0
    1.0252    1.4477   -0.0347 H   0  0  0  0  0  0  0  0  0  0  0  0
   -2.5657    1.3144    0.3504 H   0  0  0  0  0  0  0  0  0  0  0  0
   -2.6727    2.9332    2.2635 H   0  0  0  0  0  0  0  0  0  0  0  0
   -0.9785    1.8643    3.7226 H   0  0  0  0  0  0  0  0  0  0  0  0
   -3.0756   -0.3610    4.0455 H   0  0  0  0  0  0  0  0  0  0  0  0
   -0.3228   -0.3687    2.6814 H   0  0  0  0  0  0  0  0  0  0  0  0
   -0.9926   -2.4913    3.8672 H   0  0  0  0  0  0  0  0  0  0  0  0
   -2.4930   -2.5294    2.8802 H   0  0  0  0  0  0  0  0  0  0  0  0
    0.2206   -2.5357    1.8611 H   0  0  0  0  0  0  0  0  0  0  0  0
   -1.7417    0.0890    5.9192 H   0  0  0  0  0  0  0  0  0  0  0  0
   -2.2379    4.0711    4.2538 H   0  0  0  0  0  0  0  0  0  0  0  0
   -3.0946    3.4188    7.1311 H   0  0  0  0  0  0  0  0  0  0  0  0
   -2.5640    6.1123    5.7462 H   0  0  0  0  0  0  0  0  0  0  0  0
   -1.0236    4.6550    7.9730 H   0  0  0  0  0  0  0  0  0  0  0  0
    0.7713    4.4420    6.2791 H   0  0  0  0  0  0  0  0  0  0  0  0
   -0.2681    5.2479    5.0552 H   0  0  0  0  0  0  0  0  0  0  0  0
   -1.0212    6.9961    8.0705 H   0  0  0  0  0  0  0  0  0  0  0  0
   -3.2450    5.4040    8.4709 H   0  0  0  0  0  0  0  0  0  0  0  0
   -4.7833    3.3331    5.5083 H   0  0  0  0  0  0  0  0  0  0  0  0
   -4.1448    0.4723    2.6770 H   0  0  0  0  0  0  0  0  0  0  0  0
  1  2  1  0  0  0  0
  2  3  1  0  0  0  0
  3  8  1  0  0  0  0
  3  4  1  0  0  0  0
  4  5  1  0  0  0  0
  4 22  1  0  0  0  0
  5  6  1  0  0  0  0
  5 12  1  0  0  0  0
  6  7  1  0  0  0  0
  6 11  1  0  0  0  0
  7  8  1  0  0  0  0
  7  9  1  0  0  0  0
  9 10  1  0  0  0  0
 12 13  1  0  0  0  0
 13 18  1  0  0  0  0
 13 14  1  0  0  0  0
 14 15  1  0  0  0  0
 14 21  1  0  0  0  0
 15 16  1  0  0  0  0
 15 20  1  0  0  0  0
 16 17  1  0  0  0  0
 16 19  1  0  0  0  0
 17 18  1  0  0  0  0
  1 23  1  0  0  0  0
  1 24  1  0  0  0  0
  1 25  1  0  0  0  0
  3 26  1  0  0  0  0
  4 27  1  0  0  0  0
  5 28  1  0  0  0  0
  6 29  1  0  0  0  0
  7 30  1  0  0  0  0
  9 31  1  0  0  0  0
  9 32  1  0  0  0  0
 10 33  1  0  0  0  0
 11 34  1  0  0  0  0
 13 35  1  0  0  0  0
 14 36  1  0  0  0  0
 15 37  1  0  0  0  0
 16 38  1  0  0  0  0
 17 39  1  0  0  0  0
 17 40  1  0  0  0  0
 19 41  1  0  0  0  0
 20 42  1  0  0  0  0
 21 43  1  0  0  0  0
 22 44  1  0  0  0  0
M  END
> <Name>
ZINC06380326

> <reference>
BDB4932

> <quality>
0.692

> <status>
decoy

$$$$
ZINC21195156
  SciTegic06141217593D

 58 60  0  0  0  0            999 V2000
   -0.3985    3.7935   -0.1818 C   0  0  0  0  0  0  0  0  0  0  0  0
   -1.5264    2.9164   -0.2044 O   0  0  0  0  0  0  0  0  0  0  0  0
   -1.2703    1.5809   -0.1965 C   0  0  0  0  0  0  0  0  0  0  0  0
   -2.3190    0.6735   -0.2174 C   0  0  0  0  0  0  0  0  0  0  0  0
   -2.0588   -0.6831   -0.2098 C   0  0  0  0  0  0  0  0  0  0  0  0
   -0.7488   -1.1377   -0.1814 C   0  0  0  0  0  0  0  0  0  0  0  0
    0.3000   -0.2303   -0.1600 C   0  0  0  0  0  0  0  0  0  0  0  0
    0.0397    1.1262   -0.1676 C   0  0  0  0  0  0  0  0  0  0  0  0
   -0.4926   -2.4732   -0.1739 O   0  0  0  0  0  0  0  0  0  0  0  0
    0.8798   -2.8704   -0.1442 C   0  0  0  0  0  0  0  0  0  0  0  0
    0.9674   -4.3748   -0.1401 C   0  0  0  0  0  0  0  0  0  0  0  0
   -0.0462   -5.0416   -0.1606 O   0  0  0  0  0  0  0  0  0  0  0  0
    2.2761   -5.0322   -0.1114 C   0  0  0  0  0  0  0  0  0  0  0  0
    3.4494   -4.2654   -0.0935 C   0  0  0  0  0  0  0  0  0  0  0  0
    4.6670   -4.8799   -0.0619 C   0  0  0  0  0  0  0  0  0  0  0  0
    4.7552   -6.2699   -0.0579 C   0  0  0  0  0  0  0  0  0  0  0  0
    3.6048   -7.0450   -0.0807 C   0  0  0  0  0  0  0  0  0  0  0  0
    2.3619   -6.4361   -0.1075 C   0  0  0  0  0  0  0  0  0  0  0  0
    1.2340   -7.1885   -0.1294 O   0  0  0  0  0  0  0  0  0  0  0  0
    3.7081   -8.5485   -0.0757 C   0  0  0  0  0  0  0  0  0  0  0  0
    3.7702   -9.0396   -1.4588 N   0  3  0  0  0  0  0  0  0  0  0  0
    2.5085   -8.7814   -2.1666 C   0  0  0  0  0  0  0  0  0  0  0  0
    2.6413   -9.2344   -3.6225 C   0  0  0  0  0  0  0  0  0  0  0  0
    2.9793  -10.6641   -3.6590 N   0  0  0  0  0  0  0  0  0  0  0  0
    4.2410  -10.9223   -2.9512 C   0  0  0  0  0  0  0  0  0  0  0  0
    4.1082  -10.4693   -1.4954 C   0  0  0  0  0  0  0  0  0  0  0  0
    3.0414  -11.1552   -5.0421 C   0  0  0  0  0  0  0  0  0  0  0  0
    2.9075  -12.6793   -5.0486 C   0  0  0  0  0  0  0  0  0  0  0  0
    1.6127  -13.0458   -4.5677 O   0  0  0  0  0  0  0  0  0  0  0  0
    5.9722   -6.8689   -0.0312 O   0  5  0  0  0  0  0  0  0  0  0  0
    0.2138    3.5324   -1.0575 H   0  0  0  0  0  0  0  0  0  0  0  0
    0.1757    3.5356    0.7203 H   0  0  0  0  0  0  0  0  0  0  0  0
   -0.6851    4.8555   -0.1899 H   0  0  0  0  0  0  0  0  0  0  0  0
   -3.3580    1.0341   -0.2400 H   0  0  0  0  0  0  0  0  0  0  0  0
   -2.8905   -1.4028   -0.2263 H   0  0  0  0  0  0  0  0  0  0  0  0
    1.3390   -0.5909   -0.1370 H   0  0  0  0  0  0  0  0  0  0  0  0
    0.8714    1.8459   -0.1507 H   0  0  0  0  0  0  0  0  0  0  0  0
    1.3580   -2.4736    0.7635 H   0  0  0  0  0  0  0  0  0  0  0  0
    1.3951   -2.4761   -1.0324 H   0  0  0  0  0  0  0  0  0  0  0  0
    3.3883   -3.1672   -0.1049 H   0  0  0  0  0  0  0  0  0  0  0  0
    5.5847   -4.2739   -0.0394 H   0  0  0  0  0  0  0  0  0  0  0  0
    0.7448   -6.8872   -0.9356 H   0  0  0  0  0  0  0  0  0  0  0  0
    2.8270   -8.9760    0.4252 H   0  0  0  0  0  0  0  0  0  0  0  0
    4.6187   -8.8518    0.4618 H   0  0  0  0  0  0  0  0  0  0  0  0
    4.5181   -8.5235   -1.9437 H   0  0  0  0  0  0  0  0  0  0  0  0
    2.2835   -7.7051   -2.1371 H   0  0  0  0  0  0  0  0  0  0  0  0
    1.6946   -9.3404   -1.6818 H   0  0  0  0  0  0  0  0  0  0  0  0
    1.6883   -9.0697   -4.1465 H   0  0  0  0  0  0  0  0  0  0  0  0
    3.4369   -8.6573   -4.1164 H   0  0  0  0  0  0  0  0  0  0  0  0
    4.4649  -11.9989   -2.9809 H   0  0  0  0  0  0  0  0  0  0  0  0
    5.0557  -10.3640   -3.4355 H   0  0  0  0  0  0  0  0  0  0  0  0
    5.0614  -10.6347   -0.9718 H   0  0  0  0  0  0  0  0  0  0  0  0
    3.3131  -11.0482   -1.0029 H   0  0  0  0  0  0  0  0  0  0  0  0
    4.0047  -10.8706   -5.4905 H   0  0  0  0  0  0  0  0  0  0  0  0
    2.2204  -10.7131   -5.6256 H   0  0  0  0  0  0  0  0  0  0  0  0
    3.0368  -13.0545   -6.0745 H   0  0  0  0  0  0  0  0  0  0  0  0
    3.6776  -13.1189   -4.3977 H   0  0  0  0  0  0  0  0  0  0  0  0
    0.9185  -12.6517   -5.1532 H   0  0  0  0  0  0  0  0  0  0  0  0
  1  2  1  0  0  0  0
  2  3  1  0  0  0  0
  3  8  2  0  0  0  0
  3  4  1  0  0  0  0
  4  5  2  0  0  0  0
  5  6  1  0  0  0  0
  6  7  2  0  0  0  0
  6  9  1  0  0  0  0
  7  8  1  0  0  0  0
  9 10  1  0  0  0  0
 10 11  1  0  0  0  0
 11 12  2  0  0  0  0
 11 13  1  0  0  0  0
 13 18  2  0  0  0  0
 13 14  1  0  0  0  0
 14 15  2  0  0  0  0
 15 16  1  0  0  0  0
 16 17  2  0  0  0  0
 16 30  1  0  0  0  0
 17 18  1  0  0  0  0
 17 20  1  0  0  0  0
 18 19  1  0  0  0  0
 20 21  1  0  0  0  0
 21 26  1  0  0  0  0
 21 22  1  0  0  0  0
 22 23  1  0  0  0  0
 23 24  1  0  0  0  0
 24 25  1  0  0  0  0
 24 27  1  0  0  0  0
 25 26  1  0  0  0  0
 27 28  1  0  0  0  0
 28 29  1  0  0  0  0
  1 31  1  0  0  0  0
  1 32  1  0  0  0  0
  1 33  1  0  0  0  0
  4 34  1  0  0  0  0
  5 35  1  0  0  0  0
  7 36  1  0  0  0  0
  8 37  1  0  0  0  0
 10 38  1  0  0  0  0
 10 39  1  0  0  0  0
 14 40  1  0  0  0  0
 15 41  1  0  0  0  0
 19 42  1  0  0  0  0
 20 43  1  0  0  0  0
 20 44  1  0  0  0  0
 21 45  1  0  0  0  0
 22 46  1  0  0  0  0
 22 47  1  0  0  0  0
 23 48  1  0  0  0  0
 23 49  1  0  0  0  0
 25 50  1  0  0  0  0
 25 51  1  0  0  0  0
 26 52  1  0  0  0  0
 26 53  1  0  0  0  0
 27 54  1  0  0  0  0
 27 55  1  0  0  0  0
 28 56  1  0  0  0  0
 28 57  1  0  0  0  0
 29 58  1  0  0  0  0
M  CHG  2  21   1  30  -1
M  END
> <Name>
ZINC21195156

> <reference>
BDB4965

> <quality>
0.813

> <status>
decoy

$$$$
ZINC05434281
  SciTegic06141217593D

 25 24  0  0  1  0            999 V2000
   -0.0184    1.5028    0.0103 C   0  0  0  0  0  0  0  0  0  0  0  0
    0.0021   -0.0041    0.0020 C   0  0  0  0  0  0  0  0  0  0  0  0
    1.0565   -0.5939   -0.0112 O   0  0  0  0  0  0  0  0  0  0  0  0
   -1.1511   -0.6910    0.0093 O   0  0  0  0  0  0  0  0  0  0  0  0
   -1.0555   -2.1398    0.0006 C   0  0  2  0  0  0  0  0  0  0  0  0
   -2.2752   -2.7271   -0.7122 C   0  0  0  0  0  0  0  0  0  0  0  0
   -3.4148   -2.8750   -2.8434 C   0  0  0  0  0  0  0  0  0  0  0  0
   -3.3605   -2.4454   -4.2868 C   0  0  0  0  0  0  0  0  0  0  0  0
   -2.4497   -1.7543   -4.6776 O   0  0  0  0  0  0  0  0  0  0  0  0
   -1.0081   -2.6564    1.4400 C   0  0  1  0  0  0  0  0  0  0  0  0
   -2.5085   -2.1583    2.3070 Cl  0  0  0  0  0  0  0  0  0  0  0  0
   -0.8893   -4.4555    1.4292 Cl  0  0  0  0  0  0  0  0  0  0  0  0
    0.4293   -1.9642    2.2800 Cl  0  0  0  0  0  0  0  0  0  0  0  0
   -2.2480   -2.3218   -2.1302 N   0  3  0  0  0  0  0  0  0  0  0  0
   -4.3240   -2.8304   -5.1384 O   0  5  0  0  0  0  0  0  0  0  0  0
    0.5480    1.8091   -0.8815 H   0  0  0  0  0  0  0  0  0  0  0  0
    0.5649    1.7995    0.8944 H   0  0  0  0  0  0  0  0  0  0  0  0
   -1.0352    1.9222    0.0222 H   0  0  0  0  0  0  0  0  0  0  0  0
   -0.1402   -2.4437   -0.5284 H   0  0  0  0  0  0  0  0  0  0  0  0
   -2.2479   -3.8246   -0.6436 H   0  0  0  0  0  0  0  0  0  0  0  0
   -3.1947   -2.3502   -0.2405 H   0  0  0  0  0  0  0  0  0  0  0  0
   -4.3395   -2.4980   -2.3822 H   0  0  0  0  0  0  0  0  0  0  0  0
   -3.3938   -3.9732   -2.7846 H   0  0  0  0  0  0  0  0  0  0  0  0
   -2.2668   -1.2938   -2.1919 H   0  0  0  0  0  0  0  0  0  0  0  0
   -1.3838   -2.6701   -2.5693 H   0  0  0  0  0  0  0  0  0  0  0  0
  1  2  1  0  0  0  0
  2  3  2  0  0  0  0
  2  4  1  0  0  0  0
  4  5  1  0  0  0  0
  5  6  1  0  0  0  0
  5 10  1  0  0  0  0
  6 14  1  0  0  0  0
  7  8  1  0  0  0  0
  7 14  1  0  0  0  0
  8  9  2  0  0  0  0
  8 15  1  0  0  0  0
 10 11  1  0  0  0  0
 10 12  1  0  0  0  0
 10 13  1  0  0  0  0
  1 16  1  0  0  0  0
  1 17  1  0  0  0  0
  1 18  1  0  0  0  0
  5 19  1  0  0  0  0
  6 20  1  0  0  0  0
  6 21  1  0  0  0  0
  7 22  1  0  0  0  0
  7 23  1  0  0  0  0
 14 24  1  0  0  0  0
 14 25  1  0  0  0  0
M  CHG  2  14   1  15  -1
M  END
> <Name>
ZINC05434281

> <reference>
BDB5232

> <quality>
0.777

> <status>
decoy

$$$$
ZINC28314515
  SciTegic06141217593D

 59 60  0  0  0  0            999 V2000
    3.7443    4.9283   10.0935 C   0  0  0  0  0  0  0  0  0  0  0  0
    5.0835    4.6442    9.6835 O   0  0  0  0  0  0  0  0  0  0  0  0
    5.2878    3.4853    9.0018 C   0  0  0  0  0  0  0  0  0  0  0  0
    4.2215    2.6403    8.7338 C   0  0  0  0  0  0  0  0  0  0  0  0
    4.4283    1.4617    8.0418 C   0  0  0  0  0  0  0  0  0  0  0  0
    5.6986    1.1179    7.6188 C   0  0  0  0  0  0  0  0  0  0  0  0
    6.7692    1.9604    7.8775 C   0  0  0  0  0  0  0  0  0  0  0  0
    6.5656    3.1461    8.5733 C   0  0  0  0  0  0  0  0  0  0  0  0
    7.6146    3.9730    8.8340 O   0  0  0  0  0  0  0  0  0  0  0  0
    8.3215    3.7582   10.0572 C   0  0  0  0  0  0  0  0  0  0  0  0
    9.4411    4.7603   10.1730 C   0  0  0  0  0  0  0  0  0  0  0  0
    9.6163    5.5780    9.2946 O   0  0  0  0  0  0  0  0  0  0  0  0
   10.2476    4.7480   11.2528 N   0  0  0  0  0  0  0  0  0  0  0  0
    8.0177    1.6238    7.4564 O   0  0  0  0  0  0  0  0  0  0  0  0
    8.1527    0.3906    6.7471 C   0  0  0  0  0  0  0  0  0  0  0  0
    3.2667    0.5461    7.7531 C   0  0  0  0  0  0  0  0  0  0  0  0
    2.6642    0.9109    6.4639 N   0  3  0  0  0  0  0  0  0  0  0  0
    1.5259    0.0375    6.1488 C   0  0  0  0  0  0  0  0  0  0  0  0
    0.9351    0.4411    4.8225 C   0  0  0  0  0  0  0  0  0  0  0  0
   -0.2042    1.2236    4.7836 C   0  0  0  0  0  0  0  0  0  0  0  0
   -0.7455    1.6005    3.5658 C   0  0  0  0  0  0  0  0  0  0  0  0
   -0.1484    1.1819    2.3804 C   0  0  0  0  0  0  0  0  0  0  0  0
    0.9927    0.3981    2.4211 C   0  0  0  0  0  0  0  0  0  0  0  0
    1.5350    0.0276    3.6428 C   0  0  0  0  0  0  0  0  0  0  0  0
    2.6554   -0.7420    3.6835 O   0  0  0  0  0  0  0  0  0  0  0  0
    3.2204   -1.1322    2.4303 C   0  0  0  0  0  0  0  0  0  0  0  0
   -0.6816    1.5467    1.1837 O   0  0  0  0  0  0  0  0  0  0  0  0
   -0.0127    1.0858    0.0080 C   0  0  0  0  0  0  0  0  0  0  0  0
   -1.8635    2.3752    3.5284 O   0  0  0  0  0  0  0  0  0  0  0  0
   -2.4230    2.7680    4.7833 C   0  0  0  0  0  0  0  0  0  0  0  0
    3.4233    4.0774   10.7123 H   0  0  0  0  0  0  0  0  0  0  0  0
    3.1342    4.9289    9.1782 H   0  0  0  0  0  0  0  0  0  0  0  0
    3.6589    5.8803   10.6380 H   0  0  0  0  0  0  0  0  0  0  0  0
    3.2098    2.9082    9.0723 H   0  0  0  0  0  0  0  0  0  0  0  0
    5.8604    0.1748    7.0763 H   0  0  0  0  0  0  0  0  0  0  0  0
    8.7389    2.7405   10.0670 H   0  0  0  0  0  0  0  0  0  0  0  0
    7.6320    3.8799   10.9056 H   0  0  0  0  0  0  0  0  0  0  0  0
   10.0987    4.0537   11.9989 H   0  0  0  0  0  0  0  0  0  0  0  0
   11.0128    5.4329   11.3319 H   0  0  0  0  0  0  0  0  0  0  0  0
    7.4789    0.4571    5.8802 H   0  0  0  0  0  0  0  0  0  0  0  0
    7.7670   -0.3940    7.4147 H   0  0  0  0  0  0  0  0  0  0  0  0
    9.1893    0.1877    6.4399 H   0  0  0  0  0  0  0  0  0  0  0  0
    3.6215   -0.4942    7.7101 H   0  0  0  0  0  0  0  0  0  0  0  0
    2.5143    0.6443    8.5495 H   0  0  0  0  0  0  0  0  0  0  0  0
    2.3409    1.8880    6.5044 H   0  0  0  0  0  0  0  0  0  0  0  0
    3.3723    0.8260    5.7208 H   0  0  0  0  0  0  0  0  0  0  0  0
    0.7613    0.1321    6.9339 H   0  0  0  0  0  0  0  0  0  0  0  0
    1.8685   -1.0064    6.0945 H   0  0  0  0  0  0  0  0  0  0  0  0
   -0.6810    1.5470    5.7206 H   0  0  0  0  0  0  0  0  0  0  0  0
    1.4686    0.0697    1.4853 H   0  0  0  0  0  0  0  0  0  0  0  0
    3.4345   -0.2015    1.8845 H   0  0  0  0  0  0  0  0  0  0  0  0
    2.4276   -1.6672    1.8869 H   0  0  0  0  0  0  0  0  0  0  0  0
    4.1223   -1.7516    2.5445 H   0  0  0  0  0  0  0  0  0  0  0  0
    0.0147   -0.0116    0.0779 H   0  0  0  0  0  0  0  0  0  0  0  0
    1.0216    1.4541    0.0761 H   0  0  0  0  0  0  0  0  0  0  0  0
   -0.5018    1.4206   -0.9187 H   0  0  0  0  0  0  0  0  0  0  0  0
   -1.6263    3.2998    5.3241 H   0  0  0  0  0  0  0  0  0  0  0  0
   -2.6393    1.8383    5.3300 H   0  0  0  0  0  0  0  0  0  0  0  0
   -3.3226    3.3911    4.6718 H   0  0  0  0  0  0  0  0  0  0  0  0
  1  2  1  0  0  0  0
  2  3  1  0  0  0  0
  3  8  2  0  0  0  0
  3  4  1  0  0  0  0
  4  5  2  0  0  0  0
  5  6  1  0  0  0  0
  5 16  1  0  0  0  0
  6  7  2  0  0  0  0
  7  8  1  0  0  0  0
  7 14  1  0  0  0  0
  8  9  1  0  0  0  0
  9 10  1  0  0  0  0
 10 11  1  0  0  0  0
 11 12  2  0  0  0  0
 11 13  1  0  0  0  0
 14 15  1  0  0  0  0
 16 17  1  0  0  0  0
 17 18  1  0  0  0  0
 18 19  1  0  0  0  0
 19 24  2  0  0  0  0
 19 20  1  0  0  0  0
 20 21  2  0  0  0  0
 21 22  1  0  0  0  0
 21 29  1  0  0  0  0
 22 23  2  0  0  0  0
 22 27  1  0  0  0  0
 23 24  1  0  0  0  0
 24 25  1  0  0  0  0
 25 26  1  0  0  0  0
 27 28  1  0  0  0  0
 29 30  1  0  0  0  0
  1 31  1  0  0  0  0
  1 32  1  0  0  0  0
  1 33  1  0  0  0  0
  4 34  1  0  0  0  0
  6 35  1  0  0  0  0
 10 36  1  0  0  0  0
 10 37  1  0  0  0  0
 13 38  1  0  0  0  0
 13 39  1  0  0  0  0
 15 40  1  0  0  0  0
 15 41  1  0  0  0  0
 15 42  1  0  0  0  0
 16 43  1  0  0  0  0
 16 44  1  0  0  0  0
 17 45  1  0  0  0  0
 17 46  1  0  0  0  0
 18 47  1  0  0  0  0
 18 48  1  0  0  0  0
 20 49  1  0  0  0  0
 23 50  1  0  0  0  0
 26 51  1  0  0  0  0
 26 52  1  0  0  0  0
 26 53  1  0  0  0  0
 28 54  1  0  0  0  0
 28 55  1  0  0  0  0
 28 56  1  0  0  0  0
 30 57  1  0  0  0  0
 30 58  1  0  0  0  0
 30 59  1  0  0  0  0
M  CHG  1  17   1
M  END
> <Name>
ZINC28314515

> <reference>
BDB4948

> <quality>
0.751

> <status>
decoy

$$$$
ZINC02861235
  SciTegic06141217593D

 53 54  0  0  1  0            999 V2000
    8.8634    8.9554   -8.8725 C   0  0  0  0  0  0  0  0  0  0  0  0
    8.6230    9.4192   -7.4344 C   0  0  0  0  0  0  0  0  0  0  0  0
    7.3876    8.7142   -6.8709 C   0  0  0  0  0  0  0  0  0  0  0  0
    7.1631    9.1474   -5.5278 O   0  0  0  0  0  0  0  0  0  0  0  0
    6.0963    8.6128   -4.8773 C   0  0  0  0  0  0  0  0  0  0  0  0
    5.8194    8.9887   -3.5709 C   0  0  0  0  0  0  0  0  0  0  0  0
    4.7347    8.4435   -2.9117 C   0  0  0  0  0  0  0  0  0  0  0  0
    3.9256    7.5236   -3.5527 C   0  0  0  0  0  0  0  0  0  0  0  0
    4.2027    7.1431   -4.8527 C   0  0  0  0  0  0  0  0  0  0  0  0
    5.2826    7.6900   -5.5184 C   0  0  0  0  0  0  0  0  0  0  0  0
    2.7432    6.9301   -2.8310 C   0  0  2  0  0  0  0  0  0  0  0  0
    3.1461    5.5933   -2.2053 C   0  0  0  0  0  0  0  0  0  0  0  0
    1.9851    5.0509   -1.3694 C   0  0  0  0  0  0  0  0  0  0  0  0
    1.3128    3.2581    0.1127 C   0  0  2  0  0  0  0  0  0  0  0  0
    1.5053    3.8238    1.5211 C   0  0  0  0  0  0  0  0  0  0  0  0
    0.3324    3.4344    2.3835 C   0  0  0  0  0  0  0  0  0  0  0  0
   -0.6211    2.8788    1.8915 O   0  0  0  0  0  0  0  0  0  0  0  0
    1.3807    1.7534    0.1621 C   0  0  0  0  0  0  0  0  0  0  0  0
    0.2163    1.0085    0.1573 C   0  0  0  0  0  0  0  0  0  0  0  0
    0.2786   -0.3717    0.2022 C   0  0  0  0  0  0  0  0  0  0  0  0
    1.5054   -1.0070    0.2514 C   0  0  0  0  0  0  0  0  0  0  0  0
    2.6698   -0.2620    0.2562 C   0  0  0  0  0  0  0  0  0  0  0  0
    2.6075    1.1182    0.2112 C   0  0  0  0  0  0  0  0  0  0  0  0
    1.6760    6.7198   -3.7577 O   0  0  0  0  0  0  0  0  0  0  0  0
    2.3813    3.7624   -0.7704 N   0  3  0  0  0  0  0  0  0  0  0  0
    0.3470    3.7048    3.6982 O   0  5  0  0  0  0  0  0  0  0  0  0
    7.9873    9.2029   -9.4900 H   0  0  0  0  0  0  0  0  0  0  0  0
    9.0250    7.8674   -8.8858 H   0  0  0  0  0  0  0  0  0  0  0  0
    9.7515    9.4619   -9.2783 H   0  0  0  0  0  0  0  0  0  0  0  0
    9.4994    9.1710   -6.8176 H   0  0  0  0  0  0  0  0  0  0  0  0
    8.4614   10.5072   -7.4210 H   0  0  0  0  0  0  0  0  0  0  0  0
    6.5108    8.9623   -7.4870 H   0  0  0  0  0  0  0  0  0  0  0  0
    7.5479    7.6260   -6.8825 H   0  0  0  0  0  0  0  0  0  0  0  0
    6.4630    9.7202   -3.0604 H   0  0  0  0  0  0  0  0  0  0  0  0
    4.5145    8.7415   -1.8760 H   0  0  0  0  0  0  0  0  0  0  0  0
    3.5628    6.4043   -5.3573 H   0  0  0  0  0  0  0  0  0  0  0  0
    5.4971    7.3940   -6.5559 H   0  0  0  0  0  0  0  0  0  0  0  0
    2.4120    7.6199   -2.0407 H   0  0  0  0  0  0  0  0  0  0  0  0
    3.3911    4.8748   -3.0013 H   0  0  0  0  0  0  0  0  0  0  0  0
    4.0248    5.7393   -1.5599 H   0  0  0  0  0  0  0  0  0  0  0  0
    1.1058    4.9012   -2.0132 H   0  0  0  0  0  0  0  0  0  0  0  0
    1.7409    5.7671   -0.5711 H   0  0  0  0  0  0  0  0  0  0  0  0
    0.3327    3.5721   -0.2756 H   0  0  0  0  0  0  0  0  0  0  0  0
    2.4304    3.4178    1.9562 H   0  0  0  0  0  0  0  0  0  0  0  0
    1.5743    4.9205    1.4707 H   0  0  0  0  0  0  0  0  0  0  0  0
   -0.7599    1.5140    0.1178 H   0  0  0  0  0  0  0  0  0  0  0  0
   -0.6480   -0.9645    0.1988 H   0  0  0  0  0  0  0  0  0  0  0  0
    1.5550   -2.1053    0.2867 H   0  0  0  0  0  0  0  0  0  0  0  0
    3.6460   -0.7675    0.2958 H   0  0  0  0  0  0  0  0  0  0  0  0
    3.5341    1.7110    0.2145 H   0  0  0  0  0  0  0  0  0  0  0  0
    1.9731    6.0989   -4.4692 H   0  0  0  0  0  0  0  0  0  0  0  0
    2.5563    3.0772   -1.5192 H   0  0  0  0  0  0  0  0  0  0  0  0
    3.2440    3.8905   -0.2224 H   0  0  0  0  0  0  0  0  0  0  0  0
  1  2  1  0  0  0  0
  2  3  1  0  0  0  0
  3  4  1  0  0  0  0
  4  5  1  0  0  0  0
  5 10  2  0  0  0  0
  5  6  1  0  0  0  0
  6  7  2  0  0  0  0
  7  8  1  0  0  0  0
  8  9  2  0  0  0  0
  8 11  1  0  0  0  0
  9 10  1  0  0  0  0
 11 12  1  0  0  0  0
 11 24  1  0  0  0  0
 12 13  1  0  0  0  0
 13 25  1  0  0  0  0
 14 15  1  0  0  0  0
 14 18  1  0  0  0  0
 14 25  1  0  0  0  0
 15 16  1  0  0  0  0
 16 17  2  0  0  0  0
 16 26  1  0  0  0  0
 18 23  2  0  0  0  0
 18 19  1  0  0  0  0
 19 20  2  0  0  0  0
 20 21  1  0  0  0  0
 21 22  2  0  0  0  0
 22 23  1  0  0  0  0
  1 27  1  0  0  0  0
  1 28  1  0  0  0  0
  1 29  1  0  0  0  0
  2 30  1  0  0  0  0
  2 31  1  0  0  0  0
  3 32  1  0  0  0  0
  3 33  1  0  0  0  0
  6 34  1  0  0  0  0
  7 35  1  0  0  0  0
  9 36  1  0  0  0  0
 10 37  1  0  0  0  0
 11 38  1  0  0  0  0
 12 39  1  0  0  0  0
 12 40  1  0  0  0  0
 13 41  1  0  0  0  0
 13 42  1  0  0  0  0
 14 43  1  0  0  0  0
 15 44  1  0  0  0  0
 15 45  1  0  0  0  0
 19 46  1  0  0  0  0
 20 47  1  0  0  0  0
 21 48  1  0  0  0  0
 22 49  1  0  0  0  0
 23 50  1  0  0  0  0
 24 51  1  0  0  0  0
 25 52  1  0  0  0  0
 25 53  1  0  0  0  0
M  CHG  2  25   1  26  -1
M  END
> <Name>
ZINC02861235

> <reference>
BDB4997

> <quality>
0.669

> <status>
decoy

$$$$
ZINC29372671
  SciTegic06141217593D

 52 53  0  0  1  0            999 V2000
    1.4178    1.9774   -0.0009 C   0  0  0  0  0  0  0  0  0  0  0  0
   -0.0176    1.4478    0.0100 C   0  0  0  0  0  0  0  0  0  0  0  0
    0.0021   -0.0041    0.0020 O   0  0  0  0  0  0  0  0  0  0  0  0
   -1.1909   -0.6325    0.0100 C   0  0  0  0  0  0  0  0  0  0  0  0
   -2.2195    0.0158    0.0233 O   0  0  0  0  0  0  0  0  0  0  0  0
   -1.2478   -2.0986    0.0027 C   0  0  0  0  0  0  0  0  0  0  0  0
   -1.2869   -2.8089   -1.1879 C   0  0  0  0  0  0  0  0  0  0  0  0
   -1.3387   -4.1740   -1.1121 C   0  0  0  0  0  0  0  0  0  0  0  0
   -1.3325   -4.4700    0.6459 S   0  0  0  0  0  0  0  0  0  0  0  0
   -1.2585   -2.8281    1.1963 C   0  0  0  0  0  0  0  0  0  0  0  0
   -1.2216   -2.3561    2.4939 N   0  0  0  0  0  0  0  0  0  0  0  0
   -1.2399   -3.2219    3.5266 C   0  0  0  0  0  0  0  0  0  0  0  0
   -1.2888   -4.4153    3.3166 O   0  0  0  0  0  0  0  0  0  0  0  0
   -1.1996   -2.7070    4.9423 C   0  0  1  0  0  0  0  0  0  0  0  0
   -2.4117   -1.8075    5.1926 C   0  0  0  0  0  0  0  0  0  0  0  0
   -1.2295   -3.8371    5.8741 N   0  3  0  0  0  0  0  0  0  0  0  0
   -2.2612   -4.6595    5.8512 C   0  0  0  0  0  0  0  0  0  0  0  0
   -2.3322   -5.7400    6.7117 C   0  0  0  0  0  0  0  0  0  0  0  0
   -1.3027   -5.9591    7.6103 C   0  0  0  0  0  0  0  0  0  0  0  0
   -0.2219   -5.0696    7.6107 C   0  0  0  0  0  0  0  0  0  0  0  0
   -0.2237   -4.0063    6.7067 C   0  0  0  0  0  0  0  0  0  0  0  0
    0.9049   -5.2562    8.5494 C   0  0  0  0  0  0  0  0  0  0  0  0
    1.8383   -4.4776    8.5410 O   0  0  0  0  0  0  0  0  0  0  0  0
    0.8973   -6.2897    9.4145 N   0  0  0  0  0  0  0  0  0  0  0  0
   -1.3866   -5.1493   -2.2035 C   0  0  0  0  0  0  0  0  0  0  0  0
   -1.3831   -4.7692   -3.3599 O   0  0  0  0  0  0  0  0  0  0  0  0
   -1.4346   -6.4676   -1.9275 N   0  0  0  0  0  0  0  0  0  0  0  0
   -1.4825   -7.4432   -3.0193 C   0  0  0  0  0  0  0  0  0  0  0  0
   -1.2735   -2.1017   -2.5186 C   0  0  0  0  0  0  0  0  0  0  0  0
    1.9335    1.6234   -0.9058 H   0  0  0  0  0  0  0  0  0  0  0  0
    1.9507    1.6137    0.8900 H   0  0  0  0  0  0  0  0  0  0  0  0
    1.4036    3.0773    0.0052 H   0  0  0  0  0  0  0  0  0  0  0  0
   -0.5324    1.8020    0.9153 H   0  0  0  0  0  0  0  0  0  0  0  0
   -0.5505    1.8114   -0.8809 H   0  0  0  0  0  0  0  0  0  0  0  0
   -1.1801   -1.3425    2.6723 H   0  0  0  0  0  0  0  0  0  0  0  0
   -0.2762   -2.1293    5.0961 H   0  0  0  0  0  0  0  0  0  0  0  0
   -3.3356   -2.3844    5.0392 H   0  0  0  0  0  0  0  0  0  0  0  0
   -2.3900   -0.9584    4.4936 H   0  0  0  0  0  0  0  0  0  0  0  0
   -2.3829   -1.4313    6.2259 H   0  0  0  0  0  0  0  0  0  0  0  0
   -3.0781   -4.4828    5.1361 H   0  0  0  0  0  0  0  0  0  0  0  0
   -3.1978   -6.4181    6.6822 H   0  0  0  0  0  0  0  0  0  0  0  0
   -1.3330   -6.8104    8.3063 H   0  0  0  0  0  0  0  0  0  0  0  0
    0.6224   -3.3036    6.6897 H   0  0  0  0  0  0  0  0  0  0  0  0
    0.1064   -6.9495    9.4216 H   0  0  0  0  0  0  0  0  0  0  0  0
    1.6824   -6.4197   10.0685 H   0  0  0  0  0  0  0  0  0  0  0  0
   -1.4376   -6.7892   -0.9490 H   0  0  0  0  0  0  0  0  0  0  0  0
   -0.5939   -7.2315   -3.6321 H   0  0  0  0  0  0  0  0  0  0  0  0
   -2.3638   -7.1635   -3.6152 H   0  0  0  0  0  0  0  0  0  0  0  0
   -1.5194   -8.4892   -2.6809 H   0  0  0  0  0  0  0  0  0  0  0  0
   -0.3652   -1.4817   -2.4930 H   0  0  0  0  0  0  0  0  0  0  0  0
   -2.1313   -1.4145   -2.4751 H   0  0  0  0  0  0  0  0  0  0  0  0
   -1.3079   -2.7725   -3.3897 H   0  0  0  0  0  0  0  0  0  0  0  0
  1  2  1  0  0  0  0
  2  3  1  0  0  0  0
  3  4  1  0  0  0  0
  4  5  2  0  0  0  0
  4  6  1  0  0  0  0
  6 10  2  0  0  0  0
  6  7  1  0  0  0  0
  7  8  2  0  0  0  0
  7 29  1  0  0  0  0
  8  9  1  0  0  0  0
  8 25  1  0  0  0  0
  9 10  1  0  0  0  0
 10 11  1  0  0  0  0
 11 12  1  0  0  0  0
 12 13  2  0  0  0  0
 12 14  1  0  0  0  0
 14 15  1  0  0  0  0
 14 16  1  0  0  0  0
 16 21  2  0  0  0  0
 16 17  1  0  0  0  0
 17 18  2  0  0  0  0
 18 19  1  0  0  0  0
 19 20  2  0  0  0  0
 20 21  1  0  0  0  0
 20 22  1  0  0  0  0
 22 23  2  0  0  0  0
 22 24  1  0  0  0  0
 25 26  2  0  0  0  0
 25 27  1  0  0  0  0
 27 28  1  0  0  0  0
  1 30  1  0  0  0  0
  1 31  1  0  0  0  0
  1 32  1  0  0  0  0
  2 33  1  0  0  0  0
  2 34  1  0  0  0  0
 11 35  1  0  0  0  0
 14 36  1  0  0  0  0
 15 37  1  0  0  0  0
 15 38  1  0  0  0  0
 15 39  1  0  0  0  0
 17 40  1  0  0  0  0
 18 41  1  0  0  0  0
 19 42  1  0  0  0  0
 21 43  1  0  0  0  0
 24 44  1  0  0  0  0
 24 45  1  0  0  0  0
 27 46  1  0  0  0  0
 28 47  1  0  0  0  0
 28 48  1  0  0  0  0
 28 49  1  0  0  0  0
 29 50  1  0  0  0  0
 29 51  1  0  0  0  0
 29 52  1  0  0  0  0
M  CHG  1  16   1
M  END
> <Name>
ZINC29372671

> <reference>
BDB4965

> <quality>
0.697

> <status>
decoy

$$$$
ZINC00399536
  SciTegic06141217593D

 40 41  0  0  1  0            999 V2000
   -4.2533    6.1531   -2.0445 C   0  0  0  0  0  0  0  0  0  0  0  0
   -3.0477    6.7554   -1.7370 C   0  0  0  0  0  0  0  0  0  0  0  0
   -1.8685    6.0449   -1.8614 C   0  0  0  0  0  0  0  0  0  0  0  0
   -1.8948    4.7322   -2.2939 C   0  0  0  0  0  0  0  0  0  0  0  0
   -3.0999    4.1317   -2.6069 C   0  0  0  0  0  0  0  0  0  0  0  0
   -4.2796    4.8405   -2.4774 C   0  0  0  0  0  0  0  0  0  0  0  0
   -0.6092    3.9578   -2.4300 C   0  0  0  0  0  0  0  0  0  0  0  0
   -0.3149    3.2845   -1.1777 O   0  0  0  0  0  0  0  0  0  0  0  0
    0.8078    2.5444   -1.1312 C   0  0  0  0  0  0  0  0  0  0  0  0
    1.5223    2.4630   -2.1098 O   0  0  0  0  0  0  0  0  0  0  0  0
    1.1418    1.8988    0.0014 O   0  0  0  0  0  0  0  0  0  0  0  0
    2.2347    1.0919   -0.0476 C   0  0  0  0  0  0  0  0  0  0  0  0
    2.0792   -0.2846   -0.1212 C   0  0  0  0  0  0  0  0  0  0  0  0
    3.1914   -1.1023   -0.1751 C   0  0  0  0  0  0  0  0  0  0  0  0
    4.4587   -0.5503   -0.1457 C   0  0  0  0  0  0  0  0  0  0  0  0
    4.6163    0.8211   -0.0675 C   0  0  0  0  0  0  0  0  0  0  0  0
    3.5073    1.6433   -0.0182 C   0  0  0  0  0  0  0  0  0  0  0  0
    5.6703   -1.4449   -0.1984 C   0  0  0  0  0  0  0  0  0  0  0  0
    6.0822   -1.8300    1.2239 C   0  0  1  0  0  0  0  0  0  0  0  0
    7.2160   -2.8211    1.1676 C   0  0  0  0  0  0  0  0  0  0  0  0
    8.3526   -2.4492    1.3401 O   0  0  0  0  0  0  0  0  0  0  0  0
    6.9632   -4.1170    0.9259 O   0  5  0  0  0  0  0  0  0  0  0  0
    6.4961   -0.6151    1.9478 N   0  3  0  0  0  0  0  0  0  0  0  0
   -5.1917    6.7183   -1.9447 H   0  0  0  0  0  0  0  0  0  0  0  0
   -3.0267    7.8001   -1.3933 H   0  0  0  0  0  0  0  0  0  0  0  0
   -0.9092    6.5241   -1.6162 H   0  0  0  0  0  0  0  0  0  0  0  0
   -3.1201    3.0898   -2.9590 H   0  0  0  0  0  0  0  0  0  0  0  0
   -5.2392    4.3601   -2.7188 H   0  0  0  0  0  0  0  0  0  0  0  0
   -0.7136    3.2114   -3.2313 H   0  0  0  0  0  0  0  0  0  0  0  0
    0.2114    4.6477   -2.6762 H   0  0  0  0  0  0  0  0  0  0  0  0
    1.0712   -0.7246   -0.1366 H   0  0  0  0  0  0  0  0  0  0  0  0
    3.0686   -2.1934   -0.2415 H   0  0  0  0  0  0  0  0  0  0  0  0
    5.6256    1.2578   -0.0445 H   0  0  0  0  0  0  0  0  0  0  0  0
    3.6332    2.7343    0.0443 H   0  0  0  0  0  0  0  0  0  0  0  0
    6.4993   -0.9129   -0.6880 H   0  0  0  0  0  0  0  0  0  0  0  0
    5.4303   -2.3542   -0.7689 H   0  0  0  0  0  0  0  0  0  0  0  0
    5.2355   -2.2938    1.7511 H   0  0  0  0  0  0  0  0  0  0  0  0
    5.7115    0.0510    1.9875 H   0  0  0  0  0  0  0  0  0  0  0  0
    7.2953   -0.1783    1.4667 H   0  0  0  0  0  0  0  0  0  0  0  0
    6.7745   -0.8689    2.9064 H   0  0  0  0  0  0  0  0  0  0  0  0
  1  6  2  0  0  0  0
  1  2  1  0  0  0  0
  2  3  2  0  0  0  0
  3  4  1  0  0  0  0
  4  5  2  0  0  0  0
  4  7  1  0  0  0  0
  5  6  1  0  0  0  0
  7  8  1  0  0  0  0
  8  9  1  0  0  0  0
  9 10  2  0  0  0  0
  9 11  1  0  0  0  0
 11 12  1  0  0  0  0
 12 17  2  0  0  0  0
 12 13  1  0  0  0  0
 13 14  2  0  0  0  0
 14 15  1  0  0  0  0
 15 16  2  0  0  0  0
 15 18  1  0  0  0  0
 16 17  1  0  0  0  0
 18 19  1  0  0  0  0
 19 20  1  0  0  0  0
 19 23  1  0  0  0  0
 20 21  2  0  0  0  0
 20 22  1  0  0  0  0
  1 24  1  0  0  0  0
  2 25  1  0  0  0  0
  3 26  1  0  0  0  0
  5 27  1  0  0  0  0
  6 28  1  0  0  0  0
  7 29  1  0  0  0  0
  7 30  1  0  0  0  0
 13 31  1  0  0  0  0
 14 32  1  0  0  0  0
 16 33  1  0  0  0  0
 17 34  1  0  0  0  0
 18 35  1  0  0  0  0
 18 36  1  0  0  0  0
 19 37  1  0  0  0  0
 23 38  1  0  0  0  0
 23 39  1  0  0  0  0
 23 40  1  0  0  0  0
M  CHG  2  22  -1  23   1
M  END
> <Name>
ZINC00399536

> <reference>
BDB5023

> <quality>
0.670

> <status>
decoy

$$$$
ZINC05132239
  SciTegic06141217593D

 33 32  0  0  0  0            999 V2000
   -3.0158    3.1633   -0.7891 C   0  0  0  0  0  0  0  0  0  0  0  0
   -2.2406    2.0354   -0.1582 C   0  0  0  0  0  0  0  0  0  0  0  0
   -2.8345    0.8316    0.0401 C   0  0  0  0  0  0  0  0  0  0  0  0
   -2.1833   -0.1351    0.6928 N   0  0  0  0  0  0  0  0  0  0  0  0
   -2.7069   -1.3094    0.7962 N   0  0  0  0  0  0  0  0  0  0  0  0
   -2.0948   -2.2632    1.5485 C   0  0  0  0  0  0  0  0  0  0  0  0
   -1.0415   -1.9585    2.2592 N   0  3  0  0  0  0  0  0  0  0  0  0
   -0.5947   -0.5661    2.3466 C   0  0  0  0  0  0  0  0  0  0  0  0
   -2.5863   -3.5530    1.5610 N   0  0  0  0  0  0  0  0  0  0  0  0
   -0.9412    2.2248    0.2135 N   0  0  0  0  0  0  0  0  0  0  0  0
   -0.3611    3.4959    0.1101 N   0  0  0  0  0  0  0  0  0  0  0  0
    0.6581    3.7156   -0.7861 C   0  0  0  0  0  0  0  0  0  0  0  0
    0.6625    1.3345   -1.4146 C   0  0  0  0  0  0  0  0  0  0  0  0
    1.1829    4.9775   -0.9343 N   0  0  0  0  0  0  0  0  0  0  0  0
    1.1785    2.7409   -1.5416 N   0  3  0  0  0  0  0  0  0  0  0  0
   -3.9014    3.2953   -0.1502 H   0  0  0  0  0  0  0  0  0  0  0  0
   -3.3655    2.7667   -1.7537 H   0  0  0  0  0  0  0  0  0  0  0  0
   -2.4362    4.0914   -0.9013 H   0  0  0  0  0  0  0  0  0  0  0  0
   -3.8522    0.6517   -0.3366 H   0  0  0  0  0  0  0  0  0  0  0  0
   -0.5254   -2.6973    2.7579 H   0  0  0  0  0  0  0  0  0  0  0  0
   -1.4624   -0.0081    2.7283 H   0  0  0  0  0  0  0  0  0  0  0  0
   -0.4328   -0.2492    1.3057 H   0  0  0  0  0  0  0  0  0  0  0  0
    0.3003   -0.4265    2.9707 H   0  0  0  0  0  0  0  0  0  0  0  0
   -3.4165   -3.7933    1.0007 H   0  0  0  0  0  0  0  0  0  0  0  0
   -2.1228   -4.2752    2.1306 H   0  0  0  0  0  0  0  0  0  0  0  0
   -0.3870    1.4332    0.5701 H   0  0  0  0  0  0  0  0  0  0  0  0
   -0.6982    4.2658    0.7055 H   0  0  0  0  0  0  0  0  0  0  0  0
   -0.4180    1.4060   -1.6082 H   0  0  0  0  0  0  0  0  0  0  0  0
    0.7883    1.0768   -0.3526 H   0  0  0  0  0  0  0  0  0  0  0  0
    1.1624    0.6178   -2.0827 H   0  0  0  0  0  0  0  0  0  0  0  0
    0.8126    5.7584   -0.3740 H   0  0  0  0  0  0  0  0  0  0  0  0
    1.9465    5.1421   -1.6057 H   0  0  0  0  0  0  0  0  0  0  0  0
    1.9325    2.9544   -2.2100 H   0  0  0  0  0  0  0  0  0  0  0  0
  1  2  1  0  0  0  0
  2  3  2  0  0  0  0
  2 10  1  0  0  0  0
  3  4  1  0  0  0  0
  4  5  2  0  0  0  0
  5  6  1  0  0  0  0
  6  7  2  0  0  0  0
  6  9  1  0  0  0  0
  7  8  1  0  0  0  0
 10 11  1  0  0  0  0
 11 12  1  0  0  0  0
 12 14  1  0  0  0  0
 12 15  2  0  0  0  0
 13 15  1  0  0  0  0
  1 16  1  0  0  0  0
  1 17  1  0  0  0  0
  1 18  1  0  0  0  0
  3 19  1  0  0  0  0
  7 20  1  0  0  0  0
  8 21  1  0  0  0  0
  8 22  1  0  0  0  0
  8 23  1  0  0  0  0
  9 24  1  0  0  0  0
  9 25  1  0  0  0  0
 10 26  1  0  0  0  0
 11 27  1  0  0  0  0
 13 28  1  0  0  0  0
 13 29  1  0  0  0  0
 13 30  1  0  0  0  0
 14 31  1  0  0  0  0
 14 32  1  0  0  0  0
 15 33  1  0  0  0  0
M  CHG  2   7   1  15   1
M  END
> <Name>
ZINC05132239

> <reference>
BDB5234

> <quality>
0.762

> <status>
decoy

$$$$
ZINC23280832
  SciTegic06141217593D

 48 49  0  0  0  0            999 V2000
   14.1886   -4.8382   -3.5292 C   0  0  0  0  0  0  0  0  0  0  0  0
   12.9768   -5.1700   -2.6561 C   0  0  0  0  0  0  0  0  0  0  0  0
   13.0758   -4.4445   -1.3872 N   0  0  0  0  0  0  0  0  0  0  0  0
   13.8516   -5.0082   -0.2797 C   0  0  0  0  0  0  0  0  0  0  0  0
   12.9760   -5.9805    0.5133 C   0  0  0  0  0  0  0  0  0  0  0  0
   12.3108   -2.9871   -1.2049 S   0  0  0  0  0  0  0  0  0  0  0  0
   12.1440   -2.4499   -2.5098 O   0  0  0  0  0  0  0  0  0  0  0  0
   13.0026   -2.2911   -0.1772 O   0  0  0  0  0  0  0  0  0  0  0  0
   10.6947   -3.3208   -0.5873 C   0  0  0  0  0  0  0  0  0  0  0  0
   10.2747   -3.4152    0.6980 C   0  0  0  0  0  0  0  0  0  0  0  0
    8.9433   -3.6883    0.9499 C   0  0  0  0  0  0  0  0  0  0  0  0
    8.0970   -3.8535   -0.0959 C   0  0  0  0  0  0  0  0  0  0  0  0
    9.1868   -3.6288   -1.4920 S   0  0  0  0  0  0  0  0  0  0  0  0
    6.6205   -4.1553   -0.0835 C   0  0  0  0  0  0  0  0  0  0  0  0
    5.8657   -2.8998   -0.0695 N   0  0  0  0  0  0  0  0  0  0  0  0
    4.5182   -2.9238   -0.0568 C   0  0  0  0  0  0  0  0  0  0  0  0
    3.9305   -3.9848   -0.0569 O   0  0  0  0  0  0  0  0  0  0  0  0
    3.7416   -1.6324   -0.0424 C   0  0  0  0  0  0  0  0  0  0  0  0
    1.9683   -1.9948   -0.0274 S   0  0  0  0  0  0  0  0  0  0  0  0
    1.3213   -0.3559   -0.0125 C   0  0  0  0  0  0  0  0  0  0  0  0
    2.0163    0.7578   -0.0131 N   0  0  0  0  0  0  0  0  0  0  0  0
    1.2220    1.7681   -0.0001 N   0  0  0  0  0  0  0  0  0  0  0  0
   -0.0165    1.3633    0.0095 C   0  0  0  0  0  0  0  0  0  0  0  0
    0.0021   -0.0041    0.0020 N   0  0  0  0  0  0  0  0  0  0  0  0
   -1.0755   -0.8436    0.0082 N   0  0  0  0  0  0  0  0  0  0  0  0
   -1.2424    2.2398    0.0204 C   0  0  0  0  0  0  0  0  0  0  0  0
   15.1101   -5.1367   -3.0079 H   0  0  0  0  0  0  0  0  0  0  0  0
   14.2140   -3.7565   -3.7272 H   0  0  0  0  0  0  0  0  0  0  0  0
   14.1149   -5.3827   -4.4822 H   0  0  0  0  0  0  0  0  0  0  0  0
   12.0558   -4.8709   -3.1780 H   0  0  0  0  0  0  0  0  0  0  0  0
   12.9513   -6.2517   -2.4581 H   0  0  0  0  0  0  0  0  0  0  0  0
   14.7250   -5.5445   -0.6792 H   0  0  0  0  0  0  0  0  0  0  0  0
   14.1903   -4.1975    0.3822 H   0  0  0  0  0  0  0  0  0  0  0  0
   12.6373   -6.7926   -0.1469 H   0  0  0  0  0  0  0  0  0  0  0  0
   12.1021   -5.4457    0.9136 H   0  0  0  0  0  0  0  0  0  0  0  0
   13.5579   -6.4042    1.3451 H   0  0  0  0  0  0  0  0  0  0  0  0
   10.9828   -3.2765    1.5282 H   0  0  0  0  0  0  0  0  0  0  0  0
    8.5761   -3.7703    1.9836 H   0  0  0  0  0  0  0  0  0  0  0  0
    6.3563   -4.7314   -0.9826 H   0  0  0  0  0  0  0  0  0  0  0  0
    6.3724   -4.7414    0.8137 H   0  0  0  0  0  0  0  0  0  0  0  0
    6.3648   -1.9988   -0.0694 H   0  0  0  0  0  0  0  0  0  0  0  0
    4.0050   -1.0559    0.8566 H   0  0  0  0  0  0  0  0  0  0  0  0
    3.9874   -1.0453   -0.9396 H   0  0  0  0  0  0  0  0  0  0  0  0
   -0.8438   -1.8472    0.0009 H   0  0  0  0  0  0  0  0  0  0  0  0
   -2.0525   -0.5177    0.0193 H   0  0  0  0  0  0  0  0  0  0  0  0
   -1.0876    2.8823   -0.8589 H   0  0  0  0  0  0  0  0  0  0  0  0
   -1.0733    2.8804    0.8985 H   0  0  0  0  0  0  0  0  0  0  0  0
   -2.2109    1.7184    0.0277 H   0  0  0  0  0  0  0  0  0  0  0  0
  1  2  1  0  0  0  0
  2  3  1  0  0  0  0
  3  4  1  0  0  0  0
  3  6  1  0  0  0  0
  4  5  1  0  0  0  0
  6  7  2  0  0  0  0
  6  8  2  0  0  0  0
  6  9  1  0  0  0  0
  9 13  1  0  0  0  0
  9 10  2  0  0  0  0
 10 11  1  0  0  0  0
 11 12  2  0  0  0  0
 12 13  1  0  0  0  0
 12 14  1  0  0  0  0
 14 15  1  0  0  0  0
 15 16  1  0  0  0  0
 16 17  2  0  0  0  0
 16 18  1  0  0  0  0
 18 19  1  0  0  0  0
 19 20  1  0  0  0  0
 20 24  1  0  0  0  0
 20 21  2  0  0  0  0
 21 22  1  0  0  0  0
 22 23  2  0  0  0  0
 23 24  1  0  0  0  0
 23 26  1  0  0  0  0
 24 25  1  0  0  0  0
  1 27  1  0  0  0  0
  1 28  1  0  0  0  0
  1 29  1  0  0  0  0
  2 30  1  0  0  0  0
  2 31  1  0  0  0  0
  4 32  1  0  0  0  0
  4 33  1  0  0  0  0
  5 34  1  0  0  0  0
  5 35  1  0  0  0  0
  5 36  1  0  0  0  0
 10 37  1  0  0  0  0
 11 38  1  0  0  0  0
 14 39  1  0  0  0  0
 14 40  1  0  0  0  0
 15 41  1  0  0  0  0
 18 42  1  0  0  0  0
 18 43  1  0  0  0  0
 25 44  1  0  0  0  0
 25 45  1  0  0  0  0
 26 46  1  0  0  0  0
 26 47  1  0  0  0  0
 26 48  1  0  0  0  0
M  END
> <Name>
ZINC23280832

> <reference>
BDB4965

> <quality>
0.685

> <status>
decoy

$$$$
ZINC05116227
  SciTegic06141217593D

 44 44  0  0  1  0            999 V2000
   -1.6009   -3.1084    2.4698 C   0  0  0  0  0  0  0  0  0  0  0  0
   -1.7534   -1.6291    2.7138 C   0  0  0  0  0  0  0  0  0  0  0  0
   -1.1597   -0.7230    1.8570 C   0  0  0  0  0  0  0  0  0  0  0  0
   -1.3006    0.6398    2.0816 C   0  0  0  0  0  0  0  0  0  0  0  0
   -2.0340    1.0919    3.1708 C   0  0  0  0  0  0  0  0  0  0  0  0
   -2.6315    0.1862    4.0246 C   0  0  0  0  0  0  0  0  0  0  0  0
   -2.4910   -1.1771    3.7997 C   0  0  0  0  0  0  0  0  0  0  0  0
   -3.0927   -2.0955    4.6683 N   0  0  0  0  0  0  0  0  0  0  0  0
   -0.6984    1.5583    1.2133 N   0  3  0  0  0  0  0  0  0  0  0  0
   -0.7396    2.9905    1.5187 C   0  0  0  0  0  0  0  0  0  0  0  0
   -1.9916    3.6094    0.8939 C   0  0  0  0  0  0  0  0  0  0  0  0
   -2.0346    5.1052    1.2129 C   0  0  0  0  0  0  0  0  0  0  0  0
   -3.2866    5.7241    0.5881 C   0  0  0  0  0  0  0  0  0  0  0  0
   -3.3375    7.4975    0.9662 S   0  0  0  0  0  0  0  0  0  0  0  0
   -3.5509    7.6954    2.3571 O   0  0  0  0  0  0  0  0  0  0  0  0
   -2.2845    8.1722    0.2916 O   0  0  0  0  0  0  0  0  0  0  0  0
   -0.0271    1.0871   -0.0006 C   0  0  2  0  0  0  0  0  0  0  0  0
    1.4151    1.5976   -0.0167 C   0  0  0  0  0  0  0  0  0  0  0  0
   -0.7685    1.6145   -1.2307 C   0  0  0  0  0  0  0  0  0  0  0  0
   -4.6105    8.0026    0.3023 O   0  5  0  0  0  0  0  0  0  0  0  0
   -2.6288   -3.4937    2.3996 H   0  0  0  0  0  0  0  0  0  0  0  0
   -1.1670   -3.5078    3.3984 H   0  0  0  0  0  0  0  0  0  0  0  0
   -0.9976   -3.3538    1.5834 H   0  0  0  0  0  0  0  0  0  0  0  0
   -0.5752   -1.0811    0.9967 H   0  0  0  0  0  0  0  0  0  0  0  0
   -2.1389    2.1716    3.3533 H   0  0  0  0  0  0  0  0  0  0  0  0
   -3.2188    0.5444    4.8830 H   0  0  0  0  0  0  0  0  0  0  0  0
   -2.9882   -3.1066    4.5017 H   0  0  0  0  0  0  0  0  0  0  0  0
   -3.6399   -1.7601    5.4739 H   0  0  0  0  0  0  0  0  0  0  0  0
   -0.4540    2.2773    0.5174 H   0  0  0  0  0  0  0  0  0  0  0  0
   -0.7662    3.1324    2.6092 H   0  0  0  0  0  0  0  0  0  0  0  0
    0.1551    3.4803    1.1069 H   0  0  0  0  0  0  0  0  0  0  0  0
   -1.9654    3.4682   -0.1967 H   0  0  0  0  0  0  0  0  0  0  0  0
   -2.8875    3.1216    1.3054 H   0  0  0  0  0  0  0  0  0  0  0  0
   -2.0612    5.2471    2.3034 H   0  0  0  0  0  0  0  0  0  0  0  0
   -1.1398    5.5949    0.8011 H   0  0  0  0  0  0  0  0  0  0  0  0
   -3.2604    5.5829   -0.5025 H   0  0  0  0  0  0  0  0  0  0  0  0
   -4.1826    5.2364    0.9997 H   0  0  0  0  0  0  0  0  0  0  0  0
   -0.0269   -0.0128   -0.0161 H   0  0  0  0  0  0  0  0  0  0  0  0
    1.9491    1.2189    0.8673 H   0  0  0  0  0  0  0  0  0  0  0  0
    1.4160    2.6975   -0.0015 H   0  0  0  0  0  0  0  0  0  0  0  0
    1.9198    1.2441   -0.9280 H   0  0  0  0  0  0  0  0  0  0  0  0
   -0.7689    2.7144   -1.2162 H   0  0  0  0  0  0  0  0  0  0  0  0
   -1.8055    1.2479   -1.2202 H   0  0  0  0  0  0  0  0  0  0  0  0
   -0.2650    1.2611   -2.1426 H   0  0  0  0  0  0  0  0  0  0  0  0
  1  2  1  0  0  0  0
  2  7  2  0  0  0  0
  2  3  1  0  0  0  0
  3  4  2  0  0  0  0
  4  5  1  0  0  0  0
  4  9  1  0  0  0  0
  5  6  2  0  0  0  0
  6  7  1  0  0  0  0
  7  8  1  0  0  0  0
  9 10  1  0  0  0  0
  9 17  1  0  0  0  0
 10 11  1  0  0  0  0
 11 12  1  0  0  0  0
 12 13  1  0  0  0  0
 13 14  1  0  0  0  0
 14 15  2  0  0  0  0
 14 16  2  0  0  0  0
 14 20  1  0  0  0  0
 17 18  1  0  0  0  0
 17 19  1  0  0  0  0
  1 21  1  0  0  0  0
  1 22  1  0  0  0  0
  1 23  1  0  0  0  0
  3 24  1  0  0  0  0
  5 25  1  0  0  0  0
  6 26  1  0  0  0  0
  8 27  1  0  0  0  0
  8 28  1  0  0  0  0
  9 29  1  0  0  0  0
 10 30  1  0  0  0  0
 10 31  1  0  0  0  0
 11 32  1  0  0  0  0
 11 33  1  0  0  0  0
 12 34  1  0  0  0  0
 12 35  1  0  0  0  0
 13 36  1  0  0  0  0
 13 37  1  0  0  0  0
 17 38  1  0  0  0  0
 18 39  1  0  0  0  0
 18 40  1  0  0  0  0
 18 41  1  0  0  0  0
 19 42  1  0  0  0  0
 19 43  1  0  0  0  0
 19 44  1  0  0  0  0
M  CHG  2   9   1  20  -1
M  END
> <Name>
ZINC05116227

> <reference>
BDB4995

> <quality>
0.772

> <status>
decoy

$$$$
ZINC13282339
  SciTegic06141217593D

 30 30  0  0  1  0            999 V2000
   -4.2095    0.6468    1.1529 C   0  0  0  0  0  0  0  0  0  0  0  0
   -3.2305    1.5343    0.8933 C   0  0  0  0  0  0  0  0  0  0  0  0
   -2.0622    0.9766    1.3380 N   0  0  0  0  0  0  0  0  0  0  0  0
   -2.3675   -0.2355    1.8493 C   0  0  0  0  0  0  0  0  0  0  0  0
   -3.6542   -0.4237    1.7400 N   0  0  0  0  0  0  0  0  0  0  0  0
   -1.4028   -1.1911    2.4388 N   0  0  0  0  0  0  0  0  0  0  0  0
   -0.2194   -0.9075    2.4911 O   0  0  0  0  0  0  0  0  0  0  0  0
   -1.7924   -2.2609    2.8715 O   0  0  0  0  0  0  0  0  0  0  0  0
   -0.7288    1.5792    1.2668 C   0  0  0  0  0  0  0  0  0  0  0  0
   -0.0127    1.0858    0.0080 C   0  0  2  0  0  0  0  0  0  0  0  0
    1.4227    1.6154   -0.0028 C   0  0  0  0  0  0  0  0  0  0  0  0
    3.4944    1.6317   -1.2560 C   0  0  0  0  0  0  0  0  0  0  0  0
    4.1764    1.1189   -2.5259 C   0  0  0  0  0  0  0  0  0  0  0  0
    6.0288    1.7747   -2.5855 Br  0  0  0  0  0  0  0  0  0  0  0  0
   -0.7038    1.5592   -1.1497 O   0  0  0  0  0  0  0  0  0  0  0  0
    2.1058    1.1355   -1.2190 N   0  3  0  0  0  0  0  0  0  0  0  0
   -5.2774    0.7770    0.9236 H   0  0  0  0  0  0  0  0  0  0  0  0
   -3.3472    2.5183    0.4157 H   0  0  0  0  0  0  0  0  0  0  0  0
   -0.8228    2.6745    1.2290 H   0  0  0  0  0  0  0  0  0  0  0  0
   -0.1473    1.2915    2.1551 H   0  0  0  0  0  0  0  0  0  0  0  0
    0.0022   -0.0141    0.0019 H   0  0  0  0  0  0  0  0  0  0  0  0
    1.4087    2.7153    0.0006 H   0  0  0  0  0  0  0  0  0  0  0  0
    1.9571    1.2500    0.8865 H   0  0  0  0  0  0  0  0  0  0  0  0
    4.0387    1.2656   -0.3730 H   0  0  0  0  0  0  0  0  0  0  0  0
    3.4910    2.7317   -1.2580 H   0  0  0  0  0  0  0  0  0  0  0  0
    3.6309    1.4829   -3.4090 H   0  0  0  0  0  0  0  0  0  0  0  0
    4.1775    0.0189   -2.5231 H   0  0  0  0  0  0  0  0  0  0  0  0
   -0.7175    2.5491   -1.1452 H   0  0  0  0  0  0  0  0  0  0  0  0
    2.1117    0.1055   -1.2234 H   0  0  0  0  0  0  0  0  0  0  0  0
    1.6011    1.4733   -2.0510 H   0  0  0  0  0  0  0  0  0  0  0  0
  1  5  1  0  0  0  0
  1  2  2  0  0  0  0
  2  3  1  0  0  0  0
  3  4  1  0  0  0  0
  3  9  1  0  0  0  0
  4  5  2  0  0  0  0
  4  6  1  0  0  0  0
  6  7  2  0  0  0  0
  6  8  2  0  0  0  0
  9 10  1  0  0  0  0
 10 11  1  0  0  0  0
 10 15  1  0  0  0  0
 11 16  1  0  0  0  0
 12 13  1  0  0  0  0
 12 16  1  0  0  0  0
 13 14  1  0  0  0  0
  1 17  1  0  0  0  0
  2 18  1  0  0  0  0
  9 19  1  0  0  0  0
  9 20  1  0  0  0  0
 10 21  1  0  0  0  0
 11 22  1  0  0  0  0
 11 23  1  0  0  0  0
 12 24  1  0  0  0  0
 12 25  1  0  0  0  0
 13 26  1  0  0  0  0
 13 27  1  0  0  0  0
 15 28  1  0  0  0  0
 16 29  1  0  0  0  0
 16 30  1  0  0  0  0
M  CHG  1  16   1
M  END
> <Name>
ZINC13282339

> <reference>
BDB5222

> <quality>
0.745

> <status>
decoy

$$$$
ZINC31229550
  SciTegic06141217593D

 60 63  0  0  1  0            999 V2000
    8.5294    3.4247   -6.3810 C   0  0  0  0  0  0  0  0  0  0  0  0
    8.3781    1.9560   -6.7823 C   0  0  0  0  0  0  0  0  0  0  0  0
    7.2616    1.3141   -5.9563 C   0  0  1  0  0  0  0  0  0  0  0  0
    7.0642   -0.1353   -6.4048 C   0  0  0  0  0  0  0  0  0  0  0  0
    6.0606   -0.7778   -5.5527 N   0  0  0  0  0  0  0  0  0  0  0  0
    5.6505   -2.0328   -5.8235 C   0  0  0  0  0  0  0  0  0  0  0  0
    6.1135   -2.6318   -6.7750 O   0  0  0  0  0  0  0  0  0  0  0  0
    4.6398   -2.6798   -4.9654 C   0  0  0  0  0  0  0  0  0  0  0  0
    4.2134   -3.9815   -5.2449 C   0  0  0  0  0  0  0  0  0  0  0  0
    3.2709   -4.5824   -4.4424 C   0  0  0  0  0  0  0  0  0  0  0  0
    2.7420   -3.8955   -3.3531 C   0  0  0  0  0  0  0  0  0  0  0  0
    3.1604   -2.5970   -3.0754 C   0  0  0  0  0  0  0  0  0  0  0  0
    4.1069   -1.9927   -3.8708 C   0  0  0  0  0  0  0  0  0  0  0  0
    1.7898   -4.5055   -2.5440 N   0  0  0  0  0  0  0  0  0  0  0  0
    2.2472   -5.6742   -1.4637 S   0  0  0  0  0  0  0  0  0  0  0  0
    3.0435   -6.6045   -2.1847 O   0  0  0  0  0  0  0  0  0  0  0  0
    1.0737   -6.0596   -0.7612 O   0  0  0  0  0  0  0  0  0  0  0  0
    3.3103   -4.9077   -0.2861 C   0  0  0  0  0  0  0  0  0  0  0  0
    2.7694   -4.2503    0.8057 C   0  0  0  0  0  0  0  0  0  0  0  0
    3.5944   -3.6465    1.7341 C   0  0  0  0  0  0  0  0  0  0  0  0
    4.9706   -3.6989    1.5719 C   0  0  0  0  0  0  0  0  0  0  0  0
    5.5161   -4.3615    0.4706 C   0  0  0  0  0  0  0  0  0  0  0  0
    4.6797   -4.9648   -0.4563 C   0  0  0  0  0  0  0  0  0  0  0  0
    6.9002   -4.2473    0.5771 N   0  0  0  0  0  0  0  0  0  0  0  0
    7.1835   -3.5468    1.6915 C   0  0  0  0  0  0  0  0  0  0  0  0
    8.3030   -3.2677    2.0782 O   0  0  0  0  0  0  0  0  0  0  0  0
    6.0400   -3.2020    2.3131 N   0  0  0  0  0  0  0  0  0  0  0  0
    7.6275    1.3409   -4.5338 N   0  3  0  0  0  0  0  0  0  0  0  0
    9.0891    1.1452   -4.3564 C   0  0  0  0  0  0  0  0  0  0  0  0
    9.3537    1.7147   -2.9400 C   0  0  0  0  0  0  0  0  0  0  0  0
    8.4056    2.9340   -2.8750 C   0  0  0  0  0  0  0  0  0  0  0  0
    7.3210    2.6570   -3.9325 C   0  0  0  0  0  0  0  0  0  0  0  0
    8.7812    3.4898   -5.3122 H   0  0  0  0  0  0  0  0  0  0  0  0
    7.5845    3.9561   -6.5675 H   0  0  0  0  0  0  0  0  0  0  0  0
    9.3320    3.8869   -6.9745 H   0  0  0  0  0  0  0  0  0  0  0  0
    9.3230    1.4246   -6.5959 H   0  0  0  0  0  0  0  0  0  0  0  0
    8.1260    1.8919   -7.8511 H   0  0  0  0  0  0  0  0  0  0  0  0
    6.3269    1.8746   -6.1051 H   0  0  0  0  0  0  0  0  0  0  0  0
    8.0169   -0.6790   -6.3218 H   0  0  0  0  0  0  0  0  0  0  0  0
    6.7221   -0.1524   -7.4501 H   0  0  0  0  0  0  0  0  0  0  0  0
    5.6684   -0.2705   -4.7467 H   0  0  0  0  0  0  0  0  0  0  0  0
    4.6309   -4.5248   -6.1054 H   0  0  0  0  0  0  0  0  0  0  0  0
    2.9350   -5.6066   -4.6618 H   0  0  0  0  0  0  0  0  0  0  0  0
    2.7340   -2.0536   -2.2193 H   0  0  0  0  0  0  0  0  0  0  0  0
    4.4438   -0.9701   -3.6455 H   0  0  0  0  0  0  0  0  0  0  0  0
    0.7999   -4.2304   -2.6166 H   0  0  0  0  0  0  0  0  0  0  0  0
    1.6777   -4.2087    0.9342 H   0  0  0  0  0  0  0  0  0  0  0  0
    3.1609   -3.1252    2.6003 H   0  0  0  0  0  0  0  0  0  0  0  0
    5.1059   -5.4877   -1.3252 H   0  0  0  0  0  0  0  0  0  0  0  0
    7.5895   -4.6330   -0.0840 H   0  0  0  0  0  0  0  0  0  0  0  0
    5.9683   -2.6627    3.1877 H   0  0  0  0  0  0  0  0  0  0  0  0
    7.0897    0.5870   -4.0830 H   0  0  0  0  0  0  0  0  0  0  0  0
    9.3376    0.0741   -4.3865 H   0  0  0  0  0  0  0  0  0  0  0  0
    9.6470    1.7238   -5.1074 H   0  0  0  0  0  0  0  0  0  0  0  0
   10.4001    2.0414   -2.8490 H   0  0  0  0  0  0  0  0  0  0  0  0
    9.0760    0.9755   -2.1742 H   0  0  0  0  0  0  0  0  0  0  0  0
    8.9539    3.8527   -3.1307 H   0  0  0  0  0  0  0  0  0  0  0  0
    7.9487    3.0029   -1.8768 H   0  0  0  0  0  0  0  0  0  0  0  0
    6.3323    2.6273   -3.4513 H   0  0  0  0  0  0  0  0  0  0  0  0
    7.3500    3.4371   -4.7075 H   0  0  0  0  0  0  0  0  0  0  0  0
  1  2  1  0  0  0  0
  2  3  1  0  0  0  0
  3  4  1  0  0  0  0
  3 28  1  0  0  0  0
  4  5  1  0  0  0  0
  5  6  1  0  0  0  0
  6  7  2  0  0  0  0
  6  8  1  0  0  0  0
  8 13  2  0  0  0  0
  8  9  1  0  0  0  0
  9 10  2  0  0  0  0
 10 11  1  0  0  0  0
 11 12  2  0  0  0  0
 11 14  1  0  0  0  0
 12 13  1  0  0  0  0
 14 15  1  0  0  0  0
 15 16  2  0  0  0  0
 15 17  2  0  0  0  0
 15 18  1  0  0  0  0
 18 23  2  0  0  0  0
 18 19  1  0  0  0  0
 19 20  2  0  0  0  0
 20 21  1  0  0  0  0
 21 27  1  0  0  0  0
 21 22  2  0  0  0  0
 22 23  1  0  0  0  0
 22 24  1  0  0  0  0
 24 25  1  0  0  0  0
 25 26  2  0  0  0  0
 25 27  1  0  0  0  0
 28 32  1  0  0  0  0
 28 29  1  0  0  0  0
 29 30  1  0  0  0  0
 30 31  1  0  0  0  0
 31 32  1  0  0  0  0
  1 33  1  0  0  0  0
  1 34  1  0  0  0  0
  1 35  1  0  0  0  0
  2 36  1  0  0  0  0
  2 37  1  0  0  0  0
  3 38  1  0  0  0  0
  4 39  1  0  0  0  0
  4 40  1  0  0  0  0
  5 41  1  0  0  0  0
  9 42  1  0  0  0  0
 10 43  1  0  0  0  0
 12 44  1  0  0  0  0
 13 45  1  0  0  0  0
 14 46  1  0  0  0  0
 19 47  1  0  0  0  0
 20 48  1  0  0  0  0
 23 49  1  0  0  0  0
 24 50  1  0  0  0  0
 27 51  1  0  0  0  0
 28 52  1  0  0  0  0
 29 53  1  0  0  0  0
 29 54  1  0  0  0  0
 30 55  1  0  0  0  0
 30 56  1  0  0  0  0
 31 57  1  0  0  0  0
 31 58  1  0  0  0  0
 32 59  1  0  0  0  0
 32 60  1  0  0  0  0
M  CHG  1  28   1
M  END
> <Name>
ZINC31229550

> <reference>
BDB4968

> <quality>
0.860

> <status>
decoy

$$$$
ZINC09305196
  SciTegic06141217593D

 43 44  0  0  0  0            999 V2000
   -0.0126    1.0758    0.0080 C   0  0  0  0  0  0  0  0  0  0  0  0
   -1.2216    1.7471    0.0173 C   0  0  0  0  0  0  0  0  0  0  0  0
   -1.2491    3.1303    0.0315 C   0  0  0  0  0  0  0  0  0  0  0  0
   -0.0620    3.8401    0.0262 C   0  0  0  0  0  0  0  0  0  0  0  0
    1.1597    3.1652    0.0088 C   0  0  0  0  0  0  0  0  0  0  0  0
    1.1776    1.7796    0.0004 C   0  0  0  0  0  0  0  0  0  0  0  0
    2.3525    3.8968   -0.0044 N   0  0  0  0  0  0  0  0  0  0  0  0
    2.3561    5.2124    0.2816 C   0  0  0  0  0  0  0  0  0  0  0  0
    3.3949    5.8357    0.2210 O   0  0  0  0  0  0  0  0  0  0  0  0
    1.0851    5.9204    0.6755 C   0  0  0  0  0  0  0  0  0  0  0  0
   -0.0565    5.2443    0.0414 N   0  0  0  0  0  0  0  0  0  0  0  0
   -1.0656    5.9498   -0.5069 C   0  0  0  0  0  0  0  0  0  0  0  0
   -2.0002    5.3708   -1.0263 O   0  0  0  0  0  0  0  0  0  0  0  0
   -1.0386    7.2970   -0.4795 N   0  0  0  0  0  0  0  0  0  0  0  0
   -2.1354    8.0639   -1.0755 C   0  0  0  0  0  0  0  0  0  0  0  0
   -1.8605    9.5599   -0.9103 C   0  0  0  0  0  0  0  0  0  0  0  0
   -3.0059   10.3607   -1.5327 C   0  0  0  0  0  0  0  0  0  0  0  0
   -2.7351   11.8342   -1.3700 C   0  0  0  0  0  0  0  0  0  0  0  0
   -1.7253   12.2071   -0.8112 O   0  0  0  0  0  0  0  0  0  0  0  0
   -3.6150   12.7377   -1.8454 N   0  0  0  0  0  0  0  0  0  0  0  0
   -3.3517   14.1701   -1.6872 C   0  0  0  0  0  0  0  0  0  0  0  0
   -4.4971   14.9710   -2.3097 C   0  0  0  0  0  0  0  0  0  0  0  0
   -5.7014   14.7252   -1.5806 O   0  0  0  0  0  0  0  0  0  0  0  0
    0.0023   -0.0241    0.0066 H   0  0  0  0  0  0  0  0  0  0  0  0
   -2.1640    1.1798    0.0134 H   0  0  0  0  0  0  0  0  0  0  0  0
   -2.2112    3.6634    0.0469 H   0  0  0  0  0  0  0  0  0  0  0  0
    2.1365    1.2408   -0.0123 H   0  0  0  0  0  0  0  0  0  0  0  0
    3.2376    3.4235   -0.2355 H   0  0  0  0  0  0  0  0  0  0  0  0
    1.1259    6.9666    0.3380 H   0  0  0  0  0  0  0  0  0  0  0  0
    0.9699    5.8883    1.7690 H   0  0  0  0  0  0  0  0  0  0  0  0
   -0.2469    7.7874   -0.0395 H   0  0  0  0  0  0  0  0  0  0  0  0
   -2.2130    7.8219   -2.1457 H   0  0  0  0  0  0  0  0  0  0  0  0
   -3.0794    7.8076   -0.5723 H   0  0  0  0  0  0  0  0  0  0  0  0
   -1.7832    9.8027    0.1598 H   0  0  0  0  0  0  0  0  0  0  0  0
   -0.9174    9.8184   -1.4140 H   0  0  0  0  0  0  0  0  0  0  0  0
   -3.9498   10.1044   -1.0294 H   0  0  0  0  0  0  0  0  0  0  0  0
   -3.0835   10.1187   -2.6029 H   0  0  0  0  0  0  0  0  0  0  0  0
   -4.4726   12.4211   -2.3199 H   0  0  0  0  0  0  0  0  0  0  0  0
   -2.4085   14.4285   -2.1908 H   0  0  0  0  0  0  0  0  0  0  0  0
   -3.2745   14.4129   -0.6171 H   0  0  0  0  0  0  0  0  0  0  0  0
   -4.2580   16.0440   -2.2707 H   0  0  0  0  0  0  0  0  0  0  0  0
   -4.6341   14.6636   -3.3570 H   0  0  0  0  0  0  0  0  0  0  0  0
   -5.5800   15.0023   -0.6380 H   0  0  0  0  0  0  0  0  0  0  0  0
  1  6  2  0  0  0  0
  1  2  1  0  0  0  0
  2  3  2  0  0  0  0
  3  4  1  0  0  0  0
  4 11  1  0  0  0  0
  4  5  2  0  0  0  0
  5  6  1  0  0  0  0
  5  7  1  0  0  0  0
  7  8  1  0  0  0  0
  8  9  2  0  0  0  0
  8 10  1  0  0  0  0
 10 11  1  0  0  0  0
 11 12  1  0  0  0  0
 12 13  2  0  0  0  0
 12 14  1  0  0  0  0
 14 15  1  0  0  0  0
 15 16  1  0  0  0  0
 16 17  1  0  0  0  0
 17 18  1  0  0  0  0
 18 19  2  0  0  0  0
 18 20  1  0  0  0  0
 20 21  1  0  0  0  0
 21 22  1  0  0  0  0
 22 23  1  0  0  0  0
  1 24  1  0  0  0  0
  2 25  1  0  0  0  0
  3 26  1  0  0  0  0
  6 27  1  0  0  0  0
  7 28  1  0  0  0  0
 10 29  1  0  0  0  0
 10 30  1  0  0  0  0
 14 31  1  0  0  0  0
 15 32  1  0  0  0  0
 15 33  1  0  0  0  0
 16 34  1  0  0  0  0
 16 35  1  0  0  0  0
 17 36  1  0  0  0  0
 17 37  1  0  0  0  0
 20 38  1  0  0  0  0
 21 39  1  0  0  0  0
 21 40  1  0  0  0  0
 22 41  1  0  0  0  0
 22 42  1  0  0  0  0
 23 43  1  0  0  0  0
M  END
> <Name>
ZINC09305196

> <reference>
BDB5199

> <quality>
0.746

> <status>
decoy

$$$$
ZINC05425837
  SciTegic06141217593D

 39 40  0  0  0  0            999 V2000
    6.7088    7.8170   -2.0764 C   0  0  0  0  0  0  0  0  0  0  0  0
    6.3610    7.7666   -0.5861 C   0  0  0  0  0  0  0  0  0  0  0  0
    6.3999    6.3137   -0.1069 C   0  0  0  0  0  0  0  0  0  0  0  0
    5.7798    5.5110   -2.3077 C   0  0  0  0  0  0  0  0  0  0  0  0
    5.7224    6.9400   -2.8526 C   0  0  0  0  0  0  0  0  0  0  0  0
    5.3485    4.1472   -0.3547 C   0  0  0  0  0  0  0  0  0  0  0  0
    4.1711    3.4253   -1.0131 C   0  0  0  0  0  0  0  0  0  0  0  0
    4.0811    2.0599   -0.4897 N   0  0  0  0  0  0  0  0  0  0  0  0
    4.2265    1.0428   -1.2929 C   0  0  0  0  0  0  0  0  0  0  0  0
    3.9151    1.1081   -2.7460 C   0  0  0  0  0  0  0  0  0  0  0  0
    4.5012    0.1857   -3.5556 C   0  0  0  0  0  0  0  0  0  0  0  0
    5.3094   -0.7694   -3.1080 N   0  0  0  0  0  0  0  0  0  0  0  0
    5.4866   -1.0563   -1.8480 C   0  0  0  0  0  0  0  0  0  0  0  0
    4.7231   -0.3000   -0.8314 C   0  0  0  0  0  0  0  0  0  0  0  0
    4.4978   -0.7613    0.3696 N   0  0  0  0  0  0  0  0  0  0  0  0
    3.0576    2.0745   -3.2568 N   0  0  0  0  0  0  0  0  0  0  0  0
    2.9128    2.2236   -4.6575 O   0  0  0  0  0  0  0  0  0  0  0  0
    2.3284    2.9105   -2.3767 O   0  0  0  0  0  0  0  0  0  0  0  0
    5.4114    5.5282   -0.8760 N   0  3  0  0  0  0  0  0  0  0  0  0
    6.6397    8.8549   -2.4342 H   0  0  0  0  0  0  0  0  0  0  0  0
    7.7318    7.4418   -2.2273 H   0  0  0  0  0  0  0  0  0  0  0  0
    7.0927    8.3597   -0.0179 H   0  0  0  0  0  0  0  0  0  0  0  0
    5.3527    8.1773   -0.4292 H   0  0  0  0  0  0  0  0  0  0  0  0
    6.1501    6.2714    0.9635 H   0  0  0  0  0  0  0  0  0  0  0  0
    7.4057    5.8992   -0.2698 H   0  0  0  0  0  0  0  0  0  0  0  0
    5.0719    4.8771   -2.8618 H   0  0  0  0  0  0  0  0  0  0  0  0
    6.7995    5.1140   -2.4199 H   0  0  0  0  0  0  0  0  0  0  0  0
    5.9927    6.9367   -3.9189 H   0  0  0  0  0  0  0  0  0  0  0  0
    4.7039    7.3377   -2.7321 H   0  0  0  0  0  0  0  0  0  0  0  0
    6.2845    3.6210   -0.5934 H   0  0  0  0  0  0  0  0  0  0  0  0
    5.2027    4.1716    0.7353 H   0  0  0  0  0  0  0  0  0  0  0  0
    3.2389    3.9650   -0.7902 H   0  0  0  0  0  0  0  0  0  0  0  0
    4.3234    3.3905   -2.1020 H   0  0  0  0  0  0  0  0  0  0  0  0
    4.2959    0.2327   -4.6352 H   0  0  0  0  0  0  0  0  0  0  0  0
    6.1907   -1.8460   -1.5469 H   0  0  0  0  0  0  0  0  0  0  0  0
    3.9566   -0.1719    1.0181 H   0  0  0  0  0  0  0  0  0  0  0  0
    2.6358    1.3304   -4.9825 H   0  0  0  0  0  0  0  0  0  0  0  0
    3.0139    3.3434   -1.8085 H   0  0  0  0  0  0  0  0  0  0  0  0
    4.4852    5.9674   -0.7751 H   0  0  0  0  0  0  0  0  0  0  0  0
  1  5  1  0  0  0  0
  1  2  1  0  0  0  0
  2  3  1  0  0  0  0
  3 19  1  0  0  0  0
  4  5  1  0  0  0  0
  4 19  1  0  0  0  0
  6  7  1  0  0  0  0
  6 19  1  0  0  0  0
  7  8  1  0  0  0  0
  8  9  2  0  0  0  0
  9 14  1  0  0  0  0
  9 10  1  0  0  0  0
 10 11  2  0  0  0  0
 10 16  1  0  0  0  0
 11 12  1  0  0  0  0
 12 13  2  0  0  0  0
 13 14  1  0  0  0  0
 14 15  2  0  0  0  0
 16 17  1  0  0  0  0
 16 18  1  0  0  0  0
  1 20  1  0  0  0  0
  1 21  1  0  0  0  0
  2 22  1  0  0  0  0
  2 23  1  0  0  0  0
  3 24  1  0  0  0  0
  3 25  1  0  0  0  0
  4 26  1  0  0  0  0
  4 27  1  0  0  0  0
  5 28  1  0  0  0  0
  5 29  1  0  0  0  0
  6 30  1  0  0  0  0
  6 31  1  0  0  0  0
  7 32  1  0  0  0  0
  7 33  1  0  0  0  0
 11 34  1  0  0  0  0
 13 35  1  0  0  0  0
 15 36  1  0  0  0  0
 17 37  1  0  0  0  0
 18 38  1  0  0  0  0
 19 39  1  0  0  0  0
M  CHG  1  19   1
M  END
> <Name>
ZINC05425837

> <reference>
BDB5233

> <quality>
0.734

> <status>
decoy

$$$$
ZINC31448830
  SciTegic06141217593D

 36 37  0  0  0  0            999 V2000
    0.7880    6.7109    0.7474 C   0  0  0  0  0  0  0  0  0  0  0  0
   -0.2367    5.9642    1.6037 C   0  0  2  0  0  0  0  0  0  0  0  0
    0.1994    4.5311    1.8359 C   0  0  0  0  0  0  0  0  0  0  0  0
    1.2020    4.1535    2.4034 O   0  0  0  0  0  0  0  0  0  0  0  0
   -0.7585    3.7640    1.2788 N   0  0  0  0  0  0  0  0  0  0  0  0
   -1.7326    4.5054    0.7391 C   0  0  0  0  0  0  0  0  0  0  0  0
   -2.7071    4.0389    0.1824 O   0  0  0  0  0  0  0  0  0  0  0  0
   -1.5129    5.8250    0.8813 N   0  5  0  0  0  0  0  0  0  0  0  0
   -0.7386    2.2992    1.2708 C   0  0  0  0  0  0  0  0  0  0  0  0
   -0.0225    1.8057    0.0120 C   0  0  0  0  0  0  0  0  0  0  0  0
    0.0021   -0.0041    0.0020 S   0  0  0  0  0  0  0  0  0  0  0  0
    0.8594   -0.2901   -1.5105 C   0  0  0  0  0  0  0  0  0  0  0  0
    1.2520    0.7470   -2.2359 N   0  3  0  0  0  0  0  0  0  0  0  0
    1.9068    0.5690   -3.3809 C   0  0  0  0  0  0  0  0  0  0  0  0
    2.1672   -0.7265   -3.8181 C   0  0  0  0  0  0  0  0  0  0  0  0
    1.7345   -1.7907   -3.0323 C   0  0  0  0  0  0  0  0  0  0  0  0
    1.0900   -1.5368   -1.8958 N   0  0  0  0  0  0  0  0  0  0  0  0
    1.9721   -3.0979   -3.4278 N   0  0  0  0  0  0  0  0  0  0  0  0
    2.3194    1.6594   -4.1307 N   0  0  0  0  0  0  0  0  0  0  0  0
   -0.4492    6.6808    2.9387 C   0  0  0  0  0  0  0  0  0  0  0  0
    0.3934    7.7085    0.5042 H   0  0  0  0  0  0  0  0  0  0  0  0
    0.9533    6.1504   -0.1845 H   0  0  0  0  0  0  0  0  0  0  0  0
    1.7364    6.8091    1.2960 H   0  0  0  0  0  0  0  0  0  0  0  0
   -0.2061    1.9347    2.1616 H   0  0  0  0  0  0  0  0  0  0  0  0
   -1.7702    1.9173    1.2784 H   0  0  0  0  0  0  0  0  0  0  0  0
   -0.5548    2.1695   -0.8793 H   0  0  0  0  0  0  0  0  0  0  0  0
    1.0098    2.1856    0.0032 H   0  0  0  0  0  0  0  0  0  0  0  0
    1.0480    1.7024   -1.9097 H   0  0  0  0  0  0  0  0  0  0  0  0
    2.7024   -0.9051   -4.7624 H   0  0  0  0  0  0  0  0  0  0  0  0
    2.4723   -3.2811   -4.3093 H   0  0  0  0  0  0  0  0  0  0  0  0
    1.6504   -3.8829   -2.8437 H   0  0  0  0  0  0  0  0  0  0  0  0
    2.1172    2.6131   -3.7983 H   0  0  0  0  0  0  0  0  0  0  0  0
    2.8259    1.5176   -5.0163 H   0  0  0  0  0  0  0  0  0  0  0  0
   -0.8082    7.7021    2.7437 H   0  0  0  0  0  0  0  0  0  0  0  0
    0.5101    6.7313    3.4746 H   0  0  0  0  0  0  0  0  0  0  0  0
   -1.1871    6.1358    3.5457 H   0  0  0  0  0  0  0  0  0  0  0  0
  1  2  1  0  0  0  0
  2  8  1  0  0  0  0
  2  3  1  0  0  0  0
  2 20  1  0  0  0  0
  3  4  2  0  0  0  0
  3  5  1  0  0  0  0
  5  6  1  0  0  0  0
  5  9  1  0  0  0  0
  6  7  2  0  0  0  0
  6  8  1  0  0  0  0
  9 10  1  0  0  0  0
 10 11  1  0  0  0  0
 11 12  1  0  0  0  0
 12 17  2  0  0  0  0
 12 13  1  0  0  0  0
 13 14  2  0  0  0  0
 14 15  1  0  0  0  0
 14 19  1  0  0  0  0
 15 16  2  0  0  0  0
 16 17  1  0  0  0  0
 16 18  1  0  0  0  0
  1 21  1  0  0  0  0
  1 22  1  0  0  0  0
  1 23  1  0  0  0  0
  9 24  1  0  0  0  0
  9 25  1  0  0  0  0
 10 26  1  0  0  0  0
 10 27  1  0  0  0  0
 13 28  1  0  0  0  0
 15 29  1  0  0  0  0
 18 30  1  0  0  0  0
 18 31  1  0  0  0  0
 19 32  1  0  0  0  0
 19 33  1  0  0  0  0
 20 34  1  0  0  0  0
 20 35  1  0  0  0  0
 20 36  1  0  0  0  0
M  CHG  2   8  -1  13   1
M  END
> <Name>
ZINC31448830

> <reference>
BDB4937

> <quality>
0.735

> <status>
decoy

$$$$
ZINC29918098
  SciTegic06141217593D

 35 36  0  0  0  0            999 V2000
   -9.8010    0.7816   10.8621 C   0  0  0  0  0  0  0  0  0  0  0  0
   -9.2530    0.9059    9.5092 N   0  0  0  0  0  0  0  0  0  0  0  0
   -9.9691    0.3221    8.3723 C   0  0  0  0  0  0  0  0  0  0  0  0
   -8.0622    1.5728    9.3057 C   0  0  0  0  0  0  0  0  0  0  0  0
   -7.5659    1.6906    8.0761 N   0  0  0  0  0  0  0  0  0  0  0  0
   -6.4232    2.3248    7.8809 C   0  0  0  0  0  0  0  0  0  0  0  0
   -5.7735    2.8531    8.9034 N   0  0  0  0  0  0  0  0  0  0  0  0
   -6.2658    2.7438   10.1351 C   0  0  0  0  0  0  0  0  0  0  0  0
   -7.4121    2.1025   10.3360 N   0  0  0  0  0  0  0  0  0  0  0  0
   -5.5865    3.2953   11.2022 N   0  0  0  0  0  0  0  0  0  0  0  0
   -5.8623    2.4513    6.4879 C   0  0  0  0  0  0  0  0  0  0  0  0
   -4.7825    1.0405    6.1418 S   0  0  0  0  0  0  0  0  0  0  0  0
   -4.2810    1.4348    4.4993 C   0  0  0  0  0  0  0  0  0  0  0  0
   -4.6467    2.4858    3.8055 N   0  0  0  0  0  0  0  0  0  0  0  0
   -4.0826    2.4500    2.6497 N   0  0  0  0  0  0  0  0  0  0  0  0
   -3.3487    1.3801    2.5563 C   0  0  0  0  0  0  0  0  0  0  0  0
   -3.4515    0.7128    3.7226 O   0  0  0  0  0  0  0  0  0  0  0  0
   -2.5273    0.9655    1.3628 C   0  0  0  0  0  0  0  0  0  0  0  0
   -0.8618    1.6708    1.5005 S   0  0  0  0  0  0  0  0  0  0  0  0
   -0.0127    1.0858    0.0080 C   0  0  0  0  0  0  0  0  0  0  0  0
   -9.9248   -0.3003   11.0177 H   0  0  0  0  0  0  0  0  0  0  0  0
  -10.8105    1.2138   10.7981 H   0  0  0  0  0  0  0  0  0  0  0  0
   -9.1884    1.2534   11.6444 H   0  0  0  0  0  0  0  0  0  0  0  0
  -10.9718    0.7730    8.4092 H   0  0  0  0  0  0  0  0  0  0  0  0
  -10.0861   -0.7412    8.6288 H   0  0  0  0  0  0  0  0  0  0  0  0
   -9.4749    0.4703    7.4008 H   0  0  0  0  0  0  0  0  0  0  0  0
   -4.6979    3.7919   11.0452 H   0  0  0  0  0  0  0  0  0  0  0  0
   -5.9678    3.2105   12.1552 H   0  0  0  0  0  0  0  0  0  0  0  0
   -6.6872    2.4680    5.7604 H   0  0  0  0  0  0  0  0  0  0  0  0
   -5.2836    3.3833    6.4076 H   0  0  0  0  0  0  0  0  0  0  0  0
   -2.4584   -0.1318    1.3282 H   0  0  0  0  0  0  0  0  0  0  0  0
   -3.0049    1.3322    0.4423 H   0  0  0  0  0  0  0  0  0  0  0  0
   -0.4816    1.4654   -0.9118 H   0  0  0  0  0  0  0  0  0  0  0  0
    0.0698   -0.0108   -0.0196 H   0  0  0  0  0  0  0  0  0  0  0  0
    1.0112    1.4867    0.0386 H   0  0  0  0  0  0  0  0  0  0  0  0
  1  2  1  0  0  0  0
  2  3  1  0  0  0  0
  2  4  1  0  0  0  0
  4  9  2  0  0  0  0
  4  5  1  0  0  0  0
  5  6  2  0  0  0  0
  6  7  1  0  0  0  0
  6 11  1  0  0  0  0
  7  8  2  0  0  0  0
  8  9  1  0  0  0  0
  8 10  1  0  0  0  0
 11 12  1  0  0  0  0
 12 13  1  0  0  0  0
 13 17  1  0  0  0  0
 13 14  2  0  0  0  0
 14 15  1  0  0  0  0
 15 16  2  0  0  0  0
 16 17  1  0  0  0  0
 16 18  1  0  0  0  0
 18 19  1  0  0  0  0
 19 20  1  0  0  0  0
  1 21  1  0  0  0  0
  1 22  1  0  0  0  0
  1 23  1  0  0  0  0
  3 24  1  0  0  0  0
  3 25  1  0  0  0  0
  3 26  1  0  0  0  0
 10 27  1  0  0  0  0
 10 28  1  0  0  0  0
 11 29  1  0  0  0  0
 11 30  1  0  0  0  0
 18 31  1  0  0  0  0
 18 32  1  0  0  0  0
 20 33  1  0  0  0  0
 20 34  1  0  0  0  0
 20 35  1  0  0  0  0
M  END
> <Name>
ZINC29918098

> <reference>
BDB5219

> <quality>
0.711

> <status>
decoy

$$$$
ZINC29829551
  SciTegic06141217593D

 37 39  0  0  0  0            999 V2000
    5.9395    1.1776   -0.0490 C   0  0  0  0  0  0  0  0  0  0  0  0
    4.4449    0.9853   -0.0353 C   0  0  0  0  0  0  0  0  0  0  0  0
    3.8083   -0.2181   -0.0356 C   0  0  0  0  0  0  0  0  0  0  0  0
    2.3702    0.0958   -0.0202 C   0  0  0  0  0  0  0  0  0  0  0  0
    1.1821   -0.6660   -0.0129 C   0  0  0  0  0  0  0  0  0  0  0  0
    1.2180   -1.8846   -0.0194 O   0  0  0  0  0  0  0  0  0  0  0  0
    0.0021   -0.0041    0.0020 N   0  0  0  0  0  0  0  0  0  0  0  0
   -0.0163    1.3518    0.0095 C   0  0  0  0  0  0  0  0  0  0  0  0
    1.0747    2.0650    0.0029 N   0  0  0  0  0  0  0  0  0  0  0  0
    2.2864    1.4884   -0.0119 C   0  0  0  0  0  0  0  0  0  0  0  0
    3.5394    1.9724   -0.0213 O   0  0  0  0  0  0  0  0  0  0  0  0
    4.4282   -1.5534   -0.0483 C   0  0  0  0  0  0  0  0  0  0  0  0
    4.6741   -2.0997   -1.1069 O   0  0  0  0  0  0  0  0  0  0  0  0
    4.7232   -2.1705    1.1130 N   0  0  0  0  0  0  0  0  0  0  0  0
    5.3401   -3.4993    1.1003 C   0  0  0  0  0  0  0  0  0  0  0  0
    5.5687   -3.9691    2.5383 C   0  0  0  0  0  0  0  0  0  0  0  0
    6.1856   -5.2978    2.5257 N   0  0  0  0  0  0  0  0  0  0  0  0
    6.4899   -5.9342    3.7234 C   0  0  0  0  0  0  0  0  0  0  0  0
    6.2090   -5.3102    4.9372 C   0  0  0  0  0  0  0  0  0  0  0  0
    6.4991   -5.9181    6.0715 N   0  0  0  0  0  0  0  0  0  0  0  0
    7.0556   -7.1180    6.0573 C   0  0  0  0  0  0  0  0  0  0  0  0
    7.3351   -7.7401    4.8558 C   0  0  0  0  0  0  0  0  0  0  0  0
    7.0434   -7.1397    3.7142 N   0  0  0  0  0  0  0  0  0  0  0  0
    6.1154    1.8124    0.8319 H   0  0  0  0  0  0  0  0  0  0  0  0
    6.0981    1.8215   -0.9266 H   0  0  0  0  0  0  0  0  0  0  0  0
    6.5420    0.2573   -0.0597 H   0  0  0  0  0  0  0  0  0  0  0  0
   -0.8831   -0.5307    0.0077 H   0  0  0  0  0  0  0  0  0  0  0  0
   -0.9873    1.8686    0.0216 H   0  0  0  0  0  0  0  0  0  0  0  0
    4.5149   -1.7079    2.0094 H   0  0  0  0  0  0  0  0  0  0  0  0
    4.6747   -4.2077    0.5851 H   0  0  0  0  0  0  0  0  0  0  0  0
    6.3044   -3.4521    0.5731 H   0  0  0  0  0  0  0  0  0  0  0  0
    6.2343   -3.2613    3.0540 H   0  0  0  0  0  0  0  0  0  0  0  0
    4.6052   -4.0180    3.0668 H   0  0  0  0  0  0  0  0  0  0  0  0
    6.3938   -5.7604    1.6293 H   0  0  0  0  0  0  0  0  0  0  0  0
    5.7461   -4.3124    4.9496 H   0  0  0  0  0  0  0  0  0  0  0  0
    7.2966   -7.6220    7.0049 H   0  0  0  0  0  0  0  0  0  0  0  0
    7.8011   -8.7365    4.8487 H   0  0  0  0  0  0  0  0  0  0  0  0
  1  2  1  0  0  0  0
  2 11  1  0  0  0  0
  2  3  2  0  0  0  0
  3  4  1  0  0  0  0
  3 12  1  0  0  0  0
  4 10  2  0  0  0  0
  4  5  1  0  0  0  0
  5  6  2  0  0  0  0
  5  7  1  0  0  0  0
  7  8  1  0  0  0  0
  8  9  2  0  0  0  0
  9 10  1  0  0  0  0
 10 11  1  0  0  0  0
 12 13  2  0  0  0  0
 12 14  1  0  0  0  0
 14 15  1  0  0  0  0
 15 16  1  0  0  0  0
 16 17  1  0  0  0  0
 17 18  1  0  0  0  0
 18 23  2  0  0  0  0
 18 19  1  0  0  0  0
 19 20  2  0  0  0  0
 20 21  1  0  0  0  0
 21 22  2  0  0  0  0
 22 23  1  0  0  0  0
  1 24  1  0  0  0  0
  1 25  1  0  0  0  0
  1 26  1  0  0  0  0
  7 27  1  0  0  0  0
  8 28  1  0  0  0  0
 14 29  1  0  0  0  0
 15 30  1  0  0  0  0
 15 31  1  0  0  0  0
 16 32  1  0  0  0  0
 16 33  1  0  0  0  0
 17 34  1  0  0  0  0
 19 35  1  0  0  0  0
 21 36  1  0  0  0  0
 22 37  1  0  0  0  0
M  END
> <Name>
ZINC29829551

> <reference>
BDB4932

> <quality>
0.694

> <status>
decoy

$$$$
ZINC18517895
  SciTegic06141217593D

 50 52  0  0  0  0            999 V2000
    2.4157    5.8014    0.0113 C   0  0  0  0  0  0  0  0  0  0  0  0
    1.2785    5.4038   -0.6677 C   0  0  0  0  0  0  0  0  0  0  0  0
    0.9054    4.0741   -0.6736 C   0  0  0  0  0  0  0  0  0  0  0  0
    1.6739    3.1359    0.0029 C   0  0  0  0  0  0  0  0  0  0  0  0
    2.8126    3.5391    0.6879 C   0  0  0  0  0  0  0  0  0  0  0  0
    3.1829    4.8696    0.6860 C   0  0  0  0  0  0  0  0  0  0  0  0
    1.2979    1.7866   -0.0007 N   0  0  0  0  0  0  0  0  0  0  0  0
    2.1465    0.7224   -0.0146 C   0  0  0  0  0  0  0  0  0  0  0  0
    1.3437   -0.4295   -0.0131 C   0  0  0  0  0  0  0  0  0  0  0  0
    0.0021   -0.0041    0.0020 C   0  0  0  0  0  0  0  0  0  0  0  0
   -0.0156    1.3007    0.0092 N   0  0  0  0  0  0  0  0  0  0  0  0
    2.0083   -1.7324   -0.0268 C   0  0  0  0  0  0  0  0  0  0  0  0
    1.3677   -2.7687   -0.0259 O   0  0  0  0  0  0  0  0  0  0  0  0
    3.3619   -1.7437   -0.0402 N   0  0  0  0  0  0  0  0  0  0  0  0
    4.0558   -0.5776   -0.0405 C   0  0  0  0  0  0  0  0  0  0  0  0
    3.4815    0.5897   -0.0280 N   0  0  0  0  0  0  0  0  0  0  0  0
    5.5615   -0.6375   -0.0556 C   0  0  0  0  0  0  0  0  0  0  0  0
    6.1285    0.7836   -0.0533 C   0  0  0  0  0  0  0  0  0  0  0  0
    7.6343    0.7237   -0.0684 C   0  0  0  0  0  0  0  0  0  0  0  0
    8.1962   -0.3459   -0.0799 O   0  0  0  0  0  0  0  0  0  0  0  0
    8.3511    1.8585   -0.0692 O   0  0  0  0  0  0  0  0  0  0  0  0
    9.7969    1.7250   -0.0841 C   0  0  0  0  0  0  0  0  0  0  0  0
   10.4278    3.0935   -0.0827 C   0  0  0  0  0  0  0  0  0  0  0  0
    9.7281    4.0836   -0.0703 O   0  0  0  0  0  0  0  0  0  0  0  0
   11.7698    3.2169   -0.0952 N   0  0  0  0  0  0  0  0  0  0  0  0
   12.3341    4.4408   -0.0939 C   0  0  0  0  0  0  0  0  0  0  0  0
   11.6327    5.4333   -0.0815 O   0  0  0  0  0  0  0  0  0  0  0  0
   13.6761    4.5642   -0.1064 N   0  0  0  0  0  0  0  0  0  0  0  0
   14.2895    5.8946   -0.1050 C   0  0  0  0  0  0  0  0  0  0  0  0
   15.8129    5.7539   -0.1208 C   0  0  1  0  0  0  0  0  0  0  0  0
   16.2054    5.0607   -1.2708 F   0  0  0  0  0  0  0  0  0  0  0  0
   16.3986    7.0244   -0.1194 F   0  0  0  0  0  0  0  0  0  0  0  0
   16.2278    5.0480    1.0136 F   0  0  0  0  0  0  0  0  0  0  0  0
    2.7106    6.8611    0.0147 H   0  0  0  0  0  0  0  0  0  0  0  0
    0.6704    6.1474   -1.2037 H   0  0  0  0  0  0  0  0  0  0  0  0
    0.0005    3.7585   -1.2136 H   0  0  0  0  0  0  0  0  0  0  0  0
    3.4190    2.7996    1.2314 H   0  0  0  0  0  0  0  0  0  0  0  0
    4.0891    5.1884    1.2218 H   0  0  0  0  0  0  0  0  0  0  0  0
   -0.8811   -0.6598    0.0069 H   0  0  0  0  0  0  0  0  0  0  0  0
    3.8672   -2.6412   -0.0502 H   0  0  0  0  0  0  0  0  0  0  0  0
    5.9162   -1.1746    0.8364 H   0  0  0  0  0  0  0  0  0  0  0  0
    5.8996   -1.1649   -0.9598 H   0  0  0  0  0  0  0  0  0  0  0  0
    5.7924    1.3122    0.8509 H   0  0  0  0  0  0  0  0  0  0  0  0
    5.7745    1.3212   -0.9453 H   0  0  0  0  0  0  0  0  0  0  0  0
   10.1067    1.1802   -0.9881 H   0  0  0  0  0  0  0  0  0  0  0  0
   10.1233    1.1705    0.8081 H   0  0  0  0  0  0  0  0  0  0  0  0
   12.3642    2.3758   -0.1057 H   0  0  0  0  0  0  0  0  0  0  0  0
   14.2705    3.7231   -0.1169 H   0  0  0  0  0  0  0  0  0  0  0  0
   13.9818    6.4405    0.7991 H   0  0  0  0  0  0  0  0  0  0  0  0
   13.9638    6.4496   -0.9971 H   0  0  0  0  0  0  0  0  0  0  0  0
  1  6  2  0  0  0  0
  1  2  1  0  0  0  0
  2  3  2  0  0  0  0
  3  4  1  0  0  0  0
  4  5  2  0  0  0  0
  4  7  1  0  0  0  0
  5  6  1  0  0  0  0
  7 11  1  0  0  0  0
  7  8  1  0  0  0  0
  8 16  1  0  0  0  0
  8  9  2  0  0  0  0
  9 10  1  0  0  0  0
  9 12  1  0  0  0  0
 10 11  2  0  0  0  0
 12 13  2  0  0  0  0
 12 14  1  0  0  0  0
 14 15  1  0  0  0  0
 15 16  2  0  0  0  0
 15 17  1  0  0  0  0
 17 18  1  0  0  0  0
 18 19  1  0  0  0  0
 19 20  2  0  0  0  0
 19 21  1  0  0  0  0
 21 22  1  0  0  0  0
 22 23  1  0  0  0  0
 23 24  2  0  0  0  0
 23 25  1  0  0  0  0
 25 26  1  0  0  0  0
 26 27  2  0  0  0  0
 26 28  1  0  0  0  0
 28 29  1  0  0  0  0
 29 30  1  0  0  0  0
 30 31  1  0  0  0  0
 30 32  1  0  0  0  0
 30 33  1  0  0  0  0
  1 34  1  0  0  0  0
  2 35  1  0  0  0  0
  3 36  1  0  0  0  0
  5 37  1  0  0  0  0
  6 38  1  0  0  0  0
 10 39  1  0  0  0  0
 14 40  1  0  0  0  0
 17 41  1  0  0  0  0
 17 42  1  0  0  0  0
 18 43  1  0  0  0  0
 18 44  1  0  0  0  0
 22 45  1  0  0  0  0
 22 46  1  0  0  0  0
 25 47  1  0  0  0  0
 28 48  1  0  0  0  0
 29 49  1  0  0  0  0
 29 50  1  0  0  0  0
M  END
> <Name>
ZINC18517895

> <reference>
BDB4972

> <quality>
0.698

> <status>
decoy

$$$$
ZINC06368275
  SciTegic06141217593D

 43 44  0  0  0  0            999 V2000
    1.0455   -8.4180    2.2723 C   0  0  0  0  0  0  0  0  0  0  0  0
    1.2331   -6.9843    2.4046 O   0  0  0  0  0  0  0  0  0  0  0  0
    1.5696   -6.3087    1.2946 C   0  0  0  0  0  0  0  0  0  0  0  0
    1.7030   -6.8959    0.2471 O   0  0  0  0  0  0  0  0  0  0  0  0
    1.7811   -4.8178    1.3549 C   0  0  0  0  0  0  0  0  0  0  0  0
    2.1534   -4.2989   -0.0354 C   0  0  0  0  0  0  0  0  0  0  0  0
    2.3649   -2.8080    0.0249 C   0  0  0  0  0  0  0  0  0  0  0  0
    3.6150   -2.2962    0.3508 C   0  0  0  0  0  0  0  0  0  0  0  0
    4.6453   -3.1740    0.7687 C   0  0  0  0  0  0  0  0  0  0  0  0
    4.4300   -4.3664    0.8417 O   0  0  0  0  0  0  0  0  0  0  0  0
    6.0084   -2.6359    1.1183 C   0  0  0  0  0  0  0  0  0  0  0  0
    5.8657   -1.2150    1.6691 C   0  0  0  0  0  0  0  0  0  0  0  0
    5.1958   -0.3304    0.6149 C   0  0  0  0  0  0  0  0  0  0  0  0
    3.8454   -0.9009    0.2675 C   0  0  0  0  0  0  0  0  0  0  0  0
    2.9501   -0.1612   -0.0859 O   0  0  0  0  0  0  0  0  0  0  0  0
    1.3432   -1.9725   -0.2368 N   0  0  0  0  0  0  0  0  0  0  0  0
    0.6993   -2.0219   -1.4782 C   0  0  0  0  0  0  0  0  0  0  0  0
   -0.4477   -1.2693   -1.6961 C   0  0  0  0  0  0  0  0  0  0  0  0
   -1.0826   -1.3177   -2.9208 C   0  0  0  0  0  0  0  0  0  0  0  0
   -0.5745   -2.1191   -3.9354 C   0  0  0  0  0  0  0  0  0  0  0  0
    0.5726   -2.8718   -3.7174 C   0  0  0  0  0  0  0  0  0  0  0  0
    1.2075   -2.8234   -2.4927 C   0  0  0  0  0  0  0  0  0  0  0  0
   -1.2176   -2.1681   -5.1761 N   0  0  0  0  0  0  0  0  0  0  0  0
    1.9888   -8.8185    1.8725 H   0  0  0  0  0  0  0  0  0  0  0  0
    0.2671   -8.5596    1.5081 H   0  0  0  0  0  0  0  0  0  0  0  0
    0.7720   -8.8989    3.2231 H   0  0  0  0  0  0  0  0  0  0  0  0
    0.8550   -4.3293    1.6921 H   0  0  0  0  0  0  0  0  0  0  0  0
    2.5938   -4.5898    2.0603 H   0  0  0  0  0  0  0  0  0  0  0  0
    1.3412   -4.5250   -0.7420 H   0  0  0  0  0  0  0  0  0  0  0  0
    3.0797   -4.7867   -0.3731 H   0  0  0  0  0  0  0  0  0  0  0  0
    6.4729   -3.2793    1.8800 H   0  0  0  0  0  0  0  0  0  0  0  0
    6.6393   -2.6179    0.2174 H   0  0  0  0  0  0  0  0  0  0  0  0
    6.8605   -0.8109    1.9081 H   0  0  0  0  0  0  0  0  0  0  0  0
    5.2473   -1.2339    2.5786 H   0  0  0  0  0  0  0  0  0  0  0  0
    5.0719    0.6869    1.0145 H   0  0  0  0  0  0  0  0  0  0  0  0
    5.8222   -0.2962   -0.2887 H   0  0  0  0  0  0  0  0  0  0  0  0
    1.0350   -1.2965    0.4766 H   0  0  0  0  0  0  0  0  0  0  0  0
   -0.8500   -0.6348   -0.8927 H   0  0  0  0  0  0  0  0  0  0  0  0
   -1.9909   -0.7217   -3.0934 H   0  0  0  0  0  0  0  0  0  0  0  0
    0.9749   -3.5064   -4.5208 H   0  0  0  0  0  0  0  0  0  0  0  0
    2.1158   -3.4194   -2.3200 H   0  0  0  0  0  0  0  0  0  0  0  0
   -2.0681   -1.6100   -5.3377 H   0  0  0  0  0  0  0  0  0  0  0  0
   -0.8409   -2.7623   -5.9284 H   0  0  0  0  0  0  0  0  0  0  0  0
  1  2  1  0  0  0  0
  2  3  1  0  0  0  0
  3  4  2  0  0  0  0
  3  5  1  0  0  0  0
  5  6  1  0  0  0  0
  6  7  1  0  0  0  0
  7  8  2  0  0  0  0
  7 16  1  0  0  0  0
  8 14  1  0  0  0  0
  8  9  1  0  0  0  0
  9 10  2  0  0  0  0
  9 11  1  0  0  0  0
 11 12  1  0  0  0  0
 12 13  1  0  0  0  0
 13 14  1  0  0  0  0
 14 15  2  0  0  0  0
 16 17  1  0  0  0  0
 17 22  2  0  0  0  0
 17 18  1  0  0  0  0
 18 19  2  0  0  0  0
 19 20  1  0  0  0  0
 20 21  2  0  0  0  0
 20 23  1  0  0  0  0
 21 22  1  0  0  0  0
  1 24  1  0  0  0  0
  1 25  1  0  0  0  0
  1 26  1  0  0  0  0
  5 27  1  0  0  0  0
  5 28  1  0  0  0  0
  6 29  1  0  0  0  0
  6 30  1  0  0  0  0
 11 31  1  0  0  0  0
 11 32  1  0  0  0  0
 12 33  1  0  0  0  0
 12 34  1  0  0  0  0
 13 35  1  0  0  0  0
 13 36  1  0  0  0  0
 16 37  1  0  0  0  0
 18 38  1  0  0  0  0
 19 39  1  0  0  0  0
 21 40  1  0  0  0  0
 22 41  1  0  0  0  0
 23 42  1  0  0  0  0
 23 43  1  0  0  0  0
M  END
> <Name>
ZINC06368275

> <reference>
BDB5219

> <quality>
0.685

> <status>
decoy

$$$$
ZINC19328598
  SciTegic06141217593D

 39 39  0  0  1  0            999 V2000
   -0.7288    1.5792    1.2668 C   0  0  0  0  0  0  0  0  0  0  0  0
   -0.0127    1.0858    0.0080 C   0  0  1  0  0  0  0  0  0  0  0  0
   -0.7232    1.5724   -1.1821 N   0  3  0  0  0  0  0  0  0  0  0  0
    1.3654    1.5943   -0.0024 N   0  0  0  0  0  0  0  0  0  0  0  0
    2.3144    0.5356   -0.3721 C   0  0  0  0  0  0  0  0  0  0  0  0
    3.7357    1.1019   -0.3721 C   0  0  0  0  0  0  0  0  0  0  0  0
    4.7241   -0.0007   -0.7572 C   0  0  0  0  0  0  0  0  0  0  0  0
    6.1454    0.5656   -0.7571 C   0  0  0  0  0  0  0  0  0  0  0  0
    7.1337   -0.5370   -1.1422 C   0  0  2  0  0  0  0  0  0  0  0  0
    8.5418   -0.0134   -1.0233 C   0  0  0  0  0  0  0  0  0  0  0  0
    9.1396    0.3494   -2.0143 O   0  0  0  0  0  0  0  0  0  0  0  0
    9.1369    0.0517    0.1842 N   0  0  0  0  0  0  0  0  0  0  0  0
   10.4440    0.5378    0.2946 C   0  0  0  0  0  0  0  0  0  0  0  0
   11.1401    0.6542    1.4060 N   0  5  0  0  0  0  0  0  0  0  0  0
   12.3882    1.1753    1.0266 N   0  0  0  0  0  0  0  0  0  0  0  0
   12.3544    1.3447   -0.2512 N   0  0  0  0  0  0  0  0  0  0  0  0
   11.2127    0.9680   -0.7068 N   0  0  0  0  0  0  0  0  0  0  0  0
    6.8830   -0.9575   -2.5272 N   0  3  0  0  0  0  0  0  0  0  0  0
   -1.7609    1.1987    1.2757 H   0  0  0  0  0  0  0  0  0  0  0  0
   -0.7441    2.6791    1.2739 H   0  0  0  0  0  0  0  0  0  0  0  0
   -0.1972    1.2152    2.1584 H   0  0  0  0  0  0  0  0  0  0  0  0
    0.0022   -0.0141    0.0019 H   0  0  0  0  0  0  0  0  0  0  0  0
   -0.7375    2.6023   -1.1775 H   0  0  0  0  0  0  0  0  0  0  0  0
   -1.6896    1.2162   -1.1758 H   0  0  0  0  0  0  0  0  0  0  0  0
   -0.2416    1.2405   -2.0299 H   0  0  0  0  0  0  0  0  0  0  0  0
    1.4376    2.3663   -0.6804 H   0  0  0  0  0  0  0  0  0  0  0  0
    2.2480   -0.2869    0.3553 H   0  0  0  0  0  0  0  0  0  0  0  0
    2.0711    0.1577   -1.3761 H   0  0  0  0  0  0  0  0  0  0  0  0
    3.8029    1.9243   -1.0996 H   0  0  0  0  0  0  0  0  0  0  0  0
    3.9813    1.4792    0.6316 H   0  0  0  0  0  0  0  0  0  0  0  0
    4.6577   -0.8233   -0.0299 H   0  0  0  0  0  0  0  0  0  0  0  0
    4.4808   -0.3785   -1.7612 H   0  0  0  0  0  0  0  0  0  0  0  0
    6.2126    1.3880   -1.4845 H   0  0  0  0  0  0  0  0  0  0  0  0
    6.3909    0.9428    0.2466 H   0  0  0  0  0  0  0  0  0  0  0  0
    7.0042   -1.3971   -0.4688 H   0  0  0  0  0  0  0  0  0  0  0  0
    8.6293   -0.2565    1.0258 H   0  0  0  0  0  0  0  0  0  0  0  0
    7.0043   -0.1528   -3.1586 H   0  0  0  0  0  0  0  0  0  0  0  0
    5.9208   -1.3158   -2.6094 H   0  0  0  0  0  0  0  0  0  0  0  0
    7.5481   -1.6998   -2.7871 H   0  0  0  0  0  0  0  0  0  0  0  0
  1  2  1  0  0  0  0
  2  3  1  0  0  0  0
  2  4  1  0  0  0  0
  4  5  1  0  0  0  0
  5  6  1  0  0  0  0
  6  7  1  0  0  0  0
  7  8  1  0  0  0  0
  8  9  1  0  0  0  0
  9 10  1  0  0  0  0
  9 18  1  0  0  0  0
 10 11  2  0  0  0  0
 10 12  1  0  0  0  0
 12 13  1  0  0  0  0
 13 14  1  0  0  0  0
 13 17  2  0  0  0  0
 14 15  1  0  0  0  0
 15 16  2  0  0  0  0
 16 17  1  0  0  0  0
  1 19  1  0  0  0  0
  1 20  1  0  0  0  0
  1 21  1  0  0  0  0
  2 22  1  0  0  0  0
  3 23  1  0  0  0  0
  3 24  1  0  0  0  0
  3 25  1  0  0  0  0
  4 26  1  0  0  0  0
  5 27  1  0  0  0  0
  5 28  1  0  0  0  0
  6 29  1  0  0  0  0
  6 30  1  0  0  0  0
  7 31  1  0  0  0  0
  7 32  1  0  0  0  0
  8 33  1  0  0  0  0
  8 34  1  0  0  0  0
  9 35  1  0  0  0  0
 12 36  1  0  0  0  0
 18 37  1  0  0  0  0
 18 38  1  0  0  0  0
 18 39  1  0  0  0  0
M  CHG  3   3   1  14  -1  18   1
M  END
> <Name>
ZINC19328598

> <reference>
BDB4986

> <quality>
0.714

> <status>
decoy

$$$$
ZINC31687708
  SciTegic06141217593D

 31 31  0  0  0  0            999 V2000
   -1.4865    4.7043    2.6976 C   0  0  0  0  0  0  0  0  0  0  0  0
   -1.4469    3.2527    2.5038 N   0  0  0  0  0  0  0  0  0  0  0  0
   -2.0207    2.4162    3.4424 C   0  0  0  0  0  0  0  0  0  0  0  0
   -1.9726    1.0420    3.2402 C   0  0  0  0  0  0  0  0  0  0  0  0
   -1.3439    0.5507    2.0917 C   0  0  0  0  0  0  0  0  0  0  0  0
   -1.2885   -0.6513    1.8906 O   0  0  0  0  0  0  0  0  0  0  0  0
   -0.8003    1.4096    1.2082 N   0  0  0  0  0  0  0  0  0  0  0  0
   -0.8474    2.7372    1.4149 C   0  0  0  0  0  0  0  0  0  0  0  0
   -0.3427    3.4861    0.6008 O   0  0  0  0  0  0  0  0  0  0  0  0
   -0.1425    0.8892    0.0070 C   0  0  0  0  0  0  0  0  0  0  0  0
   -2.6147    2.9228    4.5320 N   0  0  0  0  0  0  0  0  0  0  0  0
   -2.1975    2.5666    5.7423 C   0  0  0  0  0  0  0  0  0  0  0  0
   -1.0696    1.7955    5.8805 N   0  3  0  0  0  0  0  0  0  0  0  0
   -2.8774    2.9598    6.8279 N   0  0  0  0  0  0  0  0  0  0  0  0
   -4.1209    2.5471    7.0154 C   0  0  0  0  0  0  0  0  0  0  0  0
   -4.6725    1.6345    6.1641 N   0  0  0  0  0  0  0  0  0  0  0  0
   -4.8512    3.0343    8.0599 N   0  0  0  0  0  0  0  0  0  0  0  0
   -1.9700    5.1019    1.7931 H   0  0  0  0  0  0  0  0  0  0  0  0
   -0.4349    5.0262    2.6741 H   0  0  0  0  0  0  0  0  0  0  0  0
   -1.9999    5.0162    3.6191 H   0  0  0  0  0  0  0  0  0  0  0  0
   -2.4212    0.3528    3.9708 H   0  0  0  0  0  0  0  0  0  0  0  0
   -0.9042    0.2785   -0.4998 H   0  0  0  0  0  0  0  0  0  0  0  0
    0.6355    0.2043    0.3754 H   0  0  0  0  0  0  0  0  0  0  0  0
    0.2671    1.6729   -0.6472 H   0  0  0  0  0  0  0  0  0  0  0  0
   -3.3945    3.5881    4.4311 H   0  0  0  0  0  0  0  0  0  0  0  0
   -0.5470    1.4932    5.0460 H   0  0  0  0  0  0  0  0  0  0  0  0
   -0.7462    1.5194    6.8186 H   0  0  0  0  0  0  0  0  0  0  0  0
   -4.1212    1.2668    5.3756 H   0  0  0  0  0  0  0  0  0  0  0  0
   -5.6402    1.3133    6.3100 H   0  0  0  0  0  0  0  0  0  0  0  0
   -4.4348    3.7232    8.7025 H   0  0  0  0  0  0  0  0  0  0  0  0
   -5.8189    2.7131    8.2058 H   0  0  0  0  0  0  0  0  0  0  0  0
  1  2  1  0  0  0  0
  2  8  1  0  0  0  0
  2  3  1  0  0  0  0
  3  4  2  0  0  0  0
  3 11  1  0  0  0  0
  4  5  1  0  0  0  0
  5  6  2  0  0  0  0
  5  7  1  0  0  0  0
  7  8  1  0  0  0  0
  7 10  1  0  0  0  0
  8  9  2  0  0  0  0
 11 12  1  0  0  0  0
 12 13  2  0  0  0  0
 12 14  1  0  0  0  0
 14 15  2  0  0  0  0
 15 16  1  0  0  0  0
 15 17  1  0  0  0  0
  1 18  1  0  0  0  0
  1 19  1  0  0  0  0
  1 20  1  0  0  0  0
  4 21  1  0  0  0  0
 10 22  1  0  0  0  0
 10 23  1  0  0  0  0
 10 24  1  0  0  0  0
 11 25  1  0  0  0  0
 13 26  1  0  0  0  0
 13 27  1  0  0  0  0
 16 28  1  0  0  0  0
 16 29  1  0  0  0  0
 17 30  1  0  0  0  0
 17 31  1  0  0  0  0
M  CHG  1  13   1
M  END
> <Name>
ZINC31687708

> <reference>
BDB5008

> <quality>
0.766

> <status>
decoy

$$$$
ZINC06535546
  SciTegic06141217593D

 41 42  0  0  1  0            999 V2000
    0.8789    7.6477   -7.6512 C   0  0  0  0  0  0  0  0  0  0  0  0
   -0.1099    8.2335   -8.4178 C   0  0  0  0  0  0  0  0  0  0  0  0
   -0.8409    9.2976   -7.9097 C   0  0  0  0  0  0  0  0  0  0  0  0
   -0.5809    9.7667   -6.6303 C   0  0  0  0  0  0  0  0  0  0  0  0
    0.4048    9.1735   -5.8654 C   0  0  0  0  0  0  0  0  0  0  0  0
    1.1322    8.1134   -6.3742 C   0  0  0  0  0  0  0  0  0  0  0  0
    2.2072    7.4685   -5.5378 C   0  0  0  0  0  0  0  0  0  0  0  0
    1.6005    6.3272   -4.7191 C   0  0  0  0  0  0  0  0  0  0  0  0
    2.3360    4.6479   -3.0854 C   0  0  0  0  0  0  0  0  0  0  0  0
    3.3006    4.0692   -2.3349 C   0  0  0  0  0  0  0  0  0  0  0  0
    2.9823    2.9873   -1.4911 C   0  0  0  0  0  0  0  0  0  0  0  0
    3.9466    2.3992   -0.7326 C   0  0  0  0  0  0  0  0  0  0  0  0
    3.6045    1.3349    0.1344 C   0  0  0  0  0  0  0  0  0  0  0  0
    2.3633    1.1089    0.4641 N   0  0  0  0  0  0  0  0  0  0  0  0
    1.2804    1.9752    0.0004 C   0  0  1  0  0  0  0  0  0  0  0  0
    1.5701    2.4636   -1.4190 C   0  0  0  0  0  0  0  0  0  0  0  0
   -0.0143    1.2041    0.0087 C   0  0  0  0  0  0  0  0  0  0  0  0
    0.0021   -0.0041    0.0020 O   0  0  0  0  0  0  0  0  0  0  0  0
    4.6770    0.4600    0.6776 C   0  0  0  0  0  0  0  0  0  0  0  0
    5.8352    0.6619    0.3769 O   0  0  0  0  0  0  0  0  0  0  0  0
   -1.8097    9.8797   -8.6643 O   0  0  0  0  0  0  0  0  0  0  0  0
    2.7144    5.7243   -3.9085 N   0  3  0  0  0  0  0  0  0  0  0  0
   -1.1857    1.8593    0.0178 O   0  5  0  0  0  0  0  0  0  0  0  0
    4.3632   -0.5559    1.5030 O   0  5  0  0  0  0  0  0  0  0  0  0
    1.4652    6.8101   -8.0571 H   0  0  0  0  0  0  0  0  0  0  0  0
   -0.3175    7.8566   -9.4302 H   0  0  0  0  0  0  0  0  0  0  0  0
   -1.1591   10.6103   -6.2252 H   0  0  0  0  0  0  0  0  0  0  0  0
    0.6111    9.5449   -4.8507 H   0  0  0  0  0  0  0  0  0  0  0  0
    2.9937    7.0696   -6.1953 H   0  0  0  0  0  0  0  0  0  0  0  0
    2.6419    8.2158   -4.8577 H   0  0  0  0  0  0  0  0  0  0  0  0
    0.8237    6.7224   -4.0480 H   0  0  0  0  0  0  0  0  0  0  0  0
    1.1781    5.5677   -5.3934 H   0  0  0  0  0  0  0  0  0  0  0  0
    1.2960    4.2910   -3.0536 H   0  0  0  0  0  0  0  0  0  0  0  0
    4.3339    4.4434   -2.3834 H   0  0  0  0  0  0  0  0  0  0  0  0
    4.9875    2.7497   -0.7932 H   0  0  0  0  0  0  0  0  0  0  0  0
    1.2019    2.8437    0.6709 H   0  0  0  0  0  0  0  0  0  0  0  0
    0.8667    3.2680   -1.6802 H   0  0  0  0  0  0  0  0  0  0  0  0
    1.4510    1.6284   -2.1249 H   0  0  0  0  0  0  0  0  0  0  0  0
   -2.4230    9.1409   -8.9054 H   0  0  0  0  0  0  0  0  0  0  0  0
    3.4526    5.4011   -4.5500 H   0  0  0  0  0  0  0  0  0  0  0  0
    3.1282    6.4583   -3.3162 H   0  0  0  0  0  0  0  0  0  0  0  0
  1  6  2  0  0  0  0
  1  2  1  0  0  0  0
  2  3  2  0  0  0  0
  3  4  1  0  0  0  0
  3 21  1  0  0  0  0
  4  5  2  0  0  0  0
  5  6  1  0  0  0  0
  6  7  1  0  0  0  0
  7  8  1  0  0  0  0
  8 22  1  0  0  0  0
  9 10  2  0  0  0  0
  9 22  1  0  0  0  0
 10 11  1  0  0  0  0
 11 16  1  0  0  0  0
 11 12  2  0  0  0  0
 12 13  1  0  0  0  0
 13 14  2  0  0  0  0
 13 19  1  0  0  0  0
 14 15  1  0  0  0  0
 15 16  1  0  0  0  0
 15 17  1  0  0  0  0
 17 18  2  0  0  0  0
 17 23  1  0  0  0  0
 19 20  2  0  0  0  0
 19 24  1  0  0  0  0
  1 25  1  0  0  0  0
  2 26  1  0  0  0  0
  4 27  1  0  0  0  0
  5 28  1  0  0  0  0
  7 29  1  0  0  0  0
  7 30  1  0  0  0  0
  8 31  1  0  0  0  0
  8 32  1  0  0  0  0
  9 33  1  0  0  0  0
 10 34  1  0  0  0  0
 12 35  1  0  0  0  0
 15 36  1  0  0  0  0
 16 37  1  0  0  0  0
 16 38  1  0  0  0  0
 21 39  1  0  0  0  0
 22 40  1  0  0  0  0
 22 41  1  0  0  0  0
M  CHG  3  22   1  23  -1  24  -1
M  END
> <Name>
ZINC06535546

> <reference>
BDB4934

> <quality>
0.675

> <status>
decoy

$$$$
ZINC00531613
  SciTegic06141217593D

 36 37  0  0  0  0            999 V2000
   -5.1085    0.9507    4.5102 C   0  0  0  0  0  0  0  0  0  0  0  0
   -5.6742    1.1307    3.2104 O   0  0  0  0  0  0  0  0  0  0  0  0
   -4.8061    1.2857    2.1755 C   0  0  0  0  0  0  0  0  0  0  0  0
   -3.4393    1.2645    2.4097 C   0  0  0  0  0  0  0  0  0  0  0  0
   -2.5545    1.4214    1.3631 C   0  0  0  0  0  0  0  0  0  0  0  0
   -3.0342    1.6019    0.0647 C   0  0  0  0  0  0  0  0  0  0  0  0
   -4.4099    1.6291   -0.1704 C   0  0  0  0  0  0  0  0  0  0  0  0
   -5.2914    1.4651    0.8823 C   0  0  0  0  0  0  0  0  0  0  0  0
   -6.6323    1.4849    0.6558 O   0  0  0  0  0  0  0  0  0  0  0  0
   -7.0594    1.6729   -0.6948 C   0  0  0  0  0  0  0  0  0  0  0  0
   -2.0875    1.7701   -1.0580 C   0  0  0  0  0  0  0  0  0  0  0  0
   -2.3732    2.2146   -2.2597 N   0  0  0  0  0  0  0  0  0  0  0  0
   -1.3125    2.2318   -2.9849 N   0  0  0  0  0  0  0  0  0  0  0  0
   -0.2829    1.8048   -2.2891 C   0  0  0  0  0  0  0  0  0  0  0  0
   -0.7405    1.4903   -1.0408 N   0  0  0  0  0  0  0  0  0  0  0  0
   -0.0116    1.0048    0.0076 N   0  0  0  0  0  0  0  0  0  0  0  0
    1.3775    1.6604   -2.8607 S   0  0  0  0  0  0  0  0  0  0  0  0
    1.1776    2.2521   -4.5596 C   0  0  0  0  0  0  0  0  0  0  0  0
    2.5094    2.2161   -5.2640 C   0  0  0  0  0  0  0  0  0  0  0  0
    3.4965    1.8287   -4.6754 O   0  0  0  0  0  0  0  0  0  0  0  0
    2.6035    2.6146   -6.5480 N   0  0  0  0  0  0  0  0  0  0  0  0
   -4.4714    1.8283    4.6944 H   0  0  0  0  0  0  0  0  0  0  0  0
   -4.4558    0.0678    4.4438 H   0  0  0  0  0  0  0  0  0  0  0  0
   -5.8715    0.8324    5.2937 H   0  0  0  0  0  0  0  0  0  0  0  0
   -3.0599    1.1222    3.4324 H   0  0  0  0  0  0  0  0  0  0  0  0
   -1.4709    1.4043    1.5517 H   0  0  0  0  0  0  0  0  0  0  0  0
   -4.7919    1.7806   -1.1908 H   0  0  0  0  0  0  0  0  0  0  0  0
   -6.6007    0.8622   -1.2799 H   0  0  0  0  0  0  0  0  0  0  0  0
   -6.6169    2.6227   -1.0297 H   0  0  0  0  0  0  0  0  0  0  0  0
   -8.1545    1.6775   -0.7981 H   0  0  0  0  0  0  0  0  0  0  0  0
   -0.5506    0.8375    0.8693 H   0  0  0  0  0  0  0  0  0  0  0  0
    0.9995    0.8141   -0.0395 H   0  0  0  0  0  0  0  0  0  0  0  0
    0.7980    3.2844   -4.5472 H   0  0  0  0  0  0  0  0  0  0  0  0
    0.4644    1.6054   -5.0917 H   0  0  0  0  0  0  0  0  0  0  0  0
    1.7652    2.9438   -7.0479 H   0  0  0  0  0  0  0  0  0  0  0  0
    3.5137    2.5900   -7.0294 H   0  0  0  0  0  0  0  0  0  0  0  0
  1  2  1  0  0  0  0
  2  3  1  0  0  0  0
  3  8  2  0  0  0  0
  3  4  1  0  0  0  0
  4  5  2  0  0  0  0
  5  6  1  0  0  0  0
  6  7  2  0  0  0  0
  6 11  1  0  0  0  0
  7  8  1  0  0  0  0
  8  9  1  0  0  0  0
  9 10  1  0  0  0  0
 11 15  1  0  0  0  0
 11 12  2  0  0  0  0
 12 13  1  0  0  0  0
 13 14  2  0  0  0  0
 14 15  1  0  0  0  0
 14 17  1  0  0  0  0
 15 16  1  0  0  0  0
 17 18  1  0  0  0  0
 18 19  1  0  0  0  0
 19 20  2  0  0  0  0
 19 21  1  0  0  0  0
  1 22  1  0  0  0  0
  1 23  1  0  0  0  0
  1 24  1  0  0  0  0
  4 25  1  0  0  0  0
  5 26  1  0  0  0  0
  7 27  1  0  0  0  0
 10 28  1  0  0  0  0
 10 29  1  0  0  0  0
 10 30  1  0  0  0  0
 16 31  1  0  0  0  0
 16 32  1  0  0  0  0
 18 33  1  0  0  0  0
 18 34  1  0  0  0  0
 21 35  1  0  0  0  0
 21 36  1  0  0  0  0
M  END
> <Name>
ZINC00531613

> <reference>
BDB5199

> <quality>
0.762

> <status>
decoy

$$$$
ZINC25495269
  SciTegic06141217593D

 41 40  0  0  0  0            999 V2000
   -3.9997   -5.2543    3.5005 C   0  0  0  0  0  0  0  0  0  0  0  0
   -3.2879   -4.7061    2.2620 C   0  0  0  0  0  0  0  0  0  0  0  0
   -3.3398   -3.2551    2.2765 O   0  0  0  0  0  0  0  0  0  0  0  0
   -2.7564   -2.6142    1.2515 C   0  0  0  0  0  0  0  0  0  0  0  0
   -2.2201   -3.2447    0.3714 O   0  0  0  0  0  0  0  0  0  0  0  0
   -2.7703   -1.1082    1.1986 C   0  0  0  0  0  0  0  0  0  0  0  0
   -2.1116   -0.6375   -0.0997 C   0  0  2  0  0  0  0  0  0  0  0  0
   -0.6470   -0.9916   -0.0770 C   0  0  0  0  0  0  0  0  0  0  0  0
   -0.1290   -1.5058    0.9747 N   0  0  0  0  0  0  0  0  0  0  0  0
    1.2535   -1.7225    1.0405 N   0  0  0  0  0  0  0  0  0  0  0  0
    1.7860   -2.3595    2.1021 C   0  0  0  0  0  0  0  0  0  0  0  0
    2.9929   -2.4680    2.2035 O   0  0  0  0  0  0  0  0  0  0  0  0
    0.9808   -2.8763    3.0514 N   0  0  0  0  0  0  0  0  0  0  0  0
    0.2079   -0.7404   -1.2923 C   0  0  0  0  0  0  0  0  0  0  0  0
   -2.2653    0.8562   -0.2281 C   0  0  0  0  0  0  0  0  0  0  0  0
   -2.9715    1.3478   -1.1758 N   0  0  0  0  0  0  0  0  0  0  0  0
   -3.5060    0.5062   -2.1602 N   0  0  0  0  0  0  0  0  0  0  0  0
   -4.1571    1.0331   -3.2162 C   0  0  0  0  0  0  0  0  0  0  0  0
   -4.5457    0.3100   -4.1132 O   0  0  0  0  0  0  0  0  0  0  0  0
   -4.3774    2.3613   -3.2778 N   0  0  0  0  0  0  0  0  0  0  0  0
   -1.5877    1.7711    0.7593 C   0  0  0  0  0  0  0  0  0  0  0  0
   -5.0494   -4.9256    3.4969 H   0  0  0  0  0  0  0  0  0  0  0  0
   -3.5018   -4.8793    4.4069 H   0  0  0  0  0  0  0  0  0  0  0  0
   -3.9607   -6.3536    3.4901 H   0  0  0  0  0  0  0  0  0  0  0  0
   -2.2382   -5.0350    2.2666 H   0  0  0  0  0  0  0  0  0  0  0  0
   -3.7857   -5.0810    1.3556 H   0  0  0  0  0  0  0  0  0  0  0  0
   -3.8096   -0.7495    1.2328 H   0  0  0  0  0  0  0  0  0  0  0  0
   -2.2146   -0.7048    2.0580 H   0  0  0  0  0  0  0  0  0  0  0  0
   -2.5949   -1.1308   -0.9559 H   0  0  0  0  0  0  0  0  0  0  0  0
    1.8630   -1.3950    0.2775 H   0  0  0  0  0  0  0  0  0  0  0  0
   -0.0415   -2.7844    2.9655 H   0  0  0  0  0  0  0  0  0  0  0  0
    1.3878   -3.3631    3.8627 H   0  0  0  0  0  0  0  0  0  0  0  0
    0.0874    0.3324   -1.5035 H   0  0  0  0  0  0  0  0  0  0  0  0
   -0.2941   -1.2843   -2.1061 H   0  0  0  0  0  0  0  0  0  0  0  0
    1.2615   -1.0333   -1.1735 H   0  0  0  0  0  0  0  0  0  0  0  0
   -3.4014   -0.5151   -2.0769 H   0  0  0  0  0  0  0  0  0  0  0  0
   -4.0482    2.9737   -2.5179 H   0  0  0  0  0  0  0  0  0  0  0  0
   -4.8750    2.7639   -4.0848 H   0  0  0  0  0  0  0  0  0  0  0  0
   -0.5227    1.5005    0.7078 H   0  0  0  0  0  0  0  0  0  0  0  0
   -1.9532    1.4424    1.7433 H   0  0  0  0  0  0  0  0  0  0  0  0
   -1.7622    2.8420    0.5783 H   0  0  0  0  0  0  0  0  0  0  0  0
  1  2  1  0  0  0  0
  2  3  1  0  0  0  0
  3  4  1  0  0  0  0
  4  5  2  0  0  0  0
  4  6  1  0  0  0  0
  6  7  1  0  0  0  0
  7  8  1  0  0  0  0
  7 15  1  0  0  0  0
  8  9  2  0  0  0  0
  8 14  1  0  0  0  0
  9 10  1  0  0  0  0
 10 11  1  0  0  0  0
 11 12  2  0  0  0  0
 11 13  1  0  0  0  0
 15 16  2  0  0  0  0
 15 21  1  0  0  0  0
 16 17  1  0  0  0  0
 17 18  1  0  0  0  0
 18 19  2  0  0  0  0
 18 20  1  0  0  0  0
  1 22  1  0  0  0  0
  1 23  1  0  0  0  0
  1 24  1  0  0  0  0
  2 25  1  0  0  0  0
  2 26  1  0  0  0  0
  6 27  1  0  0  0  0
  6 28  1  0  0  0  0
  7 29  1  0  0  0  0
 10 30  1  0  0  0  0
 13 31  1  0  0  0  0
 13 32  1  0  0  0  0
 14 33  1  0  0  0  0
 14 34  1  0  0  0  0
 14 35  1  0  0  0  0
 17 36  1  0  0  0  0
 20 37  1  0  0  0  0
 20 38  1  0  0  0  0
 21 39  1  0  0  0  0
 21 40  1  0  0  0  0
 21 41  1  0  0  0  0
M  END
> <Name>
ZINC25495269

> <reference>
BDB5021

> <quality>
0.696

> <status>
decoy

$$$$
ZINC17255921
  SciTegic06141217593D

 54 56  0  0  1  0            999 V2000
    7.1329    0.0251   -3.0088 C   0  0  0  0  0  0  0  0  0  0  0  0
    6.0289    0.9154   -3.5828 C   0  0  0  0  0  0  0  0  0  0  0  0
    4.7217    0.3226   -3.2896 N   0  0  0  0  0  0  0  0  0  0  0  0
    4.1156   -0.6186   -4.2347 C   0  0  0  0  0  0  0  0  0  0  0  0
    3.2558    0.1505   -5.2398 C   0  0  0  0  0  0  0  0  0  0  0  0
    4.0688    0.6470   -2.1369 C   0  0  0  0  0  0  0  0  0  0  0  0
    4.4722    1.4727   -1.1848 N   0  0  0  0  0  0  0  0  0  0  0  0
    3.7894    1.7362   -0.1020 C   0  0  0  0  0  0  0  0  0  0  0  0
    4.1824    2.4993    0.7587 O   0  0  0  0  0  0  0  0  0  0  0  0
    2.4567    1.0021   -0.0137 C   0  5  0  0  0  0  0  0  0  0  0  0
    2.5245    0.0679   -1.5941 S   0  0  0  0  0  0  0  0  0  0  0  0
    1.2804    1.9802    0.0072 C   0  0  0  0  0  0  0  0  0  0  0  0
   -0.0143    1.2088    0.0066 C   0  0  0  0  0  0  0  0  0  0  0  0
    0.0023   -0.0038   -0.0090 O   0  0  0  0  0  0  0  0  0  0  0  0
   -1.1906    1.8666    0.0178 N   0  0  0  0  0  0  0  0  0  0  0  0
   -2.3913    1.1550   -0.0860 C   0  0  0  0  0  0  0  0  0  0  0  0
   -3.4684    1.7057   -0.7703 C   0  0  0  0  0  0  0  0  0  0  0  0
   -4.6545    1.0046   -0.8806 C   0  0  0  0  0  0  0  0  0  0  0  0
   -4.7808   -0.2422   -0.3021 C   0  0  0  0  0  0  0  0  0  0  0  0
   -3.7069   -0.8014    0.3922 C   0  0  0  0  0  0  0  0  0  0  0  0
   -2.5080   -0.0962    0.4985 C   0  0  0  0  0  0  0  0  0  0  0  0
   -3.8396   -2.1367    1.0133 C   0  0  0  0  0  0  0  0  0  0  0  0
   -2.9032   -2.6216    1.6177 O   0  0  0  0  0  0  0  0  0  0  0  0
   -4.9989   -2.8161    0.9092 N   0  0  0  0  0  0  0  0  0  0  0  0
   -5.1247   -4.0812    1.4977 N   0  0  0  0  0  0  0  0  0  0  0  0
   -6.2840   -4.7606    1.3936 C   0  0  0  0  0  0  0  0  0  0  0  0
   -7.2216   -4.2751    0.7884 O   0  0  0  0  0  0  0  0  0  0  0  0
   -6.4157   -6.0850    2.0096 C   0  0  0  0  0  0  0  0  0  0  0  0
   -7.5279   -6.8766    1.9802 C   0  0  0  0  0  0  0  0  0  0  0  0
   -7.2102   -8.0453    2.6897 C   0  0  0  0  0  0  0  0  0  0  0  0
   -5.9343   -7.9175    3.1158 C   0  0  0  0  0  0  0  0  0  0  0  0
   -5.4573   -6.7372    2.6997 O   0  0  0  0  0  0  0  0  0  0  0  0
    7.0737   -0.9742   -3.4647 H   0  0  0  0  0  0  0  0  0  0  0  0
    7.0064   -0.0615   -1.9195 H   0  0  0  0  0  0  0  0  0  0  0  0
    8.1148    0.4697   -3.2286 H   0  0  0  0  0  0  0  0  0  0  0  0
    6.0887    1.9143   -3.1261 H   0  0  0  0  0  0  0  0  0  0  0  0
    6.1554    1.0020   -4.6721 H   0  0  0  0  0  0  0  0  0  0  0  0
    4.9080   -1.1616   -4.7707 H   0  0  0  0  0  0  0  0  0  0  0  0
    3.4857   -1.3352   -3.6872 H   0  0  0  0  0  0  0  0  0  0  0  0
    3.8844    0.8669   -5.7891 H   0  0  0  0  0  0  0  0  0  0  0  0
    2.4628    0.6940   -4.7053 H   0  0  0  0  0  0  0  0  0  0  0  0
    2.8004   -0.5556   -5.9497 H   0  0  0  0  0  0  0  0  0  0  0  0
    1.3225    2.6251   -0.8829 H   0  0  0  0  0  0  0  0  0  0  0  0
    1.3360    2.6015    0.9132 H   0  0  0  0  0  0  0  0  0  0  0  0
   -1.2059    2.8930    0.1027 H   0  0  0  0  0  0  0  0  0  0  0  0
   -3.3766    2.7028   -1.2256 H   0  0  0  0  0  0  0  0  0  0  0  0
   -5.5005    1.4417   -1.4312 H   0  0  0  0  0  0  0  0  0  0  0  0
   -5.7278   -0.7951   -0.3883 H   0  0  0  0  0  0  0  0  0  0  0  0
   -1.6581   -0.5317    1.0444 H   0  0  0  0  0  0  0  0  0  0  0  0
   -5.7924   -2.4052    0.3970 H   0  0  0  0  0  0  0  0  0  0  0  0
   -4.3312   -4.4921    2.0099 H   0  0  0  0  0  0  0  0  0  0  0  0
   -8.4870   -6.6436    1.4946 H   0  0  0  0  0  0  0  0  0  0  0  0
   -7.8750   -8.9039    2.8658 H   0  0  0  0  0  0  0  0  0  0  0  0
   -5.3789   -8.6605    3.7070 H   0  0  0  0  0  0  0  0  0  0  0  0
  1  2  1  0  0  0  0
  2  3  1  0  0  0  0
  3  4  1  0  0  0  0
  3  6  1  0  0  0  0
  4  5  1  0  0  0  0
  6 11  1  0  0  0  0
  6  7  2  0  0  0  0
  7  8  1  0  0  0  0
  8  9  2  0  0  0  0
  8 10  1  0  0  0  0
 10 11  1  0  0  0  0
 10 12  1  0  0  0  0
 12 13  1  0  0  0  0
 13 14  2  0  0  0  0
 13 15  1  0  0  0  0
 15 16  1  0  0  0  0
 16 21  2  0  0  0  0
 16 17  1  0  0  0  0
 17 18  2  0  0  0  0
 18 19  1  0  0  0  0
 19 20  2  0  0  0  0
 20 21  1  0  0  0  0
 20 22  1  0  0  0  0
 22 23  2  0  0  0  0
 22 24  1  0  0  0  0
 24 25  1  0  0  0  0
 25 26  1  0  0  0  0
 26 27  2  0  0  0  0
 26 28  1  0  0  0  0
 28 32  1  0  0  0  0
 28 29  2  0  0  0  0
 29 30  1  0  0  0  0
 30 31  2  0  0  0  0
 31 32  1  0  0  0  0
  1 33  1  0  0  0  0
  1 34  1  0  0  0  0
  1 35  1  0  0  0  0
  2 36  1  0  0  0  0
  2 37  1  0  0  0  0
  4 38  1  0  0  0  0
  4 39  1  0  0  0  0
  5 40  1  0  0  0  0
  5 41  1  0  0  0  0
  5 42  1  0  0  0  0
 12 43  1  0  0  0  0
 12 44  1  0  0  0  0
 15 45  1  0  0  0  0
 17 46  1  0  0  0  0
 18 47  1  0  0  0  0
 19 48  1  0  0  0  0
 21 49  1  0  0  0  0
 24 50  1  0  0  0  0
 25 51  1  0  0  0  0
 29 52  1  0  0  0  0
 30 53  1  0  0  0  0
 31 54  1  0  0  0  0
M  CHG  1  10  -1
M  END
> <Name>
ZINC17255921

> <reference>
BDB4972

> <quality>
0.751

> <status>
decoy

$$$$
ZINC02905111
  SciTegic06141217593D

 47 48  0  0  1  0            999 V2000
   -0.0547    1.0369    2.4351 C   0  0  0  0  0  0  0  0  0  0  0  0
   -2.1020    1.3022    1.1758 C   0  0  0  0  0  0  0  0  0  0  0  0
   -2.7438    2.1714    0.0914 C   0  0  0  0  0  0  0  0  0  0  0  0
   -1.9408    2.0762   -1.1758 C   0  0  0  0  0  0  0  0  0  0  0  0
   -0.7167    1.6143   -1.2054 C   0  0  0  0  0  0  0  0  0  0  0  0
    0.0065    1.1265    0.0168 C   0  0  0  0  0  0  0  0  0  0  0  0
   -2.5223    2.4967   -2.3652 N   0  0  0  0  0  0  0  0  0  0  0  0
   -1.7656    2.5228   -3.5440 N   0  0  0  0  0  0  0  0  0  0  0  0
   -2.2981    3.0255   -4.6756 C   0  0  0  0  0  0  0  0  0  0  0  0
   -3.4330    3.4554   -4.6733 O   0  0  0  0  0  0  0  0  0  0  0  0
   -1.4915    3.0534   -5.9320 C   0  0  0  0  0  0  0  0  0  0  0  0
   -0.3564    2.6234   -5.9343 O   0  0  0  0  0  0  0  0  0  0  0  0
   -2.0240    3.5560   -7.0636 N   0  0  0  0  0  0  0  0  0  0  0  0
   -1.3041    3.4975   -8.2613 C   0  0  0  0  0  0  0  0  0  0  0  0
    0.0776    3.6268   -8.2491 C   0  0  0  0  0  0  0  0  0  0  0  0
    0.7884    3.5636   -9.4371 C   0  0  0  0  0  0  0  0  0  0  0  0
    0.1190    3.3818  -10.6388 C   0  0  0  0  0  0  0  0  0  0  0  0
   -1.2576    3.2579  -10.6545 C   0  0  0  0  0  0  0  0  0  0  0  0
   -1.9732    3.3150   -9.4699 C   0  0  0  0  0  0  0  0  0  0  0  0
   -3.3280    3.1925   -9.4863 O   0  0  0  0  0  0  0  0  0  0  0  0
   -3.9473    3.0077  -10.7608 C   0  0  0  0  0  0  0  0  0  0  0  0
    2.1427    3.6851   -9.4256 O   0  0  0  0  0  0  0  0  0  0  0  0
    2.8110    3.6160  -10.6869 C   0  0  0  0  0  0  0  0  0  0  0  0
   -0.6659    1.6338    1.2287 N   0  3  0  0  0  0  0  0  0  0  0  0
   -0.1775   -0.0557    2.4026 H   0  0  0  0  0  0  0  0  0  0  0  0
   -0.5554    1.4332    3.3308 H   0  0  0  0  0  0  0  0  0  0  0  0
    1.0160    1.2864    2.4709 H   0  0  0  0  0  0  0  0  0  0  0  0
   -2.2275    0.2392    0.9224 H   0  0  0  0  0  0  0  0  0  0  0  0
   -2.5683    1.5186    2.1483 H   0  0  0  0  0  0  0  0  0  0  0  0
   -3.7694    1.8220   -0.0987 H   0  0  0  0  0  0  0  0  0  0  0  0
   -2.7716    3.2181    0.4285 H   0  0  0  0  0  0  0  0  0  0  0  0
   -0.1925    1.5818   -2.1719 H   0  0  0  0  0  0  0  0  0  0  0  0
    1.0454    1.4875   -0.0027 H   0  0  0  0  0  0  0  0  0  0  0  0
    0.0027    0.0266    0.0300 H   0  0  0  0  0  0  0  0  0  0  0  0
   -3.5097    2.7893   -2.3805 H   0  0  0  0  0  0  0  0  0  0  0  0
   -0.8024    2.1579   -3.5459 H   0  0  0  0  0  0  0  0  0  0  0  0
   -2.9611    3.9832   -7.0463 H   0  0  0  0  0  0  0  0  0  0  0  0
    0.6080    3.7793   -7.2976 H   0  0  0  0  0  0  0  0  0  0  0  0
    0.6850    3.3362  -11.5809 H   0  0  0  0  0  0  0  0  0  0  0  0
   -1.7854    3.1138  -11.6088 H   0  0  0  0  0  0  0  0  0  0  0  0
   -3.4924    2.1066  -11.1979 H   0  0  0  0  0  0  0  0  0  0  0  0
   -3.6495    3.8688  -11.3771 H   0  0  0  0  0  0  0  0  0  0  0  0
   -5.0415    2.9170  -10.6931 H   0  0  0  0  0  0  0  0  0  0  0  0
    2.3769    4.4111  -11.3109 H   0  0  0  0  0  0  0  0  0  0  0  0
    2.5334    2.6488  -11.1314 H   0  0  0  0  0  0  0  0  0  0  0  0
    3.9021    3.7221  -10.5967 H   0  0  0  0  0  0  0  0  0  0  0  0
   -0.5557    2.6570    1.2718 H   0  0  0  0  0  0  0  0  0  0  0  0
  1 24  1  0  0  0  0
  2  3  1  0  0  0  0
  2 24  1  0  0  0  0
  3  4  1  0  0  0  0
  4  5  2  0  0  0  0
  4  7  1  0  0  0  0
  5  6  1  0  0  0  0
  6 24  1  0  0  0  0
  7  8  1  0  0  0  0
  8  9  1  0  0  0  0
  9 10  2  0  0  0  0
  9 11  1  0  0  0  0
 11 12  2  0  0  0  0
 11 13  1  0  0  0  0
 13 14  1  0  0  0  0
 14 19  2  0  0  0  0
 14 15  1  0  0  0  0
 15 16  2  0  0  0  0
 16 17  1  0  0  0  0
 16 22  1  0  0  0  0
 17 18  2  0  0  0  0
 18 19  1  0  0  0  0
 19 20  1  0  0  0  0
 20 21  1  0  0  0  0
 22 23  1  0  0  0  0
  1 25  1  0  0  0  0
  1 26  1  0  0  0  0
  1 27  1  0  0  0  0
  2 28  1  0  0  0  0
  2 29  1  0  0  0  0
  3 30  1  0  0  0  0
  3 31  1  0  0  0  0
  5 32  1  0  0  0  0
  6 33  1  0  0  0  0
  6 34  1  0  0  0  0
  7 35  1  0  0  0  0
  8 36  1  0  0  0  0
 13 37  1  0  0  0  0
 15 38  1  0  0  0  0
 17 39  1  0  0  0  0
 18 40  1  0  0  0  0
 21 41  1  0  0  0  0
 21 42  1  0  0  0  0
 21 43  1  0  0  0  0
 23 44  1  0  0  0  0
 23 45  1  0  0  0  0
 23 46  1  0  0  0  0
 24 47  1  0  0  0  0
M  CHG  1  24   1
M  END
> <Name>
ZINC02905111

> <reference>
BDB5200

> <quality>
0.785

> <status>
decoy

$$$$
ZINC15084765
  SciTegic06141217593D

 52 54  0  0  1  0            999 V2000
    4.7332   -5.5652   -2.0198 C   0  0  0  0  0  0  0  0  0  0  0  0
    4.4003   -4.1701   -2.5526 C   0  0  0  0  0  0  0  0  0  0  0  0
    3.5421   -3.4821   -1.6047 O   0  0  0  0  0  0  0  0  0  0  0  0
    3.1543   -2.2322   -1.9259 C   0  0  0  0  0  0  0  0  0  0  0  0
    3.5231   -1.7311   -2.9692 O   0  0  0  0  0  0  0  0  0  0  0  0
    2.2823   -1.4726   -1.0108 C   0  0  0  0  0  0  0  0  0  0  0  0
    1.8256   -1.8924    0.1210 N   0  0  0  0  0  0  0  0  0  0  0  0
    1.0082   -0.9394    0.7722 O   0  0  0  0  0  0  0  0  0  0  0  0
    1.2716    0.3441    0.1696 C   0  0  1  0  0  0  0  0  0  0  0  0
    1.7680   -0.0638   -1.2380 C   0  0  0  0  0  0  0  0  0  0  0  0
   -0.0072    1.1792    0.0787 C   0  0  0  0  0  0  0  0  0  0  0  0
   -0.3722    1.6897    1.4488 C   0  0  0  0  0  0  0  0  0  0  0  0
   -1.2615    0.9673    2.2505 C   0  0  0  0  0  0  0  0  0  0  0  0
   -1.5967    1.4460    3.5228 C   0  0  0  0  0  0  0  0  0  0  0  0
   -1.0456    2.6342    3.9825 C   0  0  0  0  0  0  0  0  0  0  0  0
   -0.1619    3.3474    3.1796 C   0  0  0  0  0  0  0  0  0  0  0  0
    0.1759    2.8686    1.9158 C   0  0  0  0  0  0  0  0  0  0  0  0
    1.0450    3.5674    1.1363 O   0  0  0  0  0  0  0  0  0  0  0  0
    0.5012    4.6289    0.3491 C   0  0  0  0  0  0  0  0  0  0  0  0
    0.2341    4.4674    3.8542 O   0  0  0  0  0  0  0  0  0  0  0  0
   -0.0964    4.2223    5.2339 C   0  0  0  0  0  0  0  0  0  0  0  0
   -1.2046    3.3060    5.1618 O   0  0  0  0  0  0  0  0  0  0  0  0
   -2.4606    0.7478    4.3072 O   0  0  0  0  0  0  0  0  0  0  0  0
   -1.8898   -0.1513    5.2601 C   0  0  0  0  0  0  0  0  0  0  0  0
   -1.8435   -0.2936    1.7582 C   0  0  0  0  0  0  0  0  0  0  0  0
   -3.1325   -0.4363    1.7053 N   0  0  0  0  0  0  0  0  0  0  0  0
   -3.9705    0.6100    2.1124 N   0  0  0  0  0  0  0  0  0  0  0  0
   -5.3052    0.4274    2.1536 C   0  0  0  0  0  0  0  0  0  0  0  0
   -6.0387    1.3605    2.4184 O   0  0  0  0  0  0  0  0  0  0  0  0
   -5.8269   -0.7894    1.9013 N   0  0  0  0  0  0  0  0  0  0  0  0
    3.8042   -6.1384   -1.8843 H   0  0  0  0  0  0  0  0  0  0  0  0
    5.2523   -5.4758   -1.0541 H   0  0  0  0  0  0  0  0  0  0  0  0
    5.3834   -6.0870   -2.7375 H   0  0  0  0  0  0  0  0  0  0  0  0
    5.3298   -3.5975   -2.6875 H   0  0  0  0  0  0  0  0  0  0  0  0
    3.8812   -4.2594   -3.5183 H   0  0  0  0  0  0  0  0  0  0  0  0
    1.9841    0.9648    0.7326 H   0  0  0  0  0  0  0  0  0  0  0  0
    2.5879    0.5958   -1.5584 H   0  0  0  0  0  0  0  0  0  0  0  0
    0.9292   -0.0718   -1.9496 H   0  0  0  0  0  0  0  0  0  0  0  0
   -0.8264    0.5563   -0.3099 H   0  0  0  0  0  0  0  0  0  0  0  0
    0.1583    2.0310   -0.5973 H   0  0  0  0  0  0  0  0  0  0  0  0
    0.0076    5.3146    1.0534 H   0  0  0  0  0  0  0  0  0  0  0  0
   -0.2771    4.1773   -0.2836 H   0  0  0  0  0  0  0  0  0  0  0  0
    1.2631    5.1458   -0.2528 H   0  0  0  0  0  0  0  0  0  0  0  0
   -0.4078    5.1569    5.7233 H   0  0  0  0  0  0  0  0  0  0  0  0
    0.7528    3.7514    5.7507 H   0  0  0  0  0  0  0  0  0  0  0  0
   -1.2243    0.4523    5.8947 H   0  0  0  0  0  0  0  0  0  0  0  0
   -1.2653   -0.8530    4.6877 H   0  0  0  0  0  0  0  0  0  0  0  0
   -2.6495   -0.6784    5.8559 H   0  0  0  0  0  0  0  0  0  0  0  0
   -1.1856   -1.1140    1.4355 H   0  0  0  0  0  0  0  0  0  0  0  0
   -3.5666    1.5188    2.3802 H   0  0  0  0  0  0  0  0  0  0  0  0
   -5.2057   -1.5797    1.6770 H   0  0  0  0  0  0  0  0  0  0  0  0
   -6.8469   -0.9290    1.9328 H   0  0  0  0  0  0  0  0  0  0  0  0
  1  2  1  0  0  0  0
  2  3  1  0  0  0  0
  3  4  1  0  0  0  0
  4  5  2  0  0  0  0
  4  6  1  0  0  0  0
  6 10  1  0  0  0  0
  6  7  2  0  0  0  0
  7  8  1  0  0  0  0
  8  9  1  0  0  0  0
  9 10  1  0  0  0  0
  9 11  1  0  0  0  0
 11 12  1  0  0  0  0
 12 17  2  0  0  0  0
 12 13  1  0  0  0  0
 13 14  2  0  0  0  0
 13 25  1  0  0  0  0
 14 15  1  0  0  0  0
 14 23  1  0  0  0  0
 15 22  1  0  0  0  0
 15 16  2  0  0  0  0
 16 17  1  0  0  0  0
 16 20  1  0  0  0  0
 17 18  1  0  0  0  0
 18 19  1  0  0  0  0
 20 21  1  0  0  0  0
 21 22  1  0  0  0  0
 23 24  1  0  0  0  0
 25 26  2  0  0  0  0
 26 27  1  0  0  0  0
 27 28  1  0  0  0  0
 28 29  2  0  0  0  0
 28 30  1  0  0  0  0
  1 31  1  0  0  0  0
  1 32  1  0  0  0  0
  1 33  1  0  0  0  0
  2 34  1  0  0  0  0
  2 35  1  0  0  0  0
  9 36  1  0  0  0  0
 10 37  1  0  0  0  0
 10 38  1  0  0  0  0
 11 39  1  0  0  0  0
 11 40  1  0  0  0  0
 19 41  1  0  0  0  0
 19 42  1  0  0  0  0
 19 43  1  0  0  0  0
 21 44  1  0  0  0  0
 21 45  1  0  0  0  0
 24 46  1  0  0  0  0
 24 47  1  0  0  0  0
 24 48  1  0  0  0  0
 25 49  1  0  0  0  0
 27 50  1  0  0  0  0
 30 51  1  0  0  0  0
 30 52  1  0  0  0  0
M  END
> <Name>
ZINC15084765

> <reference>
BDB4965

> <quality>
0.659

> <status>
decoy

$$$$
ZINC29484918
  SciTegic06141217593D

 37 38  0  0  0  0            999 V2000
    1.7898   -8.1643    3.5685 C   0  0  0  0  0  0  0  0  0  0  0  0
    0.9221   -8.0210    2.4422 O   0  0  0  0  0  0  0  0  0  0  0  0
    1.4112   -8.6376    1.2495 C   0  0  0  0  0  0  0  0  0  0  0  0
    0.4072   -8.4222    0.1154 C   0  0  0  0  0  0  0  0  0  0  0  0
    0.3200   -6.9930   -0.1948 N   0  3  0  0  0  0  0  0  0  0  0  0
    0.7221   -6.5517   -1.3544 C   0  0  0  0  0  0  0  0  0  0  0  0
    1.1546   -7.4365   -2.3149 N   0  0  0  0  0  0  0  0  0  0  0  0
    0.7114   -4.8221   -1.6908 S   0  0  0  0  0  0  0  0  0  0  0  0
    0.0687   -4.1999   -0.1173 C   0  0  0  0  0  0  0  0  0  0  0  0
   -0.0295   -2.6972   -0.1738 C   0  0  0  0  0  0  0  0  0  0  0  0
   -1.2624   -2.0911   -0.3166 C   0  0  0  0  0  0  0  0  0  0  0  0
   -1.3282   -0.6939   -0.3666 C   0  0  0  0  0  0  0  0  0  0  0  0
   -2.4026   -0.1278   -0.4926 O   0  0  0  0  0  0  0  0  0  0  0  0
   -0.1848    0.0181   -0.2736 N   0  0  0  0  0  0  0  0  0  0  0  0
   -0.2324    1.3783   -0.3205 C   0  0  0  0  0  0  0  0  0  0  0  0
    0.8989    2.1130   -0.2295 C   0  0  0  0  0  0  0  0  0  0  0  0
    2.1408    1.4786   -0.0855 C   0  0  0  0  0  0  0  0  0  0  0  0
    2.1992    0.1180   -0.0365 C   0  0  0  0  0  0  0  0  0  0  0  0
    1.0110   -0.6292   -0.1328 C   0  0  0  0  0  0  0  0  0  0  0  0
    1.0660   -1.9591   -0.0861 N   0  0  0  0  0  0  0  0  0  0  0  0
    2.7606   -7.7239    3.2973 H   0  0  0  0  0  0  0  0  0  0  0  0
    1.9326   -9.2411    3.7421 H   0  0  0  0  0  0  0  0  0  0  0  0
    1.3753   -7.6759    4.4628 H   0  0  0  0  0  0  0  0  0  0  0  0
    1.5439   -9.7160    1.4208 H   0  0  0  0  0  0  0  0  0  0  0  0
    2.3768   -8.1886    0.9738 H   0  0  0  0  0  0  0  0  0  0  0  0
   -0.5820   -8.7905    0.4251 H   0  0  0  0  0  0  0  0  0  0  0  0
    0.7397   -8.9711   -0.7780 H   0  0  0  0  0  0  0  0  0  0  0  0
   -0.0588   -6.3367    0.5028 H   0  0  0  0  0  0  0  0  0  0  0  0
    1.1609   -8.4475   -2.1183 H   0  0  0  0  0  0  0  0  0  0  0  0
    1.4721   -7.0880   -3.2306 H   0  0  0  0  0  0  0  0  0  0  0  0
   -0.9291   -4.6254    0.0653 H   0  0  0  0  0  0  0  0  0  0  0  0
    0.7468   -4.4919    0.6981 H   0  0  0  0  0  0  0  0  0  0  0  0
   -2.1778   -2.6967   -0.3898 H   0  0  0  0  0  0  0  0  0  0  0  0
   -1.2022    1.8849   -0.4337 H   0  0  0  0  0  0  0  0  0  0  0  0
    0.8448    3.2110   -0.2685 H   0  0  0  0  0  0  0  0  0  0  0  0
    3.0621    2.0752   -0.0125 H   0  0  0  0  0  0  0  0  0  0  0  0
    3.1672   -0.3918    0.0774 H   0  0  0  0  0  0  0  0  0  0  0  0
  1  2  1  0  0  0  0
  2  3  1  0  0  0  0
  3  4  1  0  0  0  0
  4  5  1  0  0  0  0
  5  6  2  0  0  0  0
  6  7  1  0  0  0  0
  6  8  1  0  0  0  0
  8  9  1  0  0  0  0
  9 10  1  0  0  0  0
 10 20  1  0  0  0  0
 10 11  2  0  0  0  0
 11 12  1  0  0  0  0
 12 13  2  0  0  0  0
 12 14  1  0  0  0  0
 14 19  1  0  0  0  0
 14 15  1  0  0  0  0
 15 16  2  0  0  0  0
 16 17  1  0  0  0  0
 17 18  2  0  0  0  0
 18 19  1  0  0  0  0
 19 20  2  0  0  0  0
  1 21  1  0  0  0  0
  1 22  1  0  0  0  0
  1 23  1  0  0  0  0
  3 24  1  0  0  0  0
  3 25  1  0  0  0  0
  4 26  1  0  0  0  0
  4 27  1  0  0  0  0
  5 28  1  0  0  0  0
  7 29  1  0  0  0  0
  7 30  1  0  0  0  0
  9 31  1  0  0  0  0
  9 32  1  0  0  0  0
 11 33  1  0  0  0  0
 15 34  1  0  0  0  0
 16 35  1  0  0  0  0
 17 36  1  0  0  0  0
 18 37  1  0  0  0  0
M  CHG  1   5   1
M  END
> <Name>
ZINC29484918

> <reference>
BDB5204

> <quality>
0.807

> <status>
decoy

$$$$
ZINC05835556
  SciTegic06141217593D

 40 41  0  0  1  0            999 V2000
    5.7528    1.8803    3.9092 C   0  0  0  0  0  0  0  0  0  0  0  0
    4.4535    1.3823    3.2730 C   0  0  0  0  0  0  0  0  0  0  0  0
    3.6294    0.6291    4.3192 C   0  0  0  0  0  0  0  0  0  0  0  0
    2.3964    0.1564    3.7155 O   0  0  0  0  0  0  0  0  0  0  0  0
    1.5547   -0.5288    4.5053 C   0  0  0  0  0  0  0  0  0  0  0  0
    1.8389   -0.7271    5.6628 O   0  0  0  0  0  0  0  0  0  0  0  0
    0.2554   -1.0508    3.9483 C   0  0  2  0  0  0  0  0  0  0  0  0
   -0.5324   -2.0861    4.7512 C   0  0  0  0  0  0  0  0  0  0  0  0
    0.1478   -2.4908    3.4132 C   0  0  1  0  0  0  0  0  0  0  0  0
   -0.6792   -2.3751    2.1109 C   0  0  0  0  0  0  0  0  0  0  0  0
   -1.4661   -1.0479    2.3318 C   0  0  0  0  0  0  0  0  0  0  0  0
   -0.4690   -0.1826    3.0030 N   0  0  0  0  0  0  0  0  0  0  0  0
   -0.2686    1.1339    2.7955 C   0  0  0  0  0  0  0  0  0  0  0  0
    0.5161    1.7447    3.4899 O   0  0  0  0  0  0  0  0  0  0  0  0
   -1.0195    1.8471    1.7007 C   0  0  2  0  0  0  0  0  0  0  0  0
   -0.3441    1.5713    0.3558 C   0  0  0  0  0  0  0  0  0  0  0  0
   -1.1631    2.1817   -0.7521 C   0  0  0  0  0  0  0  0  0  0  0  0
   -2.1824    2.7763   -0.4928 O   0  0  0  0  0  0  0  0  0  0  0  0
   -0.7602    2.0648   -2.0272 O   0  5  0  0  0  0  0  0  0  0  0  0
   -1.0248    3.2925    1.9870 N   0  3  0  0  0  0  0  0  0  0  0  0
    6.3316    1.0227    4.2828 H   0  0  0  0  0  0  0  0  0  0  0  0
    5.5177    2.5554    4.7452 H   0  0  0  0  0  0  0  0  0  0  0  0
    6.3458    2.4219    3.1576 H   0  0  0  0  0  0  0  0  0  0  0  0
    3.8753    2.2405    2.8999 H   0  0  0  0  0  0  0  0  0  0  0  0
    4.6885    0.7072    2.4370 H   0  0  0  0  0  0  0  0  0  0  0  0
    4.2070   -0.2295    4.6925 H   0  0  0  0  0  0  0  0  0  0  0  0
    3.3924    1.3031    5.1556 H   0  0  0  0  0  0  0  0  0  0  0  0
   -1.6175   -1.9594    4.6230 H   0  0  0  0  0  0  0  0  0  0  0  0
    0.0417   -2.4514    5.6155 H   0  0  0  0  0  0  0  0  0  0  0  0
    0.7679   -3.3638    3.1614 H   0  0  0  0  0  0  0  0  0  0  0  0
   -1.3765   -3.2213    2.0232 H   0  0  0  0  0  0  0  0  0  0  0  0
   -0.0120   -2.2824    1.2413 H   0  0  0  0  0  0  0  0  0  0  0  0
   -1.7592   -0.6145    1.3642 H   0  0  0  0  0  0  0  0  0  0  0  0
   -2.3281   -1.2217    2.9927 H   0  0  0  0  0  0  0  0  0  0  0  0
   -2.0569    1.4842    1.6544 H   0  0  0  0  0  0  0  0  0  0  0  0
   -0.2675    0.4853    0.1986 H   0  0  0  0  0  0  0  0  0  0  0  0
    0.6628    2.0141    0.3534 H   0  0  0  0  0  0  0  0  0  0  0  0
   -0.0573    3.6438    2.0232 H   0  0  0  0  0  0  0  0  0  0  0  0
   -1.4889    3.4669    2.8898 H   0  0  0  0  0  0  0  0  0  0  0  0
   -1.5371    3.7849    1.2413 H   0  0  0  0  0  0  0  0  0  0  0  0
  1  2  1  0  0  0  0
  2  3  1  0  0  0  0
  3  4  1  0  0  0  0
  4  5  1  0  0  0  0
  5  6  2  0  0  0  0
  5  7  1  0  0  0  0
  7  9  1  0  0  0  0
  7 12  1  0  0  0  0
  7  8  1  0  0  0  0
  8  9  1  0  0  0  0
  9 10  1  0  0  0  0
 10 11  1  0  0  0  0
 11 12  1  0  0  0  0
 12 13  1  0  0  0  0
 13 14  2  0  0  0  0
 13 15  1  0  0  0  0
 15 16  1  0  0  0  0
 15 20  1  0  0  0  0
 16 17  1  0  0  0  0
 17 18  2  0  0  0  0
 17 19  1  0  0  0  0
  1 21  1  0  0  0  0
  1 22  1  0  0  0  0
  1 23  1  0  0  0  0
  2 24  1  0  0  0  0
  2 25  1  0  0  0  0
  3 26  1  0  0  0  0
  3 27  1  0  0  0  0
  8 28  1  0  0  0  0
  8 29  1  0  0  0  0
  9 30  1  0  0  0  0
 10 31  1  0  0  0  0
 10 32  1  0  0  0  0
 11 33  1  0  0  0  0
 11 34  1  0  0  0  0
 15 35  1  0  0  0  0
 16 36  1  0  0  0  0
 16 37  1  0  0  0  0
 20 38  1  0  0  0  0
 20 39  1  0  0  0  0
 20 40  1  0  0  0  0
M  CHG  2  19  -1  20   1
M  END
> <Name>
ZINC05835556

> <reference>
BDB5195

> <quality>
0.827

> <status>
decoy

$$$$
ZINC28887676
  SciTegic06141217593D

 56 59  0  0  1  0            999 V2000
    1.9336    7.9975   -0.6560 C   0  0  0  0  0  0  0  0  0  0  0  0
    2.9359    6.9954   -0.4734 O   0  0  0  0  0  0  0  0  0  0  0  0
    3.1816    6.5932    0.8024 C   0  0  0  0  0  0  0  0  0  0  0  0
    2.4741    7.1508    1.8545 C   0  0  0  0  0  0  0  0  0  0  0  0
    2.7250    6.7409    3.1512 C   0  0  0  0  0  0  0  0  0  0  0  0
    3.6816    5.7747    3.4019 C   0  0  0  0  0  0  0  0  0  0  0  0
    4.3883    5.2095    2.3570 C   0  0  0  0  0  0  0  0  0  0  0  0
    4.1457    5.6196    1.0542 C   0  0  0  0  0  0  0  0  0  0  0  0
    4.8637    5.0526   -0.0051 N   0  5  0  0  0  0  0  0  0  0  0  0
    5.2892    3.4530    0.0454 S   0  0  0  0  0  0  0  0  0  0  0  0
    5.9753    3.2539    1.2738 O   0  0  0  0  0  0  0  0  0  0  0  0
    5.8757    3.1488   -1.2126 O   0  0  0  0  0  0  0  0  0  0  0  0
    3.7978    2.5200    0.1446 C   0  0  0  0  0  0  0  0  0  0  0  0
    3.1661    2.1043   -1.0131 C   0  0  0  0  0  0  0  0  0  0  0  0
    1.9955    1.3724   -0.9416 C   0  0  0  0  0  0  0  0  0  0  0  0
    1.4518    1.0534    0.2923 C   0  0  0  0  0  0  0  0  0  0  0  0
    2.0848    1.4764    1.4588 C   0  0  0  0  0  0  0  0  0  0  0  0
    3.2620    2.2060    1.3792 C   0  0  0  0  0  0  0  0  0  0  0  0
    1.5366    1.1617    2.7093 N   0  0  0  0  0  0  0  0  0  0  0  0
    2.3298    1.1029    3.7973 C   0  0  0  0  0  0  0  0  0  0  0  0
    3.5311    1.2218    3.6792 O   0  0  0  0  0  0  0  0  0  0  0  0
    1.7242    0.8893    5.1607 C   0  0  1  0  0  0  0  0  0  0  0  0
    0.9825   -0.4657    5.2306 C   0  0  0  0  0  0  0  0  0  0  0  0
    1.2608   -0.9692    6.6298 C   0  0  0  0  0  0  0  0  0  0  0  0
    0.6441   -1.8534    7.1854 O   0  0  0  0  0  0  0  0  0  0  0  0
    2.2916   -0.2944    7.1674 N   0  0  0  0  0  0  0  0  0  0  0  0
    2.8228    0.7027    6.2306 C   0  0  0  0  0  0  0  0  0  0  0  0
    2.8176   -0.5249    8.5152 C   0  0  0  0  0  0  0  0  0  0  0  0
    3.9180   -1.5864    8.4585 C   0  0  2  0  0  0  0  0  0  0  0  0
    3.6705   -2.9009    9.2014 C   0  0  0  0  0  0  0  0  0  0  0  0
    4.6765   -1.8874    9.7527 C   0  0  0  0  0  0  0  0  0  0  0  0
    0.3002    0.3340    0.3642 O   0  0  0  0  0  0  0  0  0  0  0  0
    2.2474    8.8623   -0.0530 H   0  0  0  0  0  0  0  0  0  0  0  0
    1.0100    7.5953   -0.2141 H   0  0  0  0  0  0  0  0  0  0  0  0
    1.7920    8.2701   -1.7122 H   0  0  0  0  0  0  0  0  0  0  0  0
    1.7124    7.9199    1.6586 H   0  0  0  0  0  0  0  0  0  0  0  0
    2.1620    7.1848    3.9854 H   0  0  0  0  0  0  0  0  0  0  0  0
    3.8808    5.4550    4.4354 H   0  0  0  0  0  0  0  0  0  0  0  0
    5.1428    4.4348    2.5585 H   0  0  0  0  0  0  0  0  0  0  0  0
    3.5962    2.3567   -1.9936 H   0  0  0  0  0  0  0  0  0  0  0  0
    1.4956    1.0432   -1.8645 H   0  0  0  0  0  0  0  0  0  0  0  0
    3.7689    2.5345    2.2985 H   0  0  0  0  0  0  0  0  0  0  0  0
    0.5274    0.9753    2.7970 H   0  0  0  0  0  0  0  0  0  0  0  0
    1.0775    1.7627    5.3311 H   0  0  0  0  0  0  0  0  0  0  0  0
    1.3968   -1.1634    4.4879 H   0  0  0  0  0  0  0  0  0  0  0  0
   -0.0979   -0.3130    5.0910 H   0  0  0  0  0  0  0  0  0  0  0  0
    3.0028    1.6530    6.7545 H   0  0  0  0  0  0  0  0  0  0  0  0
    3.7434    0.3255    5.7612 H   0  0  0  0  0  0  0  0  0  0  0  0
    2.0067   -0.8731    9.1719 H   0  0  0  0  0  0  0  0  0  0  0  0
    3.2336    0.4129    8.9120 H   0  0  0  0  0  0  0  0  0  0  0  0
    4.2068   -1.3149    7.4324 H   0  0  0  0  0  0  0  0  0  0  0  0
    4.1774   -3.7442    8.7096 H   0  0  0  0  0  0  0  0  0  0  0  0
    2.7246   -2.8750    9.7623 H   0  0  0  0  0  0  0  0  0  0  0  0
    4.2598   -1.3292   10.6041 H   0  0  0  0  0  0  0  0  0  0  0  0
    5.7123   -2.1974    9.5501 H   0  0  0  0  0  0  0  0  0  0  0  0
    0.4872   -0.4968   -0.1406 H   0  0  0  0  0  0  0  0  0  0  0  0
  1  2  1  0  0  0  0
  2  3  1  0  0  0  0
  3  8  2  0  0  0  0
  3  4  1  0  0  0  0
  4  5  2  0  0  0  0
  5  6  1  0  0  0  0
  6  7  2  0  0  0  0
  7  8  1  0  0  0  0
  8  9  1  0  0  0  0
  9 10  1  0  0  0  0
 10 11  2  0  0  0  0
 10 12  2  0  0  0  0
 10 13  1  0  0  0  0
 13 18  2  0  0  0  0
 13 14  1  0  0  0  0
 14 15  2  0  0  0  0
 15 16  1  0  0  0  0
 16 17  2  0  0  0  0
 16 32  1  0  0  0  0
 17 18  1  0  0  0  0
 17 19  1  0  0  0  0
 19 20  1  0  0  0  0
 20 21  2  0  0  0  0
 20 22  1  0  0  0  0
 22 27  1  0  0  0  0
 22 23  1  0  0  0  0
 23 24  1  0  0  0  0
 24 25  2  0  0  0  0
 24 26  1  0  0  0  0
 26 27  1  0  0  0  0
 26 28  1  0  0  0  0
 28 29  1  0  0  0  0
 29 31  1  0  0  0  0
 29 30  1  0  0  0  0
 30 31  1  0  0  0  0
  1 33  1  0  0  0  0
  1 34  1  0  0  0  0
  1 35  1  0  0  0  0
  4 36  1  0  0  0  0
  5 37  1  0  0  0  0
  6 38  1  0  0  0  0
  7 39  1  0  0  0  0
 14 40  1  0  0  0  0
 15 41  1  0  0  0  0
 18 42  1  0  0  0  0
 19 43  1  0  0  0  0
 22 44  1  0  0  0  0
 23 45  1  0  0  0  0
 23 46  1  0  0  0  0
 27 47  1  0  0  0  0
 27 48  1  0  0  0  0
 28 49  1  0  0  0  0
 28 50  1  0  0  0  0
 29 51  1  0  0  0  0
 30 52  1  0  0  0  0
 30 53  1  0  0  0  0
 31 54  1  0  0  0  0
 31 55  1  0  0  0  0
 32 56  1  0  0  0  0
M  CHG  1   9  -1
M  END
> <Name>
ZINC28887676

> <reference>
BDB4968

> <quality>
0.761

> <status>
decoy

$$$$
ZINC20188385
  SciTegic06141217593D

 39 40  0  0  0  0            999 V2000
   -0.0515    0.1687    0.6110 C   0  0  0  0  0  0  0  0  0  0  0  0
   -0.0709    1.6347    0.5194 N   0  3  0  0  0  0  0  0  0  0  0  0
   -0.8296    2.0786   -0.6576 C   0  0  0  0  0  0  0  0  0  0  0  0
   -0.8275    3.5844   -0.7180 C   0  0  0  0  0  0  0  0  0  0  0  0
   -1.8308    4.3026   -0.0946 C   0  0  0  0  0  0  0  0  0  0  0  0
   -1.8264    5.6839   -0.1464 C   0  0  0  0  0  0  0  0  0  0  0  0
   -0.8238    6.3469   -0.8291 C   0  0  0  0  0  0  0  0  0  0  0  0
    0.1766    5.6285   -1.4569 C   0  0  0  0  0  0  0  0  0  0  0  0
    0.1746    4.2473   -1.4016 C   0  0  0  0  0  0  0  0  0  0  0  0
   -0.8206    8.1075   -0.8987 S   0  0  0  0  0  0  0  0  0  0  0  0
   -1.5601    8.5598    0.2272 O   0  0  0  0  0  0  0  0  0  0  0  0
    0.5238    8.5021   -1.1357 O   0  0  0  0  0  0  0  0  0  0  0  0
   -1.6861    8.5460   -2.2407 N   0  5  0  0  0  0  0  0  0  0  0  0
   -3.0216    8.1825   -2.3550 C   0  0  0  0  0  0  0  0  0  0  0  0
   -3.8355    8.1502   -1.2292 C   0  0  0  0  0  0  0  0  0  0  0  0
   -5.1631    7.7940   -1.3462 C   0  0  0  0  0  0  0  0  0  0  0  0
   -5.6929    7.4559   -2.5817 C   0  0  0  0  0  0  0  0  0  0  0  0
   -4.9003    7.4765   -3.7081 C   0  0  0  0  0  0  0  0  0  0  0  0
   -3.5549    7.8403   -3.6072 C   0  0  0  0  0  0  0  0  0  0  0  0
   -2.7008    7.8640   -4.8088 C   0  0  0  0  0  0  0  0  0  0  0  0
   -1.5304    8.1808   -4.7166 O   0  0  0  0  0  0  0  0  0  0  0  0
   -3.2173    7.5345   -6.0093 N   0  0  0  0  0  0  0  0  0  0  0  0
    0.4122   -0.2383   -0.2997 H   0  0  0  0  0  0  0  0  0  0  0  0
   -1.0866   -0.1967    0.6821 H   0  0  0  0  0  0  0  0  0  0  0  0
    0.5194   -0.1489    1.4960 H   0  0  0  0  0  0  0  0  0  0  0  0
   -0.5054    2.0225    1.3690 H   0  0  0  0  0  0  0  0  0  0  0  0
    0.8955    1.9846    0.4514 H   0  0  0  0  0  0  0  0  0  0  0  0
   -1.8658    1.7167   -0.5851 H   0  0  0  0  0  0  0  0  0  0  0  0
   -0.3631    1.6750   -1.5684 H   0  0  0  0  0  0  0  0  0  0  0  0
   -2.6326    3.7749    0.4426 H   0  0  0  0  0  0  0  0  0  0  0  0
   -2.6208    6.2556    0.3557 H   0  0  0  0  0  0  0  0  0  0  0  0
    0.9743    6.1560   -2.0005 H   0  0  0  0  0  0  0  0  0  0  0  0
    0.9704    3.6757   -1.9016 H   0  0  0  0  0  0  0  0  0  0  0  0
   -3.4208    8.4089   -0.2438 H   0  0  0  0  0  0  0  0  0  0  0  0
   -5.8054    7.7782   -0.4533 H   0  0  0  0  0  0  0  0  0  0  0  0
   -6.7519    7.1696   -2.6631 H   0  0  0  0  0  0  0  0  0  0  0  0
   -5.3260    7.2069   -4.6859 H   0  0  0  0  0  0  0  0  0  0  0  0
   -4.2087    7.2661   -6.0873 H   0  0  0  0  0  0  0  0  0  0  0  0
   -2.6206    7.5511   -6.8487 H   0  0  0  0  0  0  0  0  0  0  0  0
  1  2  1  0  0  0  0
  2  3  1  0  0  0  0
  3  4  1  0  0  0  0
  4  9  2  0  0  0  0
  4  5  1  0  0  0  0
  5  6  2  0  0  0  0
  6  7  1  0  0  0  0
  7  8  2  0  0  0  0
  7 10  1  0  0  0  0
  8  9  1  0  0  0  0
 10 11  2  0  0  0  0
 10 12  2  0  0  0  0
 10 13  1  0  0  0  0
 13 14  1  0  0  0  0
 14 19  2  0  0  0  0
 14 15  1  0  0  0  0
 15 16  2  0  0  0  0
 16 17  1  0  0  0  0
 17 18  2  0  0  0  0
 18 19  1  0  0  0  0
 19 20  1  0  0  0  0
 20 21  2  0  0  0  0
 20 22  1  0  0  0  0
  1 23  1  0  0  0  0
  1 24  1  0  0  0  0
  1 25  1  0  0  0  0
  2 26  1  0  0  0  0
  2 27  1  0  0  0  0
  3 28  1  0  0  0  0
  3 29  1  0  0  0  0
  5 30  1  0  0  0  0
  6 31  1  0  0  0  0
  8 32  1  0  0  0  0
  9 33  1  0  0  0  0
 15 34  1  0  0  0  0
 16 35  1  0  0  0  0
 17 36  1  0  0  0  0
 18 37  1  0  0  0  0
 22 38  1  0  0  0  0
 22 39  1  0  0  0  0
M  CHG  2   2   1  13  -1
M  END
> <Name>
ZINC20188385

> <reference>
BDB5199

> <quality>
0.798

> <status>
decoy

$$$$
ZINC11661273
  SciTegic06141217593D

 41 42  0  0  1  0            999 V2000
   -0.0154   -6.6792   -1.7649 C   0  0  0  0  0  0  0  0  0  0  0  0
    1.3982   -7.1907   -1.6603 C   0  0  0  0  0  0  0  0  0  0  0  0
    2.5651   -6.4233   -1.8875 C   0  0  0  0  0  0  0  0  0  0  0  0
    3.6147   -7.1749   -1.7060 N   0  0  0  0  0  0  0  0  0  0  0  0
    3.1532   -8.4702   -1.3573 O   0  0  0  0  0  0  0  0  0  0  0  0
    1.7363   -8.4057   -1.3518 N   0  0  0  0  0  0  0  0  0  0  0  0
    2.5880   -5.1113   -2.2336 O   0  0  0  0  0  0  0  0  0  0  0  0
    3.8719   -4.5100   -2.4130 C   0  0  0  0  0  0  0  0  0  0  0  0
    3.6971   -3.0395   -2.7978 C   0  0  0  0  0  0  0  0  0  0  0  0
    2.8959   -0.8927   -2.0155 C   0  0  0  0  0  0  0  0  0  0  0  0
    2.3831   -0.1412   -0.7854 C   0  0  1  0  0  0  0  0  0  0  0  0
    3.3527   -0.3523    0.3801 C   0  0  0  0  0  0  0  0  0  0  0  0
    2.9759    0.6183    1.5059 C   0  0  0  0  0  0  0  0  0  0  0  0
    3.2636    2.0456    1.0384 C   0  0  0  0  0  0  0  0  0  0  0  0
    2.6578    2.2874   -0.2650 N   0  0  0  0  0  0  0  0  0  0  0  0
    2.2774    1.3227   -1.1033 C   0  0  0  0  0  0  0  0  0  0  0  0
    1.8212    1.6447   -2.1800 O   0  0  0  0  0  0  0  0  0  0  0  0
    2.4536    3.6775   -0.6800 C   0  0  0  0  0  0  0  0  0  0  0  0
    1.0945   -0.6432   -0.4256 O   0  0  0  0  0  0  0  0  0  0  0  0
    3.0768   -2.3159   -1.6720 N   0  3  0  0  0  0  0  0  0  0  0  0
   -0.4436   -6.9274   -0.7825 H   0  0  0  0  0  0  0  0  0  0  0  0
   -0.4775   -7.3694   -2.4861 H   0  0  0  0  0  0  0  0  0  0  0  0
   -0.1200   -5.6188   -2.0379 H   0  0  0  0  0  0  0  0  0  0  0  0
    4.4156   -5.0352   -3.2121 H   0  0  0  0  0  0  0  0  0  0  0  0
    4.4429   -4.5777   -1.4753 H   0  0  0  0  0  0  0  0  0  0  0  0
    4.6799   -2.5985   -3.0207 H   0  0  0  0  0  0  0  0  0  0  0  0
    3.0491   -2.9648   -3.6835 H   0  0  0  0  0  0  0  0  0  0  0  0
    2.1650   -0.8024   -2.8326 H   0  0  0  0  0  0  0  0  0  0  0  0
    3.8591   -0.4666   -2.3327 H   0  0  0  0  0  0  0  0  0  0  0  0
    3.2733   -1.3874    0.7438 H   0  0  0  0  0  0  0  0  0  0  0  0
    4.3814   -0.1493    0.0475 H   0  0  0  0  0  0  0  0  0  0  0  0
    3.5752    0.3966    2.4012 H   0  0  0  0  0  0  0  0  0  0  0  0
    1.9056    0.5158    1.7383 H   0  0  0  0  0  0  0  0  0  0  0  0
    2.8517    2.7581    1.7682 H   0  0  0  0  0  0  0  0  0  0  0  0
    4.3511    2.1943    0.9665 H   0  0  0  0  0  0  0  0  0  0  0  0
    3.4458    4.1506   -0.6393 H   0  0  0  0  0  0  0  0  0  0  0  0
    1.8363    4.1367    0.1062 H   0  0  0  0  0  0  0  0  0  0  0  0
    1.9923    3.7725   -1.6741 H   0  0  0  0  0  0  0  0  0  0  0  0
    1.1612   -1.6088   -0.2174 H   0  0  0  0  0  0  0  0  0  0  0  0
    2.1598   -2.7347   -1.4607 H   0  0  0  0  0  0  0  0  0  0  0  0
    3.6814   -2.3917   -0.8416 H   0  0  0  0  0  0  0  0  0  0  0  0
  1  2  1  0  0  0  0
  2  6  2  0  0  0  0
  2  3  1  0  0  0  0
  3  4  2  0  0  0  0
  3  7  1  0  0  0  0
  4  5  1  0  0  0  0
  5  6  1  0  0  0  0
  7  8  1  0  0  0  0
  8  9  1  0  0  0  0
  9 20  1  0  0  0  0
 10 11  1  0  0  0  0
 10 20  1  0  0  0  0
 11 16  1  0  0  0  0
 11 12  1  0  0  0  0
 11 19  1  0  0  0  0
 12 13  1  0  0  0  0
 13 14  1  0  0  0  0
 14 15  1  0  0  0  0
 15 16  1  0  0  0  0
 15 18  1  0  0  0  0
 16 17  2  0  0  0  0
  1 21  1  0  0  0  0
  1 22  1  0  0  0  0
  1 23  1  0  0  0  0
  8 24  1  0  0  0  0
  8 25  1  0  0  0  0
  9 26  1  0  0  0  0
  9 27  1  0  0  0  0
 10 28  1  0  0  0  0
 10 29  1  0  0  0  0
 12 30  1  0  0  0  0
 12 31  1  0  0  0  0
 13 32  1  0  0  0  0
 13 33  1  0  0  0  0
 14 34  1  0  0  0  0
 14 35  1  0  0  0  0
 18 36  1  0  0  0  0
 18 37  1  0  0  0  0
 18 38  1  0  0  0  0
 19 39  1  0  0  0  0
 20 40  1  0  0  0  0
 20 41  1  0  0  0  0
M  CHG  1  20   1
M  END
> <Name>
ZINC11661273

> <reference>
BDB5232

> <quality>
0.754

> <status>
decoy

$$$$
ZINC12320688
  SciTegic06141217593D

 58 61  0  0  1  0            999 V2000
    2.6634   -2.8499   -1.7348 C   0  0  0  0  0  0  0  0  0  0  0  0
    3.1471   -3.9360   -0.8088 C   0  0  0  0  0  0  0  0  0  0  0  0
    2.6668   -4.0295    0.3741 N   0  0  0  0  0  0  0  0  0  0  0  0
    1.6914   -3.1222    0.8079 N   0  0  0  0  0  0  0  0  0  0  0  0
    1.1732   -3.2231    2.0839 C   0  0  0  0  0  0  0  0  0  0  0  0
    1.5215   -4.1230    2.9700 N   0  0  0  0  0  0  0  0  0  0  0  0
    0.8107   -3.9320    4.1091 C   0  0  0  0  0  0  0  0  0  0  0  0
    0.7583   -4.5752    5.3569 C   0  0  0  0  0  0  0  0  0  0  0  0
   -0.0815   -4.1089    6.2752 N   0  0  0  0  0  0  0  0  0  0  0  0
   -0.8528   -3.0655    6.0294 C   0  0  0  0  0  0  0  0  0  0  0  0
   -0.8371   -2.4321    4.8752 N   0  0  0  0  0  0  0  0  0  0  0  0
   -0.0294   -2.8268    3.8969 C   0  0  0  0  0  0  0  0  0  0  0  0
    0.2206   -2.3965    2.6145 N   0  0  0  0  0  0  0  0  0  0  0  0
   -0.4199   -1.2653    1.9390 C   0  0  2  0  0  0  0  0  0  0  0  0
   -1.4012   -1.7710    0.8517 C   0  0  2  0  0  0  0  0  0  0  0  0
   -1.4393   -0.5468   -0.1033 C   0  0  1  0  0  0  0  0  0  0  0  0
    0.0021   -0.0041    0.0020 C   0  0  2  0  0  0  0  0  0  0  0  0
    0.5587   -0.4892    1.2294 O   0  0  0  0  0  0  0  0  0  0  0  0
   -0.0187    1.5258    0.0104 C   0  0  0  0  0  0  0  0  0  0  0  0
    1.3220    2.0204    0.0003 O   0  0  0  0  0  0  0  0  0  0  0  0
   -1.7328   -0.9544   -1.4411 O   0  0  0  0  0  0  0  0  0  0  0  0
   -2.6922   -2.0339    1.4051 O   0  0  0  0  0  0  0  0  0  0  0  0
    1.5632   -5.6708    5.6238 N   0  0  0  0  0  0  0  0  0  0  0  0
    4.1963   -4.9120   -1.2754 C   0  0  0  0  0  0  0  0  0  0  0  0
    4.4858   -5.8379   -0.2262 O   0  0  0  0  0  0  0  0  0  0  0  0
    5.4188   -6.7926   -0.4853 C   0  0  0  0  0  0  0  0  0  0  0  0
    6.0373   -6.8392   -1.7258 C   0  0  0  0  0  0  0  0  0  0  0  0
    6.9886   -7.8060   -1.9874 C   0  0  0  0  0  0  0  0  0  0  0  0
    7.3179   -8.7364   -1.0129 C   0  0  0  0  0  0  0  0  0  0  0  0
    6.6952   -8.6934    0.2257 C   0  0  0  0  0  0  0  0  0  0  0  0
    5.7478   -7.7233    0.4891 C   0  0  0  0  0  0  0  0  0  0  0  0
    8.2509   -9.6911   -1.2720 O   0  0  0  0  0  0  0  0  0  0  0  0
    8.8517   -9.6762   -2.5685 C   0  0  0  0  0  0  0  0  0  0  0  0
    2.8461   -1.9076   -1.1974 H   0  0  0  0  0  0  0  0  0  0  0  0
    1.5739   -2.9873   -1.7993 H   0  0  0  0  0  0  0  0  0  0  0  0
    3.1468   -2.8688   -2.7227 H   0  0  0  0  0  0  0  0  0  0  0  0
    1.3608   -2.3799    0.1750 H   0  0  0  0  0  0  0  0  0  0  0  0
   -1.5335   -2.7125    6.8181 H   0  0  0  0  0  0  0  0  0  0  0  0
   -0.9318   -0.6762    2.7142 H   0  0  0  0  0  0  0  0  0  0  0  0
   -1.1025   -2.7143    0.3711 H   0  0  0  0  0  0  0  0  0  0  0  0
   -2.2109    0.1931    0.1561 H   0  0  0  0  0  0  0  0  0  0  0  0
    0.6051   -0.3383   -0.8552 H   0  0  0  0  0  0  0  0  0  0  0  0
   -0.5332    1.8817    0.9152 H   0  0  0  0  0  0  0  0  0  0  0  0
   -0.5502    1.8903   -0.8810 H   0  0  0  0  0  0  0  0  0  0  0  0
    1.7862    1.7018   -0.8140 H   0  0  0  0  0  0  0  0  0  0  0  0
   -2.6116   -1.4101   -1.4519 H   0  0  0  0  0  0  0  0  0  0  0  0
   -3.0430   -1.1993    1.8057 H   0  0  0  0  0  0  0  0  0  0  0  0
    2.2065   -6.0154    4.8969 H   0  0  0  0  0  0  0  0  0  0  0  0
    1.5201   -6.1380    6.5407 H   0  0  0  0  0  0  0  0  0  0  0  0
    3.8236   -5.4590   -2.1540 H   0  0  0  0  0  0  0  0  0  0  0  0
    5.1125   -4.3661   -1.5449 H   0  0  0  0  0  0  0  0  0  0  0  0
    5.7703   -6.1063   -2.5014 H   0  0  0  0  0  0  0  0  0  0  0  0
    7.4850   -7.8380   -2.9685 H   0  0  0  0  0  0  0  0  0  0  0  0
    6.9558   -9.4318    0.9982 H   0  0  0  0  0  0  0  0  0  0  0  0
    5.2543   -7.6889    1.4716 H   0  0  0  0  0  0  0  0  0  0  0  0
    9.3030   -8.6803   -2.6887 H   0  0  0  0  0  0  0  0  0  0  0  0
    8.0278   -9.7628   -3.2921 H   0  0  0  0  0  0  0  0  0  0  0  0
    9.5944  -10.4765   -2.7025 H   0  0  0  0  0  0  0  0  0  0  0  0
  1  2  1  0  0  0  0
  2  3  2  0  0  0  0
  2 24  1  0  0  0  0
  3  4  1  0  0  0  0
  4  5  1  0  0  0  0
  5 13  1  0  0  0  0
  5  6  2  0  0  0  0
  6  7  1  0  0  0  0
  7 12  1  0  0  0  0
  7  8  2  0  0  0  0
  8  9  1  0  0  0  0
  8 23  1  0  0  0  0
  9 10  2  0  0  0  0
 10 11  1  0  0  0  0
 11 12  2  0  0  0  0
 12 13  1  0  0  0  0
 13 14  1  0  0  0  0
 14 18  1  0  0  0  0
 14 15  1  0  0  0  0
 15 16  1  0  0  0  0
 15 22  1  0  0  0  0
 16 17  1  0  0  0  0
 16 21  1  0  0  0  0
 17 18  1  0  0  0  0
 17 19  1  0  0  0  0
 19 20  1  0  0  0  0
 24 25  1  0  0  0  0
 25 26  1  0  0  0  0
 26 31  2  0  0  0  0
 26 27  1  0  0  0  0
 27 28  2  0  0  0  0
 28 29  1  0  0  0  0
 29 30  2  0  0  0  0
 29 32  1  0  0  0  0
 30 31  1  0  0  0  0
 32 33  1  0  0  0  0
  1 34  1  0  0  0  0
  1 35  1  0  0  0  0
  1 36  1  0  0  0  0
  4 37  1  0  0  0  0
 10 38  1  0  0  0  0
 14 39  1  0  0  0  0
 15 40  1  0  0  0  0
 16 41  1  0  0  0  0
 17 42  1  0  0  0  0
 19 43  1  0  0  0  0
 19 44  1  0  0  0  0
 20 45  1  0  0  0  0
 21 46  1  0  0  0  0
 22 47  1  0  0  0  0
 23 48  1  0  0  0  0
 23 49  1  0  0  0  0
 24 50  1  0  0  0  0
 24 51  1  0  0  0  0
 27 52  1  0  0  0  0
 28 53  1  0  0  0  0
 30 54  1  0  0  0  0
 31 55  1  0  0  0  0
 33 56  1  0  0  0  0
 33 57  1  0  0  0  0
 33 58  1  0  0  0  0
M  END
> <Name>
ZINC12320688

> <reference>
BDB4968

> <quality>
0.734

> <status>
decoy

$$$$
ZINC05114471
  SciTegic06141217593D

 41 41  0  0  1  0            999 V2000
   -1.9990   -1.1795   -1.9556 C   0  0  0  0  0  0  0  0  0  0  0  0
   -0.5368   -0.7312   -2.0008 C   0  0  2  0  0  0  0  0  0  0  0  0
   -0.4363    0.6080   -2.7337 C   0  0  0  0  0  0  0  0  0  0  0  0
    0.2958   -1.7808   -2.7398 C   0  0  1  0  0  0  0  0  0  0  0  0
    0.3045   -3.0829   -1.9365 C   0  0  1  0  0  0  0  0  0  0  0  0
    1.1955   -4.0884   -2.6193 C   0  0  0  0  0  0  0  0  0  0  0  0
    2.1574   -4.5412   -2.0356 O   0  0  0  0  0  0  0  0  0  0  0  0
    0.9236   -4.4844   -3.8785 N   0  0  0  0  0  0  0  0  0  0  0  0
    0.4005   -3.8801    0.3478 C   0  0  1  0  0  0  0  0  0  0  0  0
    1.3789   -3.9338    1.5228 C   0  0  0  0  0  0  0  0  0  0  0  0
    2.7403   -4.3452    1.0244 C   0  0  0  0  0  0  0  0  0  0  0  0
    3.6847   -3.5357    0.5083 C   0  0  0  0  0  0  0  0  0  0  0  0
    4.7470   -4.2891    0.1876 N   0  0  0  0  0  0  0  0  0  0  0  0
    4.4968   -5.5348    0.4853 C   0  0  0  0  0  0  0  0  0  0  0  0
    3.2569   -5.6128    1.0148 N   0  0  0  0  0  0  0  0  0  0  0  0
   -0.9860   -3.5890    0.8615 C   0  0  0  0  0  0  0  0  0  0  0  0
   -1.3782   -2.4482    0.9289 O   0  0  0  0  0  0  0  0  0  0  0  0
    0.8164   -2.8114   -0.5801 N   0  0  0  0  0  0  0  0  0  0  0  0
   -1.7853   -4.5972    1.2443 O   0  5  0  0  0  0  0  0  0  0  0  0
   -0.2741   -2.0444   -4.0728 N   0  3  0  0  0  0  0  0  0  0  0  0
   -2.3803   -1.2940   -2.9810 H   0  0  0  0  0  0  0  0  0  0  0  0
   -2.5984   -0.4257   -1.4242 H   0  0  0  0  0  0  0  0  0  0  0  0
   -2.0719   -2.1424   -1.4288 H   0  0  0  0  0  0  0  0  0  0  0  0
   -0.1564   -0.6172   -0.9750 H   0  0  0  0  0  0  0  0  0  0  0  0
   -1.0344    1.3634   -2.2030 H   0  0  0  0  0  0  0  0  0  0  0  0
   -0.8163    0.4950   -3.7598 H   0  0  0  0  0  0  0  0  0  0  0  0
    0.6147    0.9309   -2.7665 H   0  0  0  0  0  0  0  0  0  0  0  0
    1.3213   -1.3996   -2.8544 H   0  0  0  0  0  0  0  0  0  0  0  0
   -0.7170   -3.4859   -1.8724 H   0  0  0  0  0  0  0  0  0  0  0  0
    0.1068   -4.0998   -4.3742 H   0  0  0  0  0  0  0  0  0  0  0  0
    1.5326   -5.1716   -4.3451 H   0  0  0  0  0  0  0  0  0  0  0  0
    0.3990   -4.8465   -0.1776 H   0  0  0  0  0  0  0  0  0  0  0  0
    1.4451   -2.9405    1.9907 H   0  0  0  0  0  0  0  0  0  0  0  0
    1.0240   -4.6653    2.2637 H   0  0  0  0  0  0  0  0  0  0  0  0
    3.5998   -2.4473    0.3734 H   0  0  0  0  0  0  0  0  0  0  0  0
    5.1823   -6.3811    0.3306 H   0  0  0  0  0  0  0  0  0  0  0  0
    2.7876   -6.4666    1.3490 H   0  0  0  0  0  0  0  0  0  0  0  0
    0.4460   -1.9093   -0.2486 H   0  0  0  0  0  0  0  0  0  0  0  0
   -0.2826   -1.1686   -4.6148 H   0  0  0  0  0  0  0  0  0  0  0  0
   -1.2399   -2.3856   -3.9648 H   0  0  0  0  0  0  0  0  0  0  0  0
    0.2917   -2.7515   -4.5635 H   0  0  0  0  0  0  0  0  0  0  0  0
  1  2  1  0  0  0  0
  2  3  1  0  0  0  0
  2  4  1  0  0  0  0
  4  5  1  0  0  0  0
  4 20  1  0  0  0  0
  5  6  1  0  0  0  0
  5 18  1  0  0  0  0
  6  7  2  0  0  0  0
  6  8  1  0  0  0  0
  9 10  1  0  0  0  0
  9 16  1  0  0  0  0
  9 18  1  0  0  0  0
 10 11  1  0  0  0  0
 11 15  1  0  0  0  0
 11 12  2  0  0  0  0
 12 13  1  0  0  0  0
 13 14  2  0  0  0  0
 14 15  1  0  0  0  0
 16 17  2  0  0  0  0
 16 19  1  0  0  0  0
  1 21  1  0  0  0  0
  1 22  1  0  0  0  0
  1 23  1  0  0  0  0
  2 24  1  0  0  0  0
  3 25  1  0  0  0  0
  3 26  1  0  0  0  0
  3 27  1  0  0  0  0
  4 28  1  0  0  0  0
  5 29  1  0  0  0  0
  8 30  1  0  0  0  0
  8 31  1  0  0  0  0
  9 32  1  0  0  0  0
 10 33  1  0  0  0  0
 10 34  1  0  0  0  0
 12 35  1  0  0  0  0
 14 36  1  0  0  0  0
 15 37  1  0  0  0  0
 18 38  1  0  0  0  0
 20 39  1  0  0  0  0
 20 40  1  0  0  0  0
 20 41  1  0  0  0  0
M  CHG  2  19  -1  20   1
M  END
> <Name>
ZINC05114471

> <reference>
BDB5021

> <quality>
0.683

> <status>
decoy

$$$$
ZINC15690560
  SciTegic06141217593D

 30 31  0  0  1  0            999 V2000
   -8.2731    7.5524    1.5272 C   0  0  0  0  0  0  0  0  0  0  0  0
   -9.2517    8.7512    1.5479 C   0  0  0  0  0  0  0  0  0  0  0  0
  -10.2374    8.4940    0.0167 S   0  0  0  0  0  0  0  0  0  0  0  0
  -10.0169    9.5871   -0.8641 O   0  0  0  0  0  0  0  0  0  0  0  0
  -11.5666    8.1419    0.3751 O   0  0  0  0  0  0  0  0  0  0  0  0
   -9.3820    7.0047   -0.6505 C   0  0  0  0  0  0  0  0  0  0  0  0
   -8.0114    7.1140    0.0768 C   0  0  2  0  0  0  0  0  0  0  0  0
   -7.3466    5.8232    0.0670 O   0  0  0  0  0  0  0  0  0  0  0  0
   -6.0043    5.8290    0.0609 C   0  0  0  0  0  0  0  0  0  0  0  0
   -5.4047    6.8780    0.0636 O   0  0  0  0  0  0  0  0  0  0  0  0
   -5.2452    4.5272    0.0506 C   0  0  0  0  0  0  0  0  0  0  0  0
   -3.4632    4.8664    0.0442 S   0  0  0  0  0  0  0  0  0  0  0  0
   -2.7248    3.2667    0.0324 C   0  0  0  0  0  0  0  0  0  0  0  0
   -1.3842    3.0004    0.0304 N   0  0  0  0  0  0  0  0  0  0  0  0
   -1.2233    1.6439    0.0168 C   0  0  0  0  0  0  0  0  0  0  0  0
   -2.4128    1.0945    0.0199 N   0  0  0  0  0  0  0  0  0  0  0  0
   -3.3646    2.1225    0.0298 N   0  0  0  0  0  0  0  0  0  0  0  0
   -0.0111    0.9658    0.0074 N   0  0  0  0  0  0  0  0  0  0  0  0
   -7.3238    7.8483    1.9977 H   0  0  0  0  0  0  0  0  0  0  0  0
   -8.7108    6.7142    2.0892 H   0  0  0  0  0  0  0  0  0  0  0  0
   -9.9087    8.6982    2.4285 H   0  0  0  0  0  0  0  0  0  0  0  0
   -8.7014    9.7014    1.4825 H   0  0  0  0  0  0  0  0  0  0  0  0
   -9.2549    7.0991   -1.7390 H   0  0  0  0  0  0  0  0  0  0  0  0
   -9.9165    6.0943   -0.3416 H   0  0  0  0  0  0  0  0  0  0  0  0
   -7.3671    7.8459   -0.4323 H   0  0  0  0  0  0  0  0  0  0  0  0
   -5.5037    3.9447    0.9472 H   0  0  0  0  0  0  0  0  0  0  0  0
   -5.5116    3.9532   -0.8491 H   0  0  0  0  0  0  0  0  0  0  0  0
   -0.6280    3.6997    0.0378 H   0  0  0  0  0  0  0  0  0  0  0  0
    0.8324    1.5569    0.0112 H   0  0  0  0  0  0  0  0  0  0  0  0
    0.0565   -0.0619   -0.0028 H   0  0  0  0  0  0  0  0  0  0  0  0
  1  7  1  0  0  0  0
  1  2  1  0  0  0  0
  2  3  1  0  0  0  0
  3  4  2  0  0  0  0
  3  5  2  0  0  0  0
  3  6  1  0  0  0  0
  6  7  1  0  0  0  0
  7  8  1  0  0  0  0
  8  9  1  0  0  0  0
  9 10  2  0  0  0  0
  9 11  1  0  0  0  0
 11 12  1  0  0  0  0
 12 13  1  0  0  0  0
 13 17  2  0  0  0  0
 13 14  1  0  0  0  0
 14 15  1  0  0  0  0
 15 16  2  0  0  0  0
 15 18  1  0  0  0  0
 16 17  1  0  0  0  0
  1 19  1  0  0  0  0
  1 20  1  0  0  0  0
  2 21  1  0  0  0  0
  2 22  1  0  0  0  0
  6 23  1  0  0  0  0
  6 24  1  0  0  0  0
  7 25  1  0  0  0  0
 11 26  1  0  0  0  0
 11 27  1  0  0  0  0
 14 28  1  0  0  0  0
 18 29  1  0  0  0  0
 18 30  1  0  0  0  0
M  END
> <Name>
ZINC15690560

> <reference>
BDB4937

> <quality>
0.737

> <status>
decoy

$$$$
ZINC22150898
  SciTegic06141217593D

 43 44  0  0  0  0            999 V2000
   -2.8554   -0.7259    9.6660 C   0  0  0  0  0  0  0  0  0  0  0  0
   -3.5710   -1.7808    8.8198 C   0  0  0  0  0  0  0  0  0  0  0  0
   -4.9630   -1.3677    8.5968 N   0  3  0  0  0  0  0  0  0  0  0  0
   -5.6987   -1.2893    9.8659 C   0  0  0  0  0  0  0  0  0  0  0  0
   -5.9508   -2.7017   10.3973 C   0  0  0  0  0  0  0  0  0  0  0  0
   -5.0237   -0.0906    7.8734 C   0  0  0  0  0  0  0  0  0  0  0  0
   -4.4688   -0.2783    6.4600 C   0  0  0  0  0  0  0  0  0  0  0  0
   -4.5293    0.9953    5.7385 N   0  0  0  0  0  0  0  0  0  0  0  0
   -4.0819    1.0721    4.4396 C   0  0  0  0  0  0  0  0  0  0  0  0
   -3.5649    0.0383    3.7244 N   0  5  0  0  0  0  0  0  0  0  0  0
   -3.2412    0.5413    2.4713 C   0  0  0  0  0  0  0  0  0  0  0  0
   -3.5864    1.8884    2.4891 C   0  0  0  0  0  0  0  0  0  0  0  0
   -4.0879    2.1593    3.6952 N   0  0  0  0  0  0  0  0  0  0  0  0
   -3.3683    2.6484    1.3513 N   0  0  0  0  0  0  0  0  0  0  0  0
   -2.8269    2.0827    0.2560 C   0  0  0  0  0  0  0  0  0  0  0  0
   -2.6378    2.7656   -0.7323 O   0  0  0  0  0  0  0  0  0  0  0  0
   -2.4949    0.7806    0.2265 N   0  0  0  0  0  0  0  0  0  0  0  0
   -2.6834   -0.0091    1.3039 C   0  0  0  0  0  0  0  0  0  0  0  0
   -2.3730   -1.1870    1.2659 O   0  0  0  0  0  0  0  0  0  0  0  0
   -1.9139    0.2116   -0.9922 C   0  0  0  0  0  0  0  0  0  0  0  0
   -3.7224    4.0700    1.3417 C   0  0  0  0  0  0  0  0  0  0  0  0
   -3.3663   -0.6231   10.6347 H   0  0  0  0  0  0  0  0  0  0  0  0
   -2.8707    0.2399    9.1398 H   0  0  0  0  0  0  0  0  0  0  0  0
   -1.8130   -1.0346    9.8334 H   0  0  0  0  0  0  0  0  0  0  0  0
   -3.0597   -1.8827    7.8512 H   0  0  0  0  0  0  0  0  0  0  0  0
   -3.5557   -2.7467    9.3460 H   0  0  0  0  0  0  0  0  0  0  0  0
   -5.4160   -2.0845    8.0121 H   0  0  0  0  0  0  0  0  0  0  0  0
   -6.6613   -0.7827    9.7023 H   0  0  0  0  0  0  0  0  0  0  0  0
   -5.1060   -0.7226   10.5991 H   0  0  0  0  0  0  0  0  0  0  0  0
   -4.9891   -3.2095   10.5626 H   0  0  0  0  0  0  0  0  0  0  0  0
   -6.5436   -3.2697    9.6652 H   0  0  0  0  0  0  0  0  0  0  0  0
   -6.5017   -2.6437   11.3476 H   0  0  0  0  0  0  0  0  0  0  0  0
   -6.0685    0.2483    7.8145 H   0  0  0  0  0  0  0  0  0  0  0  0
   -4.4234    0.6622    8.4052 H   0  0  0  0  0  0  0  0  0  0  0  0
   -3.4238   -0.6169    6.5182 H   0  0  0  0  0  0  0  0  0  0  0  0
   -5.0687   -1.0301    5.9262 H   0  0  0  0  0  0  0  0  0  0  0  0
   -4.9068    1.8332    6.2036 H   0  0  0  0  0  0  0  0  0  0  0  0
   -1.0213    0.8199   -1.2002 H   0  0  0  0  0  0  0  0  0  0  0  0
   -2.6452    0.4192   -1.7872 H   0  0  0  0  0  0  0  0  0  0  0  0
   -1.6789   -0.8599   -0.9108 H   0  0  0  0  0  0  0  0  0  0  0  0
   -3.1695    4.5074    2.1861 H   0  0  0  0  0  0  0  0  0  0  0  0
   -4.7905    4.0997    1.6030 H   0  0  0  0  0  0  0  0  0  0  0  0
   -3.5081    4.5786    0.3902 H   0  0  0  0  0  0  0  0  0  0  0  0
  1  2  1  0  0  0  0
  2  3  1  0  0  0  0
  3  4  1  0  0  0  0
  3  6  1  0  0  0  0
  4  5  1  0  0  0  0
  6  7  1  0  0  0  0
  7  8  1  0  0  0  0
  8  9  1  0  0  0  0
  9 13  2  0  0  0  0
  9 10  1  0  0  0  0
 10 11  1  0  0  0  0
 11 18  1  0  0  0  0
 11 12  2  0  0  0  0
 12 13  1  0  0  0  0
 12 14  1  0  0  0  0
 14 15  1  0  0  0  0
 14 21  1  0  0  0  0
 15 16  2  0  0  0  0
 15 17  1  0  0  0  0
 17 18  1  0  0  0  0
 17 20  1  0  0  0  0
 18 19  2  0  0  0  0
  1 22  1  0  0  0  0
  1 23  1  0  0  0  0
  1 24  1  0  0  0  0
  2 25  1  0  0  0  0
  2 26  1  0  0  0  0
  3 27  1  0  0  0  0
  4 28  1  0  0  0  0
  4 29  1  0  0  0  0
  5 30  1  0  0  0  0
  5 31  1  0  0  0  0
  5 32  1  0  0  0  0
  6 33  1  0  0  0  0
  6 34  1  0  0  0  0
  7 35  1  0  0  0  0
  7 36  1  0  0  0  0
  8 37  1  0  0  0  0
 20 38  1  0  0  0  0
 20 39  1  0  0  0  0
 20 40  1  0  0  0  0
 21 41  1  0  0  0  0
 21 42  1  0  0  0  0
 21 43  1  0  0  0  0
M  CHG  2   3   1  10  -1
M  END
> <Name>
ZINC22150898

> <reference>
BDB4995

> <quality>
0.793

> <status>
decoy

$$$$
ZINC05574015
  SciTegic06141217593D

 24 23  0  0  0  0            999 V2000
    2.4037    5.0605   -0.2236 C   0  0  0  0  0  0  0  0  0  0  0  0
    2.5459    3.5418   -0.1045 C   0  0  0  0  0  0  0  0  0  0  0  0
    1.2281    2.9327   -0.0805 O   0  0  0  0  0  0  0  0  0  0  0  0
    1.1765    1.5904    0.0217 C   0  0  0  0  0  0  0  0  0  0  0  0
    2.2871    0.8946    0.0943 N   0  0  0  0  0  0  0  0  0  0  0  0
    2.2400   -0.4651    0.0827 C   0  0  0  0  0  0  0  0  0  0  0  0
    1.0952   -1.0815   -0.1112 N   0  0  0  0  0  0  0  0  0  0  0  0
    3.3764   -1.1860    0.2715 N   0  0  0  0  0  0  0  0  0  0  0  0
    3.3161   -2.4971    0.3632 C   0  0  0  0  0  0  0  0  0  0  0  0
    4.4403   -3.2132    0.6595 N   0  0  0  0  0  0  0  0  0  0  0  0
    2.1444   -3.1334    0.1648 O   0  0  0  0  0  0  0  0  0  0  0  0
    2.1266   -4.5676    0.3911 C   0  0  0  0  0  0  0  0  0  0  0  0
   -0.0149    0.9623    0.0494 O   0  5  0  0  0  0  0  0  0  0  0  0
    1.8382    5.4455    0.6378 H   0  0  0  0  0  0  0  0  0  0  0  0
    1.8692    5.3080   -1.1526 H   0  0  0  0  0  0  0  0  0  0  0  0
    3.4018    5.5226   -0.2418 H   0  0  0  0  0  0  0  0  0  0  0  0
    3.1112    3.1576   -0.9664 H   0  0  0  0  0  0  0  0  0  0  0  0
    3.0804    3.2942    0.8245 H   0  0  0  0  0  0  0  0  0  0  0  0
    0.2339   -0.5351   -0.2543 H   0  0  0  0  0  0  0  0  0  0  0  0
    5.3355   -2.7270    0.8112 H   0  0  0  0  0  0  0  0  0  0  0  0
    4.3931   -4.2396    0.7313 H   0  0  0  0  0  0  0  0  0  0  0  0
    2.4552   -4.7216    1.4295 H   0  0  0  0  0  0  0  0  0  0  0  0
    2.8922   -4.9956   -0.2727 H   0  0  0  0  0  0  0  0  0  0  0  0
    1.1375   -5.0131    0.2089 H   0  0  0  0  0  0  0  0  0  0  0  0
  1  2  1  0  0  0  0
  2  3  1  0  0  0  0
  3  4  1  0  0  0  0
  4  5  2  0  0  0  0
  4 13  1  0  0  0  0
  5  6  1  0  0  0  0
  6  7  2  0  0  0  0
  6  8  1  0  0  0  0
  8  9  2  0  0  0  0
  9 10  1  0  0  0  0
  9 11  1  0  0  0  0
 11 12  1  0  0  0  0
  1 14  1  0  0  0  0
  1 15  1  0  0  0  0
  1 16  1  0  0  0  0
  2 17  1  0  0  0  0
  2 18  1  0  0  0  0
  7 19  1  0  0  0  0
 10 20  1  0  0  0  0
 10 21  1  0  0  0  0
 12 22  1  0  0  0  0
 12 23  1  0  0  0  0
 12 24  1  0  0  0  0
M  CHG  1  13  -1
M  END
> <Name>
ZINC05574015

> <reference>
BDB5233

> <quality>
0.719

> <status>
decoy

$$$$
ZINC24628488
  SciTegic06141217593D

 36 37  0  0  0  0            999 V2000
   -0.0126    1.0758    0.0080 C   0  0  0  0  0  0  0  0  0  0  0  0
   -1.2170    1.7570    0.0173 C   0  0  0  0  0  0  0  0  0  0  0  0
   -1.1891    3.1562    0.0289 C   0  0  0  0  0  0  0  0  0  0  0  0
    0.0537    3.8077    0.0206 C   0  0  0  0  0  0  0  0  0  0  0  0
    1.1756    3.1083    0.0066 N   0  0  0  0  0  0  0  0  0  0  0  0
    1.1723    1.7892    0.0005 C   0  0  0  0  0  0  0  0  0  0  0  0
    0.1043    5.1610    0.0265 O   0  0  0  0  0  0  0  0  0  0  0  0
    1.4008    5.7618    0.0170 C   0  0  0  0  0  0  0  0  0  0  0  0
    1.2571    7.2850    0.0255 C   0  0  1  0  0  0  0  0  0  0  0  0
    0.5676    7.6819    1.1763 F   0  0  0  0  0  0  0  0  0  0  0  0
    2.5264    7.8732    0.0162 F   0  0  0  0  0  0  0  0  0  0  0  0
    0.5459    7.6927   -1.1082 F   0  0  0  0  0  0  0  0  0  0  0  0
   -2.4436    3.9323    0.0446 C   0  0  0  0  0  0  0  0  0  0  0  0
   -2.4067    5.1476    0.0504 O   0  0  0  0  0  0  0  0  0  0  0  0
   -3.6307    3.2941    0.0524 N   0  0  0  0  0  0  0  0  0  0  0  0
   -4.8221    4.0311    0.0673 N   0  0  0  0  0  0  0  0  0  0  0  0
   -6.0092    3.3930    0.0751 C   0  0  0  0  0  0  0  0  0  0  0  0
   -6.0462    2.1766    0.0693 O   0  0  0  0  0  0  0  0  0  0  0  0
   -7.2565    4.1645    0.0907 C   0  0  0  0  0  0  0  0  0  0  0  0
   -8.5346    3.6475    0.0944 C   0  0  0  0  0  0  0  0  0  0  0  0
   -9.4166    4.7324    0.1127 C   0  0  0  0  0  0  0  0  0  0  0  0
   -8.6785    5.8681    0.1114 C   0  0  0  0  0  0  0  0  0  0  0  0
   -7.3643    5.5368    0.0981 N   0  0  0  0  0  0  0  0  0  0  0  0
  -10.8947    4.6538    0.1255 N   0  0  0  0  0  0  0  0  0  0  0  0
  -11.5588    5.6747    0.1367 O   0  0  0  0  0  0  0  0  0  0  0  0
  -11.4468    3.5681    0.1248 O   0  0  0  0  0  0  0  0  0  0  0  0
    0.0024   -0.0241    0.0066 H   0  0  0  0  0  0  0  0  0  0  0  0
   -2.1727    1.2123    0.0156 H   0  0  0  0  0  0  0  0  0  0  0  0
    2.1292    1.2468   -0.0108 H   0  0  0  0  0  0  0  0  0  0  0  0
    1.9438    5.4505   -0.8876 H   0  0  0  0  0  0  0  0  0  0  0  0
    1.9599    5.4418    0.9086 H   0  0  0  0  0  0  0  0  0  0  0  0
   -3.6620    2.2646    0.0474 H   0  0  0  0  0  0  0  0  0  0  0  0
   -4.7908    5.0606    0.0723 H   0  0  0  0  0  0  0  0  0  0  0  0
   -8.8088    2.5823    0.0848 H   0  0  0  0  0  0  0  0  0  0  0  0
   -9.0801    6.8921    0.1198 H   0  0  0  0  0  0  0  0  0  0  0  0
   -6.5773    6.2012    0.0942 H   0  0  0  0  0  0  0  0  0  0  0  0
  1  6  2  0  0  0  0
  1  2  1  0  0  0  0
  2  3  2  0  0  0  0
  3  4  1  0  0  0  0
  3 13  1  0  0  0  0
  4  5  2  0  0  0  0
  4  7  1  0  0  0  0
  5  6  1  0  0  0  0
  7  8  1  0  0  0  0
  8  9  1  0  0  0  0
  9 10  1  0  0  0  0
  9 11  1  0  0  0  0
  9 12  1  0  0  0  0
 13 14  2  0  0  0  0
 13 15  1  0  0  0  0
 15 16  1  0  0  0  0
 16 17  1  0  0  0  0
 17 18  2  0  0  0  0
 17 19  1  0  0  0  0
 19 23  1  0  0  0  0
 19 20  2  0  0  0  0
 20 21  1  0  0  0  0
 21 22  2  0  0  0  0
 21 24  1  0  0  0  0
 22 23  1  0  0  0  0
 24 25  2  0  0  0  0
 24 26  2  0  0  0  0
  1 27  1  0  0  0  0
  2 28  1  0  0  0  0
  6 29  1  0  0  0  0
  8 30  1  0  0  0  0
  8 31  1  0  0  0  0
 15 32  1  0  0  0  0
 16 33  1  0  0  0  0
 20 34  1  0  0  0  0
 22 35  1  0  0  0  0
 23 36  1  0  0  0  0
M  END
> <Name>
ZINC24628488

> <reference>
BDB4952

> <quality>
0.715

> <status>
decoy

$$$$
ZINC01818846
  SciTegic06141217593D

 34 34  0  0  0  0            999 V2000
   -9.4046   -3.1277    0.0290 C   0  0  0  0  0  0  0  0  0  0  0  0
   -8.5375   -1.8672    0.0322 C   0  0  0  0  0  0  0  0  0  0  0  0
   -7.0599   -2.2645    0.0226 C   0  0  0  0  0  0  0  0  0  0  0  0
   -6.2059   -1.0229    0.0257 C   0  0  0  0  0  0  0  0  0  0  0  0
   -6.7276    0.0720    0.0345 O   0  0  0  0  0  0  0  0  0  0  0  0
   -4.8624   -1.1291    0.0184 N   0  0  0  0  0  0  0  0  0  0  0  0
   -4.0684    0.0252    0.0213 N   0  0  0  0  0  0  0  0  0  0  0  0
   -2.6950   -0.0834    0.0139 C   0  0  0  0  0  0  0  0  0  0  0  0
   -1.8549    1.1379    0.0170 C   0  0  0  0  0  0  0  0  0  0  0  0
   -0.3781    1.2469    0.0104 C   0  0  0  0  0  0  0  0  0  0  0  0
   -0.1879    2.5458    0.0223 N   0  0  0  0  0  0  0  0  0  0  0  0
   -1.2569    3.1092    0.0255 O   0  0  0  0  0  0  0  0  0  0  0  0
   -2.2335    2.3970    0.0261 N   0  0  0  0  0  0  0  0  0  0  0  0
    0.5679    0.2304    0.0003 N   0  0  0  0  0  0  0  0  0  0  0  0
  -10.8821   -2.7304    0.0386 C   0  0  0  0  0  0  0  0  0  0  0  0
  -11.7491   -3.9911    0.0355 C   0  0  0  0  0  0  0  0  0  0  0  0
  -13.1291   -3.6200    0.0444 O   0  0  0  0  0  0  0  0  0  0  0  0
   -2.0653   -1.2470    0.0042 N   0  0  0  0  0  0  0  0  0  0  0  0
   -9.1901   -3.7182   -0.8740 H   0  0  0  0  0  0  0  0  0  0  0  0
   -9.1818   -3.7297    0.9223 H   0  0  0  0  0  0  0  0  0  0  0  0
   -8.7608   -1.2661   -0.8616 H   0  0  0  0  0  0  0  0  0  0  0  0
   -8.7515   -1.2759    0.9347 H   0  0  0  0  0  0  0  0  0  0  0  0
   -6.8437   -2.8551   -0.8799 H   0  0  0  0  0  0  0  0  0  0  0  0
   -6.8358   -2.8653    0.9164 H   0  0  0  0  0  0  0  0  0  0  0  0
   -4.4193   -2.0589    0.0107 H   0  0  0  0  0  0  0  0  0  0  0  0
   -4.5114    0.9550    0.0290 H   0  0  0  0  0  0  0  0  0  0  0  0
    0.1564   -0.7138   -0.0028 H   0  0  0  0  0  0  0  0  0  0  0  0
    1.5873    0.3775   -0.0039 H   0  0  0  0  0  0  0  0  0  0  0  0
  -11.0974   -2.1402    0.9415 H   0  0  0  0  0  0  0  0  0  0  0  0
  -11.1071   -2.1293   -0.8547 H   0  0  0  0  0  0  0  0  0  0  0  0
  -11.5262   -4.5929    0.9289 H   0  0  0  0  0  0  0  0  0  0  0  0
  -11.5345   -4.5816   -0.8674 H   0  0  0  0  0  0  0  0  0  0  0  0
  -13.3316   -3.0791   -0.7597 H   0  0  0  0  0  0  0  0  0  0  0  0
   -2.6374   -2.1035    0.0022 H   0  0  0  0  0  0  0  0  0  0  0  0
  1  2  1  0  0  0  0
  1 15  1  0  0  0  0
  2  3  1  0  0  0  0
  3  4  1  0  0  0  0
  4  5  2  0  0  0  0
  4  6  1  0  0  0  0
  6  7  1  0  0  0  0
  7  8  1  0  0  0  0
  8  9  1  0  0  0  0
  8 18  2  0  0  0  0
  9 13  2  0  0  0  0
  9 10  1  0  0  0  0
 10 11  2  0  0  0  0
 10 14  1  0  0  0  0
 11 12  1  0  0  0  0
 12 13  1  0  0  0  0
 15 16  1  0  0  0  0
 16 17  1  0  0  0  0
  1 19  1  0  0  0  0
  1 20  1  0  0  0  0
  2 21  1  0  0  0  0
  2 22  1  0  0  0  0
  3 23  1  0  0  0  0
  3 24  1  0  0  0  0
  6 25  1  0  0  0  0
  7 26  1  0  0  0  0
 14 27  1  0  0  0  0
 14 28  1  0  0  0  0
 15 29  1  0  0  0  0
 15 30  1  0  0  0  0
 16 31  1  0  0  0  0
 16 32  1  0  0  0  0
 17 33  1  0  0  0  0
 18 34  1  0  0  0  0
M  END
> <Name>
ZINC01818846

> <reference>
BDB5021

> <quality>
0.695

> <status>
decoy

$$$$
ZINC09467478
  SciTegic06141217593D

 46 48  0  0  0  0            999 V2000
   -1.2353    2.1573    0.0196 C   0  0  0  0  0  0  0  0  0  0  0  0
   -1.2497    3.5357    0.0331 C   0  0  0  0  0  0  0  0  0  0  0  0
   -0.0555    4.2445    0.0255 C   0  0  0  0  0  0  0  0  0  0  0  0
    1.1574    3.5685    0.0102 C   0  0  0  0  0  0  0  0  0  0  0  0
    1.1803    2.1902    0.0026 C   0  0  0  0  0  0  0  0  0  0  0  0
   -0.0180    1.4739    0.0101 C   0  0  0  0  0  0  0  0  0  0  0  0
    0.0021   -0.0041    0.0020 C   0  0  0  0  0  0  0  0  0  0  0  0
    1.0347   -0.7719    0.2617 N   0  0  0  0  0  0  0  0  0  0  0  0
    0.6979   -2.0082    0.1644 N   0  0  0  0  0  0  0  0  0  0  0  0
   -0.5707   -2.1059   -0.1634 C   0  0  0  0  0  0  0  0  0  0  0  0
   -1.0595   -0.8348   -0.2733 N   0  0  0  0  0  0  0  0  0  0  0  0
   -2.3353   -0.4657   -0.5927 N   0  0  0  0  0  0  0  0  0  0  0  0
   -1.4750   -3.5982   -0.4083 S   0  0  0  0  0  0  0  0  0  0  0  0
   -0.1724   -4.8121   -0.0827 C   0  0  0  0  0  0  0  0  0  0  0  0
   -0.7317   -6.2028   -0.2379 C   0  0  0  0  0  0  0  0  0  0  0  0
   -1.8962   -6.3581   -0.5389 O   0  0  0  0  0  0  0  0  0  0  0  0
    0.0623   -7.2741   -0.0421 N   0  0  0  0  0  0  0  0  0  0  0  0
   -0.4813   -8.6261   -0.1929 C   0  0  0  0  0  0  0  0  0  0  0  0
    0.6197   -9.6522    0.0823 C   0  0  0  0  0  0  0  0  0  0  0  0
    0.0761  -11.0042   -0.0686 N   0  0  0  0  0  0  0  0  0  0  0  0
   -0.4426  -11.5944    0.9952 C   0  0  0  0  0  0  0  0  0  0  0  0
   -0.4815  -11.0558    2.0806 O   0  0  0  0  0  0  0  0  0  0  0  0
   -0.9911  -12.9948    0.7619 C   0  0  0  0  0  0  0  0  0  0  0  0
   -0.6180  -13.1849   -1.0270 S   0  0  0  0  0  0  0  0  0  0  0  0
    0.1349  -11.5847   -1.2815 C   0  0  0  0  0  0  0  0  0  0  0  0
    0.5936  -11.1271   -2.3102 O   0  0  0  0  0  0  0  0  0  0  0  0
   -0.0740    5.6031    0.0325 O   0  0  0  0  0  0  0  0  0  0  0  0
   -1.3558    6.2344    0.0482 C   0  0  1  0  0  0  0  0  0  0  0  0
   -2.0767    5.8546   -1.0890 F   0  0  0  0  0  0  0  0  0  0  0  0
   -2.0544    5.8430    1.1954 F   0  0  0  0  0  0  0  0  0  0  0  0
   -2.1817    1.5966    0.0163 H   0  0  0  0  0  0  0  0  0  0  0  0
   -2.2084    4.0749    0.0499 H   0  0  0  0  0  0  0  0  0  0  0  0
    2.1011    4.1336    0.0041 H   0  0  0  0  0  0  0  0  0  0  0  0
    2.1415    1.6554   -0.0094 H   0  0  0  0  0  0  0  0  0  0  0  0
   -2.4968    0.5510   -0.6250 H   0  0  0  0  0  0  0  0  0  0  0  0
   -3.0916   -1.1366   -0.7895 H   0  0  0  0  0  0  0  0  0  0  0  0
    0.2041   -4.6814    0.9426 H   0  0  0  0  0  0  0  0  0  0  0  0
    0.6512   -4.6668   -0.7972 H   0  0  0  0  0  0  0  0  0  0  0  0
    1.0513   -7.1422    0.2136 H   0  0  0  0  0  0  0  0  0  0  0  0
   -1.3048   -8.7722    0.5216 H   0  0  0  0  0  0  0  0  0  0  0  0
   -0.8574   -8.7590   -1.2180 H   0  0  0  0  0  0  0  0  0  0  0  0
    0.9963   -9.5215    1.1075 H   0  0  0  0  0  0  0  0  0  0  0  0
    1.4434   -9.5069   -0.6321 H   0  0  0  0  0  0  0  0  0  0  0  0
   -0.4288  -13.7401    1.3436 H   0  0  0  0  0  0  0  0  0  0  0  0
   -2.0788  -13.0249    0.9233 H   0  0  0  0  0  0  0  0  0  0  0  0
   -1.2264    7.3268    0.0525 H   0  0  0  0  0  0  0  0  0  0  0  0
  1  6  2  0  0  0  0
  1  2  1  0  0  0  0
  2  3  2  0  0  0  0
  3  4  1  0  0  0  0
  3 27  1  0  0  0  0
  4  5  2  0  0  0  0
  5  6  1  0  0  0  0
  6  7  1  0  0  0  0
  7 11  1  0  0  0  0
  7  8  2  0  0  0  0
  8  9  1  0  0  0  0
  9 10  2  0  0  0  0
 10 11  1  0  0  0  0
 10 13  1  0  0  0  0
 11 12  1  0  0  0  0
 13 14  1  0  0  0  0
 14 15  1  0  0  0  0
 15 16  2  0  0  0  0
 15 17  1  0  0  0  0
 17 18  1  0  0  0  0
 18 19  1  0  0  0  0
 19 20  1  0  0  0  0
 20 25  1  0  0  0  0
 20 21  1  0  0  0  0
 21 22  2  0  0  0  0
 21 23  1  0  0  0  0
 23 24  1  0  0  0  0
 24 25  1  0  0  0  0
 25 26  2  0  0  0  0
 27 28  1  0  0  0  0
 28 29  1  0  0  0  0
 28 30  1  0  0  0  0
  1 31  1  0  0  0  0
  2 32  1  0  0  0  0
  4 33  1  0  0  0  0
  5 34  1  0  0  0  0
 12 35  1  0  0  0  0
 12 36  1  0  0  0  0
 14 37  1  0  0  0  0
 14 38  1  0  0  0  0
 17 39  1  0  0  0  0
 18 40  1  0  0  0  0
 18 41  1  0  0  0  0
 19 42  1  0  0  0  0
 19 43  1  0  0  0  0
 23 44  1  0  0  0  0
 23 45  1  0  0  0  0
 28 46  1  0  0  0  0
M  END
> <Name>
ZINC09467478

> <reference>
BDB4972

> <quality>
0.665

> <status>
decoy

$$$$
ZINC06996143
  SciTegic06141217593D

 29 30  0  0  0  0            999 V2000
   -9.0154    7.1287    0.6276 C   0  0  0  0  0  0  0  0  0  0  0  0
   -7.8726    6.3612    0.0144 C   0  0  0  0  0  0  0  0  0  0  0  0
   -7.7758    6.2968   -1.3280 N   0  5  0  0  0  0  0  0  0  0  0  0
   -6.7519    5.6169   -1.9188 C   0  0  0  0  0  0  0  0  0  0  0  0
   -5.8163    4.9815   -1.1080 C   0  0  0  0  0  0  0  0  0  0  0  0
   -5.9707    5.0845    0.3021 C   0  0  0  0  0  0  0  0  0  0  0  0
   -5.1710    4.5469    1.0522 O   0  0  0  0  0  0  0  0  0  0  0  0
   -7.0083    5.7807    0.7997 N   0  0  0  0  0  0  0  0  0  0  0  0
   -4.6949    4.2290   -1.6933 C   0  0  0  0  0  0  0  0  0  0  0  0
   -3.8291    3.6474   -0.9195 N   0  0  0  0  0  0  0  0  0  0  0  0
   -2.7617    2.9312   -1.4766 N   0  0  0  0  0  0  0  0  0  0  0  0
   -1.8450    2.3154   -0.6574 C   0  0  0  0  0  0  0  0  0  0  0  0
   -0.7935    1.6124    1.2285 C   0  0  0  0  0  0  0  0  0  0  0  0
   -0.0127    1.0858    0.0080 C   0  0  0  0  0  0  0  0  0  0  0  0
   -0.7806    1.6011   -1.1378 N   0  0  0  0  0  0  0  0  0  0  0  0
   -6.6510    5.5567   -3.2636 O   0  0  0  0  0  0  0  0  0  0  0  0
   -1.9171    2.3638    0.6359 N   0  3  0  0  0  0  0  0  0  0  0  0
   -8.5506    7.8859    1.2761 H   0  0  0  0  0  0  0  0  0  0  0  0
   -9.5405    6.4119    1.2761 H   0  0  0  0  0  0  0  0  0  0  0  0
   -9.6851    7.5785   -0.1202 H   0  0  0  0  0  0  0  0  0  0  0  0
   -4.5902    4.1592   -2.7861 H   0  0  0  0  0  0  0  0  0  0  0  0
   -2.6636    2.8659   -2.4998 H   0  0  0  0  0  0  0  0  0  0  0  0
   -1.1728    0.7707    1.8266 H   0  0  0  0  0  0  0  0  0  0  0  0
   -0.1584    2.2854    1.8233 H   0  0  0  0  0  0  0  0  0  0  0  0
    1.0060    1.5009    0.0018 H   0  0  0  0  0  0  0  0  0  0  0  0
   -0.0125   -0.0142    0.0027 H   0  0  0  0  0  0  0  0  0  0  0  0
   -0.5553    1.4499   -2.1314 H   0  0  0  0  0  0  0  0  0  0  0  0
   -6.6324    6.5022   -3.5564 H   0  0  0  0  0  0  0  0  0  0  0  0
   -2.6491    2.8534    1.1701 H   0  0  0  0  0  0  0  0  0  0  0  0
  1  2  1  0  0  0  0
  2  8  2  0  0  0  0
  2  3  1  0  0  0  0
  3  4  1  0  0  0  0
  4  5  2  0  0  0  0
  4 16  1  0  0  0  0
  5  6  1  0  0  0  0
  5  9  1  0  0  0  0
  6  7  2  0  0  0  0
  6  8  1  0  0  0  0
  9 10  2  0  0  0  0
 10 11  1  0  0  0  0
 11 12  1  0  0  0  0
 12 15  1  0  0  0  0
 12 17  2  0  0  0  0
 13 14  1  0  0  0  0
 13 17  1  0  0  0  0
 14 15  1  0  0  0  0
  1 18  1  0  0  0  0
  1 19  1  0  0  0  0
  1 20  1  0  0  0  0
  9 21  1  0  0  0  0
 11 22  1  0  0  0  0
 13 23  1  0  0  0  0
 13 24  1  0  0  0  0
 14 25  1  0  0  0  0
 14 26  1  0  0  0  0
 15 27  1  0  0  0  0
 16 28  1  0  0  0  0
 17 29  1  0  0  0  0
M  CHG  2   3  -1  17   1
M  END
> <Name>
ZINC06996143

> <reference>
BDB5008

> <quality>
0.725

> <status>
decoy

$$$$
ZINC04839229
  SciTegic06141217593D

 46 47  0  0  0  0            999 V2000
   -0.0893    1.1120   -4.8637 C   0  0  0  0  0  0  0  0  0  0  0  0
   -0.6882    1.5241   -3.6334 O   0  0  0  0  0  0  0  0  0  0  0  0
    0.0009    1.0647   -2.4689 C   0  0  0  0  0  0  0  0  0  0  0  0
   -0.7246    1.5626   -1.2173 C   0  0  0  0  0  0  0  0  0  0  0  0
    0.0133    1.0707    0.0295 C   0  0  0  0  0  0  0  0  0  0  0  0
   -0.6814    1.5474    1.2280 N   0  0  0  0  0  0  0  0  0  0  0  0
   -0.1939    1.2249    2.4877 C   0  0  0  0  0  0  0  0  0  0  0  0
    0.8897    0.3647    2.6181 C   0  0  0  0  0  0  0  0  0  0  0  0
    1.3727    0.0466    3.8705 C   0  0  0  0  0  0  0  0  0  0  0  0
    0.7838    0.5801    5.0063 C   0  0  0  0  0  0  0  0  0  0  0  0
   -0.2911    1.4345    4.8971 C   0  0  0  0  0  0  0  0  0  0  0  0
   -0.7892    1.7705    3.6355 C   0  0  0  0  0  0  0  0  0  0  0  0
   -1.9356    2.6892    3.5112 C   0  0  0  0  0  0  0  0  0  0  0  0
   -1.8438    3.6861    2.8208 O   0  0  0  0  0  0  0  0  0  0  0  0
   -3.0853    2.4242    4.1626 N   0  0  0  0  0  0  0  0  0  0  0  0
   -3.1898    1.2724    5.0714 C   0  0  0  0  0  0  0  0  0  0  0  0
   -4.4259    0.4581    4.6928 C   0  0  0  0  0  0  0  0  0  0  0  0
   -5.4658    2.3788    3.6388 C   0  0  0  0  0  0  0  0  0  0  0  0
   -4.2706    3.2754    3.9789 C   0  0  0  0  0  0  0  0  0  0  0  0
    1.3132    0.2302    6.3436 N   0  0  0  0  0  0  0  0  0  0  0  0
    2.2638   -0.5247    6.4438 O   0  0  0  0  0  0  0  0  0  0  0  0
    0.7982    0.6971    7.3437 O   0  0  0  0  0  0  0  0  0  0  0  0
   -5.6116    1.3372    4.6745 N   0  3  0  0  0  0  0  0  0  0  0  0
   -0.0565    0.0125   -4.8646 H   0  0  0  0  0  0  0  0  0  0  0  0
    0.9434    1.4908   -4.8730 H   0  0  0  0  0  0  0  0  0  0  0  0
   -0.6509    1.4868   -5.7321 H   0  0  0  0  0  0  0  0  0  0  0  0
    0.0234   -0.0351   -2.4659 H   0  0  0  0  0  0  0  0  0  0  0  0
    1.0303    1.4525   -2.4737 H   0  0  0  0  0  0  0  0  0  0  0  0
   -0.7470    2.6624   -1.2194 H   0  0  0  0  0  0  0  0  0  0  0  0
   -1.7540    1.1748   -1.2101 H   0  0  0  0  0  0  0  0  0  0  0  0
    0.0358   -0.0291    0.0324 H   0  0  0  0  0  0  0  0  0  0  0  0
    1.0427    1.4585    0.0246 H   0  0  0  0  0  0  0  0  0  0  0  0
   -1.5314    2.1218    1.1363 H   0  0  0  0  0  0  0  0  0  0  0  0
    1.3627   -0.0630    1.7218 H   0  0  0  0  0  0  0  0  0  0  0  0
    2.2307   -0.6348    3.9685 H   0  0  0  0  0  0  0  0  0  0  0  0
   -0.7569    1.8518    5.8020 H   0  0  0  0  0  0  0  0  0  0  0  0
   -2.2920    0.6442    4.9752 H   0  0  0  0  0  0  0  0  0  0  0  0
   -3.2867    1.6271    6.1081 H   0  0  0  0  0  0  0  0  0  0  0  0
   -4.5772   -0.3444    5.4298 H   0  0  0  0  0  0  0  0  0  0  0  0
   -4.2825    0.0165    3.6956 H   0  0  0  0  0  0  0  0  0  0  0  0
   -6.3814    2.9873    3.6002 H   0  0  0  0  0  0  0  0  0  0  0  0
   -5.3014    1.9021    2.6612 H   0  0  0  0  0  0  0  0  0  0  0  0
   -4.0946    3.9825    3.1548 H   0  0  0  0  0  0  0  0  0  0  0  0
   -4.4767    3.8271    4.9079 H   0  0  0  0  0  0  0  0  0  0  0  0
   -6.4507    0.7740    4.4752 H   0  0  0  0  0  0  0  0  0  0  0  0
   -5.7190    1.7858    5.5954 H   0  0  0  0  0  0  0  0  0  0  0  0
  1  2  1  0  0  0  0
  2  3  1  0  0  0  0
  3  4  1  0  0  0  0
  4  5  1  0  0  0  0
  5  6  1  0  0  0  0
  6  7  1  0  0  0  0
  7 12  2  0  0  0  0
  7  8  1  0  0  0  0
  8  9  2  0  0  0  0
  9 10  1  0  0  0  0
 10 11  2  0  0  0  0
 10 20  1  0  0  0  0
 11 12  1  0  0  0  0
 12 13  1  0  0  0  0
 13 14  2  0  0  0  0
 13 15  1  0  0  0  0
 15 19  1  0  0  0  0
 15 16  1  0  0  0  0
 16 17  1  0  0  0  0
 17 23  1  0  0  0  0
 18 19  1  0  0  0  0
 18 23  1  0  0  0  0
 20 21  2  0  0  0  0
 20 22  2  0  0  0  0
  1 24  1  0  0  0  0
  1 25  1  0  0  0  0
  1 26  1  0  0  0  0
  3 27  1  0  0  0  0
  3 28  1  0  0  0  0
  4 29  1  0  0  0  0
  4 30  1  0  0  0  0
  5 31  1  0  0  0  0
  5 32  1  0  0  0  0
  6 33  1  0  0  0  0
  8 34  1  0  0  0  0
  9 35  1  0  0  0  0
 11 36  1  0  0  0  0
 16 37  1  0  0  0  0
 16 38  1  0  0  0  0
 17 39  1  0  0  0  0
 17 40  1  0  0  0  0
 18 41  1  0  0  0  0
 18 42  1  0  0  0  0
 19 43  1  0  0  0  0
 19 44  1  0  0  0  0
 23 45  1  0  0  0  0
 23 46  1  0  0  0  0
M  CHG  1  23   1
M  END
> <Name>
ZINC04839229

> <reference>
BDB5195

> <quality>
0.747

> <status>
decoy

$$$$
ZINC16298324
  SciTegic06141217593D

 53 55  0  0  0  0            999 V2000
   -3.1312    3.0720    4.9056 C   0  0  0  0  0  0  0  0  0  0  0  0
   -2.3533    2.6585    3.6830 C   0  0  0  0  0  0  0  0  0  0  0  0
   -2.5594    1.4122    3.1214 C   0  0  0  0  0  0  0  0  0  0  0  0
   -1.8458    1.0330    1.9999 C   0  0  0  0  0  0  0  0  0  0  0  0
   -0.9267    1.9002    1.4394 C   0  0  0  0  0  0  0  0  0  0  0  0
   -0.7172    3.1446    2.0038 C   0  0  0  0  0  0  0  0  0  0  0  0
   -1.4339    3.5256    3.1228 C   0  0  0  0  0  0  0  0  0  0  0  0
   -0.0172    1.4168    0.0098 S   0  0  0  0  0  0  0  0  0  0  0  0
    0.0021   -0.0041    0.0020 O   0  0  0  0  0  0  0  0  0  0  0  0
    1.1718    2.1948    0.0027 O   0  0  0  0  0  0  0  0  0  0  0  0
   -0.8975    1.8855   -1.3122 N   0  0  0  0  0  0  0  0  0  0  0  0
   -1.1248    3.3089   -1.5738 C   0  0  0  0  0  0  0  0  0  0  0  0
   -1.6142    3.4879   -2.9878 C   0  0  0  0  0  0  0  0  0  0  0  0
   -1.7590    2.5216   -3.7063 O   0  0  0  0  0  0  0  0  0  0  0  0
   -1.8911    4.7218   -3.4540 N   0  0  0  0  0  0  0  0  0  0  0  0
   -2.3670    4.8958   -4.8286 C   0  0  0  0  0  0  0  0  0  0  0  0
   -2.6008    6.3600   -5.0976 C   0  0  0  0  0  0  0  0  0  0  0  0
   -2.3906    7.1777   -4.2269 O   0  0  0  0  0  0  0  0  0  0  0  0
   -3.0434    6.7609   -6.3059 N   0  0  0  0  0  0  0  0  0  0  0  0
   -3.2707    8.1843   -6.5675 C   0  0  0  0  0  0  0  0  0  0  0  0
   -3.7602    8.3633   -7.9815 C   0  0  0  0  0  0  0  0  0  0  0  0
   -5.0485    8.3549   -8.3733 C   0  0  0  0  0  0  0  0  0  0  0  0
   -5.0569    8.5555   -9.7693 C   0  0  0  0  0  0  0  0  0  0  0  0
   -3.7591    8.6763  -10.1553 C   0  0  0  0  0  0  0  0  0  0  0  0
   -2.9836    8.5636   -9.0601 O   0  0  0  0  0  0  0  0  0  0  0  0
   -3.2822    8.8993  -11.5367 C   0  0  0  0  0  0  0  0  0  0  0  0
   -1.9441    9.0118  -11.8143 C   0  0  0  0  0  0  0  0  0  0  0  0
   -1.9948    9.2584  -13.5833 S   0  0  0  0  0  0  0  0  0  0  0  0
   -3.7193    9.1999  -13.7738 C   0  0  0  0  0  0  0  0  0  0  0  0
   -4.1340    9.0023  -12.5464 N   0  0  0  0  0  0  0  0  0  0  0  0
   -4.5344    9.3413  -15.0334 C   0  0  0  0  0  0  0  0  0  0  0  0
   -3.6368    4.0063    4.6202 H   0  0  0  0  0  0  0  0  0  0  0  0
   -2.3690    3.3308    5.6553 H   0  0  0  0  0  0  0  0  0  0  0  0
   -3.8337    2.3062    5.2663 H   0  0  0  0  0  0  0  0  0  0  0  0
   -3.2912    0.7223    3.5670 H   0  0  0  0  0  0  0  0  0  0  0  0
   -2.0093    0.0411    1.5534 H   0  0  0  0  0  0  0  0  0  0  0  0
    0.0198    3.8317    1.5625 H   0  0  0  0  0  0  0  0  0  0  0  0
   -1.2726    4.5187    3.5674 H   0  0  0  0  0  0  0  0  0  0  0  0
   -1.2852    1.1762   -1.9506 H   0  0  0  0  0  0  0  0  0  0  0  0
   -0.1837    3.8624   -1.4395 H   0  0  0  0  0  0  0  0  0  0  0  0
   -1.8802    3.6945   -0.8733 H   0  0  0  0  0  0  0  0  0  0  0  0
   -1.7681    5.5425   -2.8438 H   0  0  0  0  0  0  0  0  0  0  0  0
   -3.3088    4.3439   -4.9644 H   0  0  0  0  0  0  0  0  0  0  0  0
   -1.6119    4.5107   -5.5297 H   0  0  0  0  0  0  0  0  0  0  0  0
   -3.2218    6.0665   -7.0454 H   0  0  0  0  0  0  0  0  0  0  0  0
   -4.0261    8.5699   -5.8670 H   0  0  0  0  0  0  0  0  0  0  0  0
   -2.3296    8.7378   -6.4332 H   0  0  0  0  0  0  0  0  0  0  0  0
   -5.9279    8.2176   -7.7269 H   0  0  0  0  0  0  0  0  0  0  0  0
   -5.9425    8.6047  -10.4200 H   0  0  0  0  0  0  0  0  0  0  0  0
   -1.0794    8.9636  -11.1361 H   0  0  0  0  0  0  0  0  0  0  0  0
   -4.0472    8.5828  -15.6638 H   0  0  0  0  0  0  0  0  0  0  0  0
   -4.1324   10.2907  -15.4169 H   0  0  0  0  0  0  0  0  0  0  0  0
   -5.6317    9.2799  -14.9875 H   0  0  0  0  0  0  0  0  0  0  0  0
  1  2  1  0  0  0  0
  2  7  2  0  0  0  0
  2  3  1  0  0  0  0
  3  4  2  0  0  0  0
  4  5  1  0  0  0  0
  5  6  2  0  0  0  0
  5  8  1  0  0  0  0
  6  7  1  0  0  0  0
  8  9  2  0  0  0  0
  8 10  2  0  0  0  0
  8 11  1  0  0  0  0
 11 12  1  0  0  0  0
 12 13  1  0  0  0  0
 13 14  2  0  0  0  0
 13 15  1  0  0  0  0
 15 16  1  0  0  0  0
 16 17  1  0  0  0  0
 17 18  2  0  0  0  0
 17 19  1  0  0  0  0
 19 20  1  0  0  0  0
 20 21  1  0  0  0  0
 21 25  1  0  0  0  0
 21 22  2  0  0  0  0
 22 23  1  0  0  0  0
 23 24  2  0  0  0  0
 24 25  1  0  0  0  0
 24 26  1  0  0  0  0
 26 30  1  0  0  0  0
 26 27  2  0  0  0  0
 27 28  1  0  0  0  0
 28 29  1  0  0  0  0
 29 30  2  0  0  0  0
 29 31  1  0  0  0  0
  1 32  1  0  0  0  0
  1 33  1  0  0  0  0
  1 34  1  0  0  0  0
  3 35  1  0  0  0  0
  4 36  1  0  0  0  0
  6 37  1  0  0  0  0
  7 38  1  0  0  0  0
 11 39  1  0  0  0  0
 12 40  1  0  0  0  0
 12 41  1  0  0  0  0
 15 42  1  0  0  0  0
 16 43  1  0  0  0  0
 16 44  1  0  0  0  0
 19 45  1  0  0  0  0
 20 46  1  0  0  0  0
 20 47  1  0  0  0  0
 22 48  1  0  0  0  0
 23 49  1  0  0  0  0
 27 50  1  0  0  0  0
 31 51  1  0  0  0  0
 31 52  1  0  0  0  0
 31 53  1  0  0  0  0
M  END
> <Name>
ZINC16298324

> <reference>
BDB4972

> <quality>
0.665

> <status>
decoy

$$$$
ZINC05677679
  SciTegic06141217593D

 46 47  0  0  1  0            999 V2000
   -0.9638    3.0820    1.4507 C   0  0  0  0  0  0  0  0  0  0  0  0
   -0.7296    1.5811    1.2682 C   0  0  1  0  0  0  0  0  0  0  0  0
   -2.0781    0.8647    1.3239 C   0  0  0  0  0  0  0  0  0  0  0  0
   -2.6955    0.7587   -0.0944 C   0  0  0  0  0  0  0  0  0  0  0  0
   -1.1692    0.3886   -1.0660 S   0  0  0  0  0  0  0  0  0  0  0  0
   -1.2798    0.9801   -2.3533 O   0  0  0  0  0  0  0  0  0  0  0  0
   -0.8660   -0.9949   -0.9510 O   0  0  0  0  0  0  0  0  0  0  0  0
    0.0273    1.3567   -0.0555 C   0  0  0  0  0  0  0  0  0  0  0  0
    0.1037    1.0997    2.3728 N   0  0  0  0  0  0  0  0  0  0  0  0
    1.3772    1.5247    2.4910 C   0  0  0  0  0  0  0  0  0  0  0  0
    1.9829    2.7207    1.4262 S   0  0  0  0  0  0  0  0  0  0  0  0
    2.1740    1.0081    3.4474 N   0  0  0  0  0  0  0  0  0  0  0  0
    3.5583    1.4700    3.5759 C   0  0  0  0  0  0  0  0  0  0  0  0
    4.2380    0.7298    4.7296 C   0  0  0  0  0  0  0  0  0  0  0  0
    6.3115    0.5024    5.9590 C   0  0  1  0  0  0  0  0  0  0  0  0
    7.8284    0.5010    5.7066 C   0  0  0  0  0  0  0  0  0  0  0  0
    8.5767    0.0706    6.9912 C   0  0  0  0  0  0  0  0  0  0  0  0
    7.4303    0.6075    8.3254 S   0  0  0  0  0  0  0  0  0  0  0  0
    6.9840   -0.5370    9.0397 O   0  0  0  0  0  0  0  0  0  0  0  0
    8.0199    1.6889    9.0341 O   0  0  0  0  0  0  0  0  0  0  0  0
    6.0437    1.2502    7.2963 C   0  0  0  0  0  0  0  0  0  0  0  0
    5.6306    1.2004    4.8521 N   0  3  0  0  0  0  0  0  0  0  0  0
   -1.5653    3.4710    0.6159 H   0  0  0  0  0  0  0  0  0  0  0  0
    0.0009    3.6093    1.4879 H   0  0  0  0  0  0  0  0  0  0  0  0
   -1.5039    3.2511    2.3939 H   0  0  0  0  0  0  0  0  0  0  0  0
   -2.7627    1.4254    1.9773 H   0  0  0  0  0  0  0  0  0  0  0  0
   -1.9370   -0.1456    1.7355 H   0  0  0  0  0  0  0  0  0  0  0  0
   -3.3951   -0.0879   -0.1570 H   0  0  0  0  0  0  0  0  0  0  0  0
   -3.1191    1.7224   -0.4135 H   0  0  0  0  0  0  0  0  0  0  0  0
    0.9369    0.7625    0.1160 H   0  0  0  0  0  0  0  0  0  0  0  0
    0.2378    2.3183   -0.5464 H   0  0  0  0  0  0  0  0  0  0  0  0
   -0.2837    0.4365    3.0591 H   0  0  0  0  0  0  0  0  0  0  0  0
    1.8096    0.2885    4.0880 H   0  0  0  0  0  0  0  0  0  0  0  0
    4.1009    1.2674    2.6407 H   0  0  0  0  0  0  0  0  0  0  0  0
    3.5680    2.5511    3.7786 H   0  0  0  0  0  0  0  0  0  0  0  0
    3.6980    0.9336    5.6660 H   0  0  0  0  0  0  0  0  0  0  0  0
    4.2326   -0.3515    4.5278 H   0  0  0  0  0  0  0  0  0  0  0  0
    5.9303   -0.5277    6.0182 H   0  0  0  0  0  0  0  0  0  0  0  0
    8.0633   -0.2026    4.8943 H   0  0  0  0  0  0  0  0  0  0  0  0
    8.1528    1.5113    5.4167 H   0  0  0  0  0  0  0  0  0  0  0  0
    9.5322    0.6082    7.0811 H   0  0  0  0  0  0  0  0  0  0  0  0
    8.6976   -1.0224    7.0198 H   0  0  0  0  0  0  0  0  0  0  0  0
    5.0808    0.9438    7.7309 H   0  0  0  0  0  0  0  0  0  0  0  0
    6.1471    2.3373    7.1641 H   0  0  0  0  0  0  0  0  0  0  0  0
    6.1325    1.0146    3.9720 H   0  0  0  0  0  0  0  0  0  0  0  0
    5.6346    2.2140    5.0349 H   0  0  0  0  0  0  0  0  0  0  0  0
  1  2  1  0  0  0  0
  2  8  1  0  0  0  0
  2  3  1  0  0  0  0
  2  9  1  0  0  0  0
  3  4  1  0  0  0  0
  4  5  1  0  0  0  0
  5  6  2  0  0  0  0
  5  7  2  0  0  0  0
  5  8  1  0  0  0  0
  9 10  1  0  0  0  0
 10 11  2  0  0  0  0
 10 12  1  0  0  0  0
 12 13  1  0  0  0  0
 13 14  1  0  0  0  0
 14 22  1  0  0  0  0
 15 21  1  0  0  0  0
 15 16  1  0  0  0  0
 15 22  1  0  0  0  0
 16 17  1  0  0  0  0
 17 18  1  0  0  0  0
 18 19  2  0  0  0  0
 18 20  2  0  0  0  0
 18 21  1  0  0  0  0
  1 23  1  0  0  0  0
  1 24  1  0  0  0  0
  1 25  1  0  0  0  0
  3 26  1  0  0  0  0
  3 27  1  0  0  0  0
  4 28  1  0  0  0  0
  4 29  1  0  0  0  0
  8 30  1  0  0  0  0
  8 31  1  0  0  0  0
  9 32  1  0  0  0  0
 12 33  1  0  0  0  0
 13 34  1  0  0  0  0
 13 35  1  0  0  0  0
 14 36  1  0  0  0  0
 14 37  1  0  0  0  0
 15 38  1  0  0  0  0
 16 39  1  0  0  0  0
 16 40  1  0  0  0  0
 17 41  1  0  0  0  0
 17 42  1  0  0  0  0
 21 43  1  0  0  0  0
 21 44  1  0  0  0  0
 22 45  1  0  0  0  0
 22 46  1  0  0  0  0
M  CHG  1  22   1
M  END
> <Name>
ZINC05677679

> <reference>
BDB4952

> <quality>
0.712

> <status>
decoy

$$$$
ZINC04535668
  SciTegic06141217593D

 48 49  0  0  1  0            999 V2000
    1.4688   -0.0928    6.1018 C   0  0  0  0  0  0  0  0  0  0  0  0
    0.5225    0.4628    7.1679 C   0  0  0  0  0  0  0  0  0  0  0  0
   -0.8832    0.4927    6.6256 C   0  0  0  0  0  0  0  0  0  0  0  0
   -1.7115   -0.6016    6.7914 C   0  0  0  0  0  0  0  0  0  0  0  0
   -3.0007   -0.5744    6.2935 C   0  0  0  0  0  0  0  0  0  0  0  0
   -3.4618    0.5472    5.6298 C   0  0  0  0  0  0  0  0  0  0  0  0
   -2.6319    1.6394    5.4594 C   0  0  0  0  0  0  0  0  0  0  0  0
   -1.3443    1.6142    5.9619 C   0  0  0  0  0  0  0  0  0  0  0  0
   -4.8672    0.5767    5.0866 C   0  0  1  0  0  0  0  0  0  0  0  0
   -5.7506    1.4109    5.9845 C   0  0  0  0  0  0  0  0  0  0  0  0
   -6.2243    2.4315    5.2278 C   0  0  0  0  0  0  0  0  0  0  0  0
   -5.6824    2.3098    3.8564 C   0  0  0  0  0  0  0  0  0  0  0  0
   -5.9209    3.0731    2.9420 O   0  0  0  0  0  0  0  0  0  0  0  0
   -4.8862    1.2286    3.7720 N   0  0  0  0  0  0  0  0  0  0  0  0
   -4.1695    0.7778    2.5764 C   0  0  0  0  0  0  0  0  0  0  0  0
   -2.7846    1.4269    2.5370 C   0  0  0  0  0  0  0  0  0  0  0  0
   -0.7288    1.5792    1.2668 C   0  0  0  0  0  0  0  0  0  0  0  0
   -0.0127    1.0858    0.0080 C   0  0  0  0  0  0  0  0  0  0  0  0
   -0.7038    1.5592   -1.1497 O   0  0  0  0  0  0  0  0  0  0  0  0
   -7.0583    3.4046    5.6575 O   0  5  0  0  0  0  0  0  0  0  0  0
   -6.0334    1.1706    7.3501 C   0  0  0  0  0  0  0  0  0  0  0  0
   -6.7680    1.9208    7.9589 O   0  0  0  0  0  0  0  0  0  0  0  0
   -5.4224   -0.0169    8.0484 C   0  0  0  0  0  0  0  0  0  0  0  0
   -2.0699    0.9681    1.3309 N   0  3  0  0  0  0  0  0  0  0  0  0
    1.4345    0.5491    5.2092 H   0  0  0  0  0  0  0  0  0  0  0  0
    1.1592   -1.1130    5.8311 H   0  0  0  0  0  0  0  0  0  0  0  0
    2.4951   -0.1149    6.4971 H   0  0  0  0  0  0  0  0  0  0  0  0
    0.5572   -0.1798    8.0600 H   0  0  0  0  0  0  0  0  0  0  0  0
    0.8320    1.4830    7.4387 H   0  0  0  0  0  0  0  0  0  0  0  0
   -1.3446   -1.4940    7.3196 H   0  0  0  0  0  0  0  0  0  0  0  0
   -3.6597   -1.4452    6.4254 H   0  0  0  0  0  0  0  0  0  0  0  0
   -2.9960    2.5286    4.9240 H   0  0  0  0  0  0  0  0  0  0  0  0
   -0.6867    2.4866    5.8336 H   0  0  0  0  0  0  0  0  0  0  0  0
   -5.2234   -0.4622    5.0239 H   0  0  0  0  0  0  0  0  0  0  0  0
   -4.0603   -0.3164    2.6049 H   0  0  0  0  0  0  0  0  0  0  0  0
   -4.7347    1.0667    1.6780 H   0  0  0  0  0  0  0  0  0  0  0  0
   -2.8923    2.5212    2.5059 H   0  0  0  0  0  0  0  0  0  0  0  0
   -2.2160    1.1369    3.4329 H   0  0  0  0  0  0  0  0  0  0  0  0
   -0.1504    1.2891    2.1563 H   0  0  0  0  0  0  0  0  0  0  0  0
   -0.8260    2.6743    1.2302 H   0  0  0  0  0  0  0  0  0  0  0  0
    1.0191    1.4669   -0.0002 H   0  0  0  0  0  0  0  0  0  0  0  0
    0.0026   -0.0141    0.0008 H   0  0  0  0  0  0  0  0  0  0  0  0
   -0.7175    2.5491   -1.1452 H   0  0  0  0  0  0  0  0  0  0  0  0
   -4.3371    0.1010    7.9133 H   0  0  0  0  0  0  0  0  0  0  0  0
   -5.7301   -0.8877    7.4508 H   0  0  0  0  0  0  0  0  0  0  0  0
   -5.7082   -0.1092    9.1066 H   0  0  0  0  0  0  0  0  0  0  0  0
   -1.9762   -0.0572    1.3589 H   0  0  0  0  0  0  0  0  0  0  0  0
   -2.6062    1.2349    0.4929 H   0  0  0  0  0  0  0  0  0  0  0  0
  1  2  1  0  0  0  0
  2  3  1  0  0  0  0
  3  8  2  0  0  0  0
  3  4  1  0  0  0  0
  4  5  2  0  0  0  0
  5  6  1  0  0  0  0
  6  7  2  0  0  0  0
  6  9  1  0  0  0  0
  7  8  1  0  0  0  0
  9 14  1  0  0  0  0
  9 10  1  0  0  0  0
 10 11  2  0  0  0  0
 10 21  1  0  0  0  0
 11 12  1  0  0  0  0
 11 20  1  0  0  0  0
 12 13  2  0  0  0  0
 12 14  1  0  0  0  0
 14 15  1  0  0  0  0
 15 16  1  0  0  0  0
 16 24  1  0  0  0  0
 17 18  1  0  0  0  0
 17 24  1  0  0  0  0
 18 19  1  0  0  0  0
 21 22  2  0  0  0  0
 21 23  1  0  0  0  0
  1 25  1  0  0  0  0
  1 26  1  0  0  0  0
  1 27  1  0  0  0  0
  2 28  1  0  0  0  0
  2 29  1  0  0  0  0
  4 30  1  0  0  0  0
  5 31  1  0  0  0  0
  7 32  1  0  0  0  0
  8 33  1  0  0  0  0
  9 34  1  0  0  0  0
 15 35  1  0  0  0  0
 15 36  1  0  0  0  0
 16 37  1  0  0  0  0
 16 38  1  0  0  0  0
 17 39  1  0  0  0  0
 17 40  1  0  0  0  0
 18 41  1  0  0  0  0
 18 42  1  0  0  0  0
 19 43  1  0  0  0  0
 23 44  1  0  0  0  0
 23 45  1  0  0  0  0
 23 46  1  0  0  0  0
 24 47  1  0  0  0  0
 24 48  1  0  0  0  0
M  CHG  2  20  -1  24   1
M  END
> <Name>
ZINC04535668

> <reference>
BDB5023

> <quality>
0.713

> <status>
decoy

$$$$
ZINC05679876
  SciTegic06141217593D

 48 50  0  0  1  0            999 V2000
    0.0544    1.6537    2.4272 C   0  0  0  0  0  0  0  0  0  0  0  0
   -0.9559    3.4455    1.1501 C   0  0  0  0  0  0  0  0  0  0  0  0
   -0.0187    1.5258    0.0104 C   0  0  0  0  0  0  0  0  0  0  0  0
    0.0021   -0.0041    0.0020 C   0  0  0  0  0  0  0  0  0  0  0  0
    0.7182   -0.4975   -1.2568 C   0  0  0  0  0  0  0  0  0  0  0  0
    1.2024   -2.4799   -2.5620 C   0  0  0  0  0  0  0  0  0  0  0  0
    1.4388   -3.9641   -2.4584 C   0  0  0  0  0  0  0  0  0  0  0  0
    1.5770   -4.7163   -3.6384 C   0  0  0  0  0  0  0  0  0  0  0  0
    1.5027   -4.1691   -4.7253 O   0  0  0  0  0  0  0  0  0  0  0  0
    1.7920   -6.0436   -3.5630 N   0  0  0  0  0  0  0  0  0  0  0  0
    1.8795   -6.6515   -2.3659 C   0  0  0  0  0  0  0  0  0  0  0  0
    2.0779   -7.8500   -2.3159 O   0  0  0  0  0  0  0  0  0  0  0  0
    1.7503   -5.9537   -1.2246 N   0  0  0  0  0  0  0  0  0  0  0  0
    1.5225   -4.5940   -1.2542 C   0  0  0  0  0  0  0  0  0  0  0  0
    1.3793   -3.9313   -0.0658 N   0  0  0  0  0  0  0  0  0  0  0  0
    1.6006   -2.4883   -0.1915 C   0  0  0  0  0  0  0  0  0  0  0  0
    1.8530   -6.6442    0.0634 C   0  0  0  0  0  0  0  0  0  0  0  0
    3.2893   -6.6454    0.5196 C   0  0  0  0  0  0  0  0  0  0  0  0
    3.8762   -5.6982    1.2730 C   0  0  0  0  0  0  0  0  0  0  0  0
    5.2185   -6.0993    1.4631 C   0  0  0  0  0  0  0  0  0  0  0  0
    5.3738   -7.2636    0.8076 C   0  0  0  0  0  0  0  0  0  0  0  0
    4.2021   -7.5895    0.2379 O   0  0  0  0  0  0  0  0  0  0  0  0
   -0.7317    1.9863    1.2205 N   0  3  0  0  0  0  0  0  0  0  0  0
    0.7225   -1.9796   -1.2621 N   0  0  0  0  0  0  0  0  0  0  0  0
   -0.4949    1.9836    3.3213 H   0  0  0  0  0  0  0  0  0  0  0  0
    1.0238    2.1717    2.3838 H   0  0  0  0  0  0  0  0  0  0  0  0
    0.2189    0.5671    2.4756 H   0  0  0  0  0  0  0  0  0  0  0  0
    0.0150    3.9610    1.1085 H   0  0  0  0  0  0  0  0  0  0  0  0
   -1.5038    3.7728    2.0460 H   0  0  0  0  0  0  0  0  0  0  0  0
   -1.5411    3.6885    0.2509 H   0  0  0  0  0  0  0  0  0  0  0  0
   -0.5403    1.8930   -0.8858 H   0  0  0  0  0  0  0  0  0  0  0  0
    1.0126    1.9081    0.0233 H   0  0  0  0  0  0  0  0  0  0  0  0
    0.5346   -0.3686    0.8928 H   0  0  0  0  0  0  0  0  0  0  0  0
   -1.0295   -0.3860    0.0096 H   0  0  0  0  0  0  0  0  0  0  0  0
    1.7541   -0.1275   -1.2607 H   0  0  0  0  0  0  0  0  0  0  0  0
    0.1903   -0.1287   -2.1486 H   0  0  0  0  0  0  0  0  0  0  0  0
    0.4454   -2.2799   -3.3347 H   0  0  0  0  0  0  0  0  0  0  0  0
    2.1434   -1.9749   -2.8254 H   0  0  0  0  0  0  0  0  0  0  0  0
    1.8900   -6.5964   -4.4265 H   0  0  0  0  0  0  0  0  0  0  0  0
    1.1415   -4.3967    0.8218 H   0  0  0  0  0  0  0  0  0  0  0  0
    2.6515   -2.2955   -0.4532 H   0  0  0  0  0  0  0  0  0  0  0  0
    1.3514   -1.9916    0.7578 H   0  0  0  0  0  0  0  0  0  0  0  0
    1.2326   -6.1248    0.8086 H   0  0  0  0  0  0  0  0  0  0  0  0
    1.5031   -7.6813   -0.0463 H   0  0  0  0  0  0  0  0  0  0  0  0
    3.4026   -4.7864    1.6659 H   0  0  0  0  0  0  0  0  0  0  0  0
    5.9882   -5.5623    2.0369 H   0  0  0  0  0  0  0  0  0  0  0  0
    6.3029   -7.8494    0.7482 H   0  0  0  0  0  0  0  0  0  0  0  0
   -1.6434    1.5099    1.2733 H   0  0  0  0  0  0  0  0  0  0  0  0
  1 23  1  0  0  0  0
  2 23  1  0  0  0  0
  3  4  1  0  0  0  0
  3 23  1  0  0  0  0
  4  5  1  0  0  0  0
  5 24  1  0  0  0  0
  6  7  1  0  0  0  0
  6 24  1  0  0  0  0
  7 14  2  0  0  0  0
  7  8  1  0  0  0  0
  8  9  2  0  0  0  0
  8 10  1  0  0  0  0
 10 11  1  0  0  0  0
 11 12  2  0  0  0  0
 11 13  1  0  0  0  0
 13 14  1  0  0  0  0
 13 17  1  0  0  0  0
 14 15  1  0  0  0  0
 15 16  1  0  0  0  0
 16 24  1  0  0  0  0
 17 18  1  0  0  0  0
 18 22  1  0  0  0  0
 18 19  2  0  0  0  0
 19 20  1  0  0  0  0
 20 21  2  0  0  0  0
 21 22  1  0  0  0  0
  1 25  1  0  0  0  0
  1 26  1  0  0  0  0
  1 27  1  0  0  0  0
  2 28  1  0  0  0  0
  2 29  1  0  0  0  0
  2 30  1  0  0  0  0
  3 31  1  0  0  0  0
  3 32  1  0  0  0  0
  4 33  1  0  0  0  0
  4 34  1  0  0  0  0
  5 35  1  0  0  0  0
  5 36  1  0  0  0  0
  6 37  1  0  0  0  0
  6 38  1  0  0  0  0
 10 39  1  0  0  0  0
 15 40  1  0  0  0  0
 16 41  1  0  0  0  0
 16 42  1  0  0  0  0
 17 43  1  0  0  0  0
 17 44  1  0  0  0  0
 19 45  1  0  0  0  0
 20 46  1  0  0  0  0
 21 47  1  0  0  0  0
 23 48  1  0  0  0  0
M  CHG  1  23   1
M  END
> <Name>
ZINC05679876

> <reference>
BDB5198

> <quality>
0.739

> <status>
decoy

$$$$
ZINC21991926
  SciTegic06141217593D

 42 42  0  0  1  0            999 V2000
   -3.1312    3.0720    4.9056 C   0  0  0  0  0  0  0  0  0  0  0  0
   -2.3533    2.6585    3.6830 C   0  0  0  0  0  0  0  0  0  0  0  0
   -2.5594    1.4122    3.1214 C   0  0  0  0  0  0  0  0  0  0  0  0
   -1.8458    1.0330    1.9999 C   0  0  0  0  0  0  0  0  0  0  0  0
   -0.9267    1.9002    1.4394 C   0  0  0  0  0  0  0  0  0  0  0  0
   -0.7172    3.1446    2.0038 C   0  0  0  0  0  0  0  0  0  0  0  0
   -1.4339    3.5256    3.1228 C   0  0  0  0  0  0  0  0  0  0  0  0
   -0.0172    1.4168    0.0098 S   0  0  0  0  0  0  0  0  0  0  0  0
    0.0021   -0.0041    0.0020 O   0  0  0  0  0  0  0  0  0  0  0  0
    1.1718    2.1948    0.0027 O   0  0  0  0  0  0  0  0  0  0  0  0
   -0.8975    1.8855   -1.3122 N   0  0  0  0  0  0  0  0  0  0  0  0
   -1.1108    3.2213   -1.5577 C   0  0  0  0  0  0  0  0  0  0  0  0
   -0.6201    4.1188   -0.7499 N   0  0  0  0  0  0  0  0  0  0  0  0
   -1.8416    3.6104   -2.6553 N   0  0  0  0  0  0  0  0  0  0  0  0
   -2.0689    5.0338   -2.9169 C   0  0  0  0  0  0  0  0  0  0  0  0
   -2.9042    5.1916   -4.1890 C   0  0  0  0  0  0  0  0  0  0  0  0
   -3.1416    6.6781   -4.4622 C   0  0  0  0  0  0  0  0  0  0  0  0
   -3.9769    6.8359   -5.7343 C   0  0  1  0  0  0  0  0  0  0  0  0
   -4.3145    8.2906   -5.9363 C   0  0  0  0  0  0  0  0  0  0  0  0
   -3.6786    8.9552   -6.7198 O   0  0  0  0  0  0  0  0  0  0  0  0
   -5.3218    8.8480   -5.2460 O   0  5  0  0  0  0  0  0  0  0  0  0
   -3.2099    6.3464   -6.8876 N   0  3  0  0  0  0  0  0  0  0  0  0
   -3.6368    4.0063    4.6202 H   0  0  0  0  0  0  0  0  0  0  0  0
   -2.3690    3.3308    5.6553 H   0  0  0  0  0  0  0  0  0  0  0  0
   -3.8337    2.3062    5.2663 H   0  0  0  0  0  0  0  0  0  0  0  0
   -3.2912    0.7223    3.5670 H   0  0  0  0  0  0  0  0  0  0  0  0
   -2.0093    0.0411    1.5534 H   0  0  0  0  0  0  0  0  0  0  0  0
    0.0198    3.8317    1.5625 H   0  0  0  0  0  0  0  0  0  0  0  0
   -1.2726    4.5187    3.5674 H   0  0  0  0  0  0  0  0  0  0  0  0
   -0.0725    3.8273    0.0724 H   0  0  0  0  0  0  0  0  0  0  0  0
   -0.7799    5.1196   -0.9338 H   0  0  0  0  0  0  0  0  0  0  0  0
   -2.2293    2.9011   -3.2937 H   0  0  0  0  0  0  0  0  0  0  0  0
   -2.6065    5.4815   -2.0680 H   0  0  0  0  0  0  0  0  0  0  0  0
   -1.1025    5.5425   -3.0483 H   0  0  0  0  0  0  0  0  0  0  0  0
   -2.3670    4.7445   -5.0384 H   0  0  0  0  0  0  0  0  0  0  0  0
   -3.8716    4.6844   -4.0590 H   0  0  0  0  0  0  0  0  0  0  0  0
   -2.1752    7.1868   -4.5936 H   0  0  0  0  0  0  0  0  0  0  0  0
   -3.6792    7.1258   -3.6133 H   0  0  0  0  0  0  0  0  0  0  0  0
   -4.9054    6.2540   -5.6378 H   0  0  0  0  0  0  0  0  0  0  0  0
   -2.9789    5.3520   -6.7505 H   0  0  0  0  0  0  0  0  0  0  0  0
   -2.3403    6.8908   -6.9790 H   0  0  0  0  0  0  0  0  0  0  0  0
   -3.7717    6.4524   -7.7444 H   0  0  0  0  0  0  0  0  0  0  0  0
  1  2  1  0  0  0  0
  2  7  2  0  0  0  0
  2  3  1  0  0  0  0
  3  4  2  0  0  0  0
  4  5  1  0  0  0  0
  5  6  2  0  0  0  0
  5  8  1  0  0  0  0
  6  7  1  0  0  0  0
  8  9  2  0  0  0  0
  8 10  2  0  0  0  0
  8 11  1  0  0  0  0
 11 12  2  0  0  0  0
 12 13  1  0  0  0  0
 12 14  1  0  0  0  0
 14 15  1  0  0  0  0
 15 16  1  0  0  0  0
 16 17  1  0  0  0  0
 17 18  1  0  0  0  0
 18 19  1  0  0  0  0
 18 22  1  0  0  0  0
 19 20  2  0  0  0  0
 19 21  1  0  0  0  0
  1 23  1  0  0  0  0
  1 24  1  0  0  0  0
  1 25  1  0  0  0  0
  3 26  1  0  0  0  0
  4 27  1  0  0  0  0
  6 28  1  0  0  0  0
  7 29  1  0  0  0  0
 13 30  1  0  0  0  0
 13 31  1  0  0  0  0
 14 32  1  0  0  0  0
 15 33  1  0  0  0  0
 15 34  1  0  0  0  0
 16 35  1  0  0  0  0
 16 36  1  0  0  0  0
 17 37  1  0  0  0  0
 17 38  1  0  0  0  0
 18 39  1  0  0  0  0
 22 40  1  0  0  0  0
 22 41  1  0  0  0  0
 22 42  1  0  0  0  0
M  CHG  2  21  -1  22   1
M  END
> <Name>
ZINC21991926

> <reference>
BDB5024

> <quality>
0.756

> <status>
decoy

$$$$
ZINC27969144
  SciTegic06141217593D

 38 39  0  0  0  0            999 V2000
   -6.2814   -7.7061    6.0130 C   0  0  0  0  0  0  0  0  0  0  0  0
   -4.8518   -7.7708    5.7671 O   0  0  0  0  0  0  0  0  0  0  0  0
   -4.3710   -7.0167    4.7661 C   0  0  0  0  0  0  0  0  0  0  0  0
   -5.1198   -6.3256    4.1169 O   0  0  0  0  0  0  0  0  0  0  0  0
   -2.8971   -7.0322    4.4520 C   0  0  0  0  0  0  0  0  0  0  0  0
   -2.6281   -6.1331    3.3271 N   0  0  0  0  0  0  0  0  0  0  0  0
   -1.3694   -5.9855    2.8685 C   0  0  0  0  0  0  0  0  0  0  0  0
   -0.4594   -6.5970    3.3871 O   0  0  0  0  0  0  0  0  0  0  0  0
   -1.0926   -5.0606    1.7113 C   0  0  0  0  0  0  0  0  0  0  0  0
    0.3401   -5.0757    1.4060 N   0  0  0  0  0  0  0  0  0  0  0  0
    0.8873   -4.4580   -0.0298 S   0  0  0  0  0  0  0  0  0  0  0  0
    0.0781   -5.0255   -1.0507 O   0  0  0  0  0  0  0  0  0  0  0  0
    2.3019   -4.5915   -0.0165 O   0  0  0  0  0  0  0  0  0  0  0  0
    0.5444   -2.7297   -0.0178 C   0  0  0  0  0  0  0  0  0  0  0  0
    1.5840   -1.8159   -0.0228 C   0  0  0  0  0  0  0  0  0  0  0  0
    1.3123   -0.4665   -0.0130 C   0  0  0  0  0  0  0  0  0  0  0  0
    0.0021   -0.0041    0.0020 C   0  0  0  0  0  0  0  0  0  0  0  0
   -1.0397   -0.9289    0.0070 C   0  0  0  0  0  0  0  0  0  0  0  0
   -0.7650   -2.2822   -0.0029 C   0  0  0  0  0  0  0  0  0  0  0  0
   -2.0691   -3.4281    0.0040 Cl  0  0  0  0  0  0  0  0  0  0  0  0
   -0.0168    1.3911    0.0097 N   0  0  0  0  0  0  0  0  0  0  0  0
    1.2197    1.9168    0.0007 C   0  0  0  0  0  0  0  0  0  0  0  0
    1.5010    3.0966    0.0036 O   0  0  0  0  0  0  0  0  0  0  0  0
    2.1959    0.7597   -0.0148 C   0  0  0  0  0  0  0  0  0  0  0  0
   -6.7714   -7.9935    5.0710 H   0  0  0  0  0  0  0  0  0  0  0  0
   -6.5151   -6.6489    6.2070 H   0  0  0  0  0  0  0  0  0  0  0  0
   -6.5972   -8.3504    6.8468 H   0  0  0  0  0  0  0  0  0  0  0  0
   -2.3308   -6.6960    5.3330 H   0  0  0  0  0  0  0  0  0  0  0  0
   -2.5885   -8.0539    4.1857 H   0  0  0  0  0  0  0  0  0  0  0  0
   -3.4009   -5.6138    2.8867 H   0  0  0  0  0  0  0  0  0  0  0  0
   -1.3995   -4.0380    1.9762 H   0  0  0  0  0  0  0  0  0  0  0  0
   -1.6584   -5.3965    0.8298 H   0  0  0  0  0  0  0  0  0  0  0  0
    1.0071   -5.4705    2.0844 H   0  0  0  0  0  0  0  0  0  0  0  0
    2.6262   -2.1676   -0.0346 H   0  0  0  0  0  0  0  0  0  0  0  0
   -2.0830   -0.5805    0.0189 H   0  0  0  0  0  0  0  0  0  0  0  0
   -0.8796    1.9535    0.0210 H   0  0  0  0  0  0  0  0  0  0  0  0
    2.8030    0.7894   -0.9316 H   0  0  0  0  0  0  0  0  0  0  0  0
    2.8198    0.7788    0.8910 H   0  0  0  0  0  0  0  0  0  0  0  0
  1  2  1  0  0  0  0
  2  3  1  0  0  0  0
  3  4  2  0  0  0  0
  3  5  1  0  0  0  0
  5  6  1  0  0  0  0
  6  7  1  0  0  0  0
  7  8  2  0  0  0  0
  7  9  1  0  0  0  0
  9 10  1  0  0  0  0
 10 11  1  0  0  0  0
 11 12  2  0  0  0  0
 11 13  2  0  0  0  0
 11 14  1  0  0  0  0
 14 19  2  0  0  0  0
 14 15  1  0  0  0  0
 15 16  2  0  0  0  0
 16 24  1  0  0  0  0
 16 17  1  0  0  0  0
 17 18  2  0  0  0  0
 17 21  1  0  0  0  0
 18 19  1  0  0  0  0
 19 20  1  0  0  0  0
 21 22  1  0  0  0  0
 22 23  2  0  0  0  0
 22 24  1  0  0  0  0
  1 25  1  0  0  0  0
  1 26  1  0  0  0  0
  1 27  1  0  0  0  0
  5 28  1  0  0  0  0
  5 29  1  0  0  0  0
  6 30  1  0  0  0  0
  9 31  1  0  0  0  0
  9 32  1  0  0  0  0
 10 33  1  0  0  0  0
 15 34  1  0  0  0  0
 18 35  1  0  0  0  0
 21 36  1  0  0  0  0
 24 37  1  0  0  0  0
 24 38  1  0  0  0  0
M  END
> <Name>
ZINC27969144

> <reference>
BDB4952

> <quality>
0.729

> <status>
decoy

$$$$
ZINC21264479
  SciTegic06141217593D

 35 35  0  0  0  0            999 V2000
   -0.0127    1.0858    0.0080 C   0  0  0  0  0  0  0  0  0  0  0  0
   -0.7288    1.5792    1.2668 C   0  0  0  0  0  0  0  0  0  0  0  0
   -2.1427    1.0576    1.2775 C   0  0  0  0  0  0  0  0  0  0  0  0
   -2.6288   -0.0589    1.7819 N   0  0  0  0  0  0  0  0  0  0  0  0
   -3.8596   -0.3237    1.6909 N   0  0  0  0  0  0  0  0  0  0  0  0
   -4.7080    0.4954    1.0933 C   0  0  0  0  0  0  0  0  0  0  0  0
   -3.6389    1.7817    0.6162 S   0  0  0  0  0  0  0  0  0  0  0  0
   -6.0798    0.3668    0.9036 N   0  0  0  0  0  0  0  0  0  0  0  0
   -6.7245   -0.7234    1.3643 C   0  0  0  0  0  0  0  0  0  0  0  0
   -6.1084   -1.5924    1.9443 O   0  5  0  0  0  0  0  0  0  0  0  0
   -8.2109   -0.8628    1.1589 C   0  0  0  0  0  0  0  0  0  0  0  0
   -8.6701   -2.1278    1.7478 N   0  3  0  0  0  0  0  0  0  0  0  0
  -10.1179   -2.2981    1.5661 C   0  0  1  0  0  0  0  0  0  0  0  0
  -10.8565   -1.1436    2.2462 C   0  0  0  0  0  0  0  0  0  0  0  0
  -10.4471   -2.3045    0.0720 C   0  0  0  0  0  0  0  0  0  0  0  0
  -10.5579   -3.6236    2.1910 C   0  0  0  0  0  0  0  0  0  0  0  0
  -11.9662   -3.7892    2.0143 O   0  0  0  0  0  0  0  0  0  0  0  0
   -0.5438    1.4499   -0.8838 H   0  0  0  0  0  0  0  0  0  0  0  0
    0.0029   -0.0141    0.0011 H   0  0  0  0  0  0  0  0  0  0  0  0
    1.0194    1.4662   -0.0004 H   0  0  0  0  0  0  0  0  0  0  0  0
   -0.1972    1.2144    2.1580 H   0  0  0  0  0  0  0  0  0  0  0  0
   -0.7445    2.6791    1.2738 H   0  0  0  0  0  0  0  0  0  0  0  0
   -8.7288   -0.0231    1.6455 H   0  0  0  0  0  0  0  0  0  0  0  0
   -8.4354   -0.8577    0.0821 H   0  0  0  0  0  0  0  0  0  0  0  0
   -8.1772   -2.9114    1.2963 H   0  0  0  0  0  0  0  0  0  0  0  0
   -8.4518   -2.1340    2.7544 H   0  0  0  0  0  0  0  0  0  0  0  0
  -10.5410   -0.1901    1.7975 H   0  0  0  0  0  0  0  0  0  0  0  0
  -10.6206   -1.1383    3.3206 H   0  0  0  0  0  0  0  0  0  0  0  0
  -11.9407   -1.2705    2.1105 H   0  0  0  0  0  0  0  0  0  0  0  0
   -9.9167   -3.1344   -0.4178 H   0  0  0  0  0  0  0  0  0  0  0  0
  -10.1313   -1.3518   -0.3782 H   0  0  0  0  0  0  0  0  0  0  0  0
  -11.5311   -2.4320   -0.0648 H   0  0  0  0  0  0  0  0  0  0  0  0
  -10.3218   -3.6200    3.2654 H   0  0  0  0  0  0  0  0  0  0  0  0
  -10.0274   -4.4538    1.7017 H   0  0  0  0  0  0  0  0  0  0  0  0
  -12.1802   -3.7937    1.0477 H   0  0  0  0  0  0  0  0  0  0  0  0
  1  2  1  0  0  0  0
  2  3  1  0  0  0  0
  3  7  1  0  0  0  0
  3  4  2  0  0  0  0
  4  5  1  0  0  0  0
  5  6  2  0  0  0  0
  6  7  1  0  0  0  0
  6  8  1  0  0  0  0
  8  9  2  0  0  0  0
  9 10  1  0  0  0  0
  9 11  1  0  0  0  0
 11 12  1  0  0  0  0
 12 13  1  0  0  0  0
 13 14  1  0  0  0  0
 13 15  1  0  0  0  0
 13 16  1  0  0  0  0
 16 17  1  0  0  0  0
  1 18  1  0  0  0  0
  1 19  1  0  0  0  0
  1 20  1  0  0  0  0
  2 21  1  0  0  0  0
  2 22  1  0  0  0  0
 11 23  1  0  0  0  0
 11 24  1  0  0  0  0
 12 25  1  0  0  0  0
 12 26  1  0  0  0  0
 14 27  1  0  0  0  0
 14 28  1  0  0  0  0
 14 29  1  0  0  0  0
 15 30  1  0  0  0  0
 15 31  1  0  0  0  0
 15 32  1  0  0  0  0
 16 33  1  0  0  0  0
 16 34  1  0  0  0  0
 17 35  1  0  0  0  0
M  CHG  2  10  -1  12   1
M  END
> <Name>
ZINC21264479

> <reference>
BDB4995

> <quality>
0.774

> <status>
decoy

$$$$
ZINC05885721
  SciTegic06141217593D

 52 53  0  0  0  0            999 V2000
    6.5003    5.5299    4.6670 C   0  0  0  0  0  0  0  0  0  0  0  0
    7.5539    4.7899    3.9597 N   0  3  1  0  0  0  0  0  0  0  0  0
    7.7957    3.5110    4.6409 C   0  0  0  0  0  0  0  0  0  0  0  0
    7.1294    4.5354    2.5766 C   0  0  0  0  0  0  0  0  0  0  0  0
    5.8417    3.7092    2.5822 C   0  0  0  0  0  0  0  0  0  0  0  0
    5.3995    3.4441    1.1417 C   0  0  0  0  0  0  0  0  0  0  0  0
    4.1665    2.6530    1.1471 N   0  0  0  0  0  0  0  0  0  0  0  0
    3.5888    2.2974   -0.0176 C   0  0  0  0  0  0  0  0  0  0  0  0
    4.0914    2.6335   -1.0735 O   0  0  0  0  0  0  0  0  0  0  0  0
    2.3532    1.5046   -0.0122 C   0  0  0  0  0  0  0  0  0  0  0  0
    2.3927    0.0404   -0.0231 C   0  0  0  0  0  0  0  0  0  0  0  0
    3.4597   -0.5534   -0.0334 O   0  0  0  0  0  0  0  0  0  0  0  0
    1.1624   -0.6774   -0.0208 C   0  0  0  0  0  0  0  0  0  0  0  0
    0.0021   -0.0041    0.0020 C   0  0  0  0  0  0  0  0  0  0  0  0
   -0.0165    1.3646    0.0095 N   0  0  0  0  0  0  0  0  0  0  0  0
    1.1026    2.1193    0.0029 C   0  0  0  0  0  0  0  0  0  0  0  0
    1.0107    3.4643    0.0104 O   0  0  0  0  0  0  0  0  0  0  0  0
   -1.3377   -0.6987    0.0292 C   0  0  0  0  0  0  0  0  0  0  0  0
   -1.2050   -2.1510   -0.4211 C   0  0  0  0  0  0  0  0  0  0  0  0
   -0.0794   -2.8038    0.3910 C   0  0  0  0  0  0  0  0  0  0  0  0
    1.2442   -2.1811   -0.0472 C   0  0  0  0  0  0  0  0  0  0  0  0
    8.7903    5.5832    3.9543 C   0  0  0  0  0  0  0  0  0  0  0  0
    9.2258    5.8443    5.3732 C   0  0  0  0  0  0  0  0  0  0  0  0
   10.4313    5.5085    5.7606 C   0  0  0  0  0  0  0  0  0  0  0  0
    6.8174    5.7212    5.7028 H   0  0  0  0  0  0  0  0  0  0  0  0
    5.5739    4.9367    4.6714 H   0  0  0  0  0  0  0  0  0  0  0  0
    6.3187    6.4877    4.1574 H   0  0  0  0  0  0  0  0  0  0  0  0
    6.8705    2.9160    4.6452 H   0  0  0  0  0  0  0  0  0  0  0  0
    8.1139    3.7005    5.6767 H   0  0  0  0  0  0  0  0  0  0  0  0
    8.5846    2.9563    4.1117 H   0  0  0  0  0  0  0  0  0  0  0  0
    6.9478    5.4929    2.0665 H   0  0  0  0  0  0  0  0  0  0  0  0
    7.9175    3.9810    2.0461 H   0  0  0  0  0  0  0  0  0  0  0  0
    6.0227    2.7513    3.0918 H   0  0  0  0  0  0  0  0  0  0  0  0
    5.0520    4.2626    3.1114 H   0  0  0  0  0  0  0  0  0  0  0  0
    5.2179    4.4016    0.6316 H   0  0  0  0  0  0  0  0  0  0  0  0
    6.1876    2.8897    0.6112 H   0  0  0  0  0  0  0  0  0  0  0  0
    3.7411    2.3685    2.0410 H   0  0  0  0  0  0  0  0  0  0  0  0
   -0.9291    1.8420    0.0207 H   0  0  0  0  0  0  0  0  0  0  0  0
    1.5156    3.7578   -0.7890 H   0  0  0  0  0  0  0  0  0  0  0  0
   -2.0340   -0.1735   -0.6411 H   0  0  0  0  0  0  0  0  0  0  0  0
   -1.7403   -0.6715    1.0525 H   0  0  0  0  0  0  0  0  0  0  0  0
   -2.1498   -2.6833   -0.2366 H   0  0  0  0  0  0  0  0  0  0  0  0
   -0.9555   -2.1860   -1.4919 H   0  0  0  0  0  0  0  0  0  0  0  0
   -0.0608   -3.8862    0.1959 H   0  0  0  0  0  0  0  0  0  0  0  0
   -0.2393   -2.6156    1.4629 H   0  0  0  0  0  0  0  0  0  0  0  0
    2.0438   -2.5144    0.6307 H   0  0  0  0  0  0  0  0  0  0  0  0
    1.4814   -2.5142   -1.0684 H   0  0  0  0  0  0  0  0  0  0  0  0
    8.6104    6.5412    3.4446 H   0  0  0  0  0  0  0  0  0  0  0  0
    9.5795    5.0289    3.4252 H   0  0  0  0  0  0  0  0  0  0  0  0
    8.5315    6.3168    6.0835 H   0  0  0  0  0  0  0  0  0  0  0  0
   11.1257    5.0360    5.0503 H   0  0  0  0  0  0  0  0  0  0  0  0
   10.7492    5.6991    6.7963 H   0  0  0  0  0  0  0  0  0  0  0  0
  1  2  1  0  0  0  0
  2  3  1  0  0  0  0
  2  4  1  0  0  0  0
  2 22  1  0  0  0  0
  4  5  1  0  0  0  0
  5  6  1  0  0  0  0
  6  7  1  0  0  0  0
  7  8  1  0  0  0  0
  8  9  2  0  0  0  0
  8 10  1  0  0  0  0
 10 16  2  0  0  0  0
 10 11  1  0  0  0  0
 11 12  2  0  0  0  0
 11 13  1  0  0  0  0
 13 21  1  0  0  0  0
 13 14  2  0  0  0  0
 14 15  1  0  0  0  0
 14 18  1  0  0  0  0
 15 16  1  0  0  0  0
 16 17  1  0  0  0  0
 18 19  1  0  0  0  0
 19 20  1  0  0  0  0
 20 21  1  0  0  0  0
 22 23  1  0  0  0  0
 23 24  2  0  0  0  0
  1 25  1  0  0  0  0
  1 26  1  0  0  0  0
  1 27  1  0  0  0  0
  3 28  1  0  0  0  0
  3 29  1  0  0  0  0
  3 30  1  0  0  0  0
  4 31  1  0  0  0  0
  4 32  1  0  0  0  0
  5 33  1  0  0  0  0
  5 34  1  0  0  0  0
  6 35  1  0  0  0  0
  6 36  1  0  0  0  0
  7 37  1  0  0  0  0
 15 38  1  0  0  0  0
 17 39  1  0  0  0  0
 18 40  1  0  0  0  0
 18 41  1  0  0  0  0
 19 42  1  0  0  0  0
 19 43  1  0  0  0  0
 20 44  1  0  0  0  0
 20 45  1  0  0  0  0
 21 46  1  0  0  0  0
 21 47  1  0  0  0  0
 22 48  1  0  0  0  0
 22 49  1  0  0  0  0
 23 50  1  0  0  0  0
 24 51  1  0  0  0  0
 24 52  1  0  0  0  0
M  CHG  1   2   1
M  END
> <Name>
ZINC05885721

> <reference>
BDB4934

> <quality>
0.727

> <status>
decoy

$$$$
ZINC03365459
  SciTegic06141217593D

 45 46  0  0  0  0            999 V2000
    1.5483   14.4821    0.2951 C   0  0  0  0  0  0  0  0  0  0  0  0
    1.7298   13.2935    1.0673 O   0  0  0  0  0  0  0  0  0  0  0  0
    0.6164   12.3986    1.0272 C   0  0  0  0  0  0  0  0  0  0  0  0
    0.9154   11.1865    1.8712 C   0  0  0  0  0  0  0  0  0  0  0  0
    1.9774   11.0977    2.4502 O   0  0  0  0  0  0  0  0  0  0  0  0
    0.0026   10.2012    1.9828 N   0  0  0  0  0  0  0  0  0  0  0  0
    0.2806    9.0743    2.7675 N   0  0  0  0  0  0  0  0  0  0  0  0
   -0.6321    8.0890    2.8790 C   0  0  0  0  0  0  0  0  0  0  0  0
   -1.6965    8.1780    2.2988 O   0  0  0  0  0  0  0  0  0  0  0  0
   -0.3388    6.8999    3.7071 C   0  0  0  0  0  0  0  0  0  0  0  0
    0.8824    6.7947    4.3751 C   0  0  0  0  0  0  0  0  0  0  0  0
    1.1497    5.6829    5.1464 C   0  0  0  0  0  0  0  0  0  0  0  0
    0.2082    4.6754    5.2631 C   0  0  0  0  0  0  0  0  0  0  0  0
   -1.0019    4.7709    4.5995 C   0  0  0  0  0  0  0  0  0  0  0  0
   -1.2818    5.8778    3.8247 C   0  0  0  0  0  0  0  0  0  0  0  0
   -2.1912    3.4796    4.7498 S   0  0  0  0  0  0  0  0  0  0  0  0
   -3.4588    4.0612    4.4774 O   0  0  0  0  0  0  0  0  0  0  0  0
   -1.9080    2.8065    5.9688 O   0  0  0  0  0  0  0  0  0  0  0  0
   -1.8955    2.3973    3.5318 N   0  5  0  0  0  0  0  0  0  0  0  0
   -0.6588    1.7458    3.4594 C   0  0  0  0  0  0  0  0  0  0  0  0
    0.0042    1.3811    4.6221 C   0  0  0  0  0  0  0  0  0  0  0  0
    1.2279    0.7425    4.5481 C   0  0  0  0  0  0  0  0  0  0  0  0
    1.7914    0.4615    3.3173 C   0  0  0  0  0  0  0  0  0  0  0  0
    1.1338    0.8174    2.1541 C   0  0  0  0  0  0  0  0  0  0  0  0
   -0.0929    1.4571    2.2196 C   0  0  0  0  0  0  0  0  0  0  0  0
   -0.7408    1.8077    1.0762 O   0  0  0  0  0  0  0  0  0  0  0  0
   -0.0980    1.4853   -0.1586 C   0  0  0  0  0  0  0  0  0  0  0  0
    0.6516   14.9920    0.6772 H   0  0  0  0  0  0  0  0  0  0  0  0
    1.3584   14.1764   -0.7444 H   0  0  0  0  0  0  0  0  0  0  0  0
    2.4273   15.1407    0.3543 H   0  0  0  0  0  0  0  0  0  0  0  0
    0.4336   12.0853   -0.0113 H   0  0  0  0  0  0  0  0  0  0  0  0
   -0.2769   12.9066    1.4196 H   0  0  0  0  0  0  0  0  0  0  0  0
   -0.8994   10.2767    1.4912 H   0  0  0  0  0  0  0  0  0  0  0  0
    1.1825    8.9989    3.2592 H   0  0  0  0  0  0  0  0  0  0  0  0
    1.6300    7.5968    4.2866 H   0  0  0  0  0  0  0  0  0  0  0  0
    2.1133    5.5969    5.6699 H   0  0  0  0  0  0  0  0  0  0  0  0
    0.4230    3.7947    5.8863 H   0  0  0  0  0  0  0  0  0  0  0  0
   -2.2460    5.9545    3.3009 H   0  0  0  0  0  0  0  0  0  0  0  0
   -0.4437    1.6000    5.6026 H   0  0  0  0  0  0  0  0  0  0  0  0
    1.7546    0.4572    5.4707 H   0  0  0  0  0  0  0  0  0  0  0  0
    2.7655   -0.0466    3.2632 H   0  0  0  0  0  0  0  0  0  0  0  0
    1.5851    0.5924    1.1765 H   0  0  0  0  0  0  0  0  0  0  0  0
    0.0642    0.3974   -0.1480 H   0  0  0  0  0  0  0  0  0  0  0  0
    0.8873    1.9736   -0.1310 H   0  0  0  0  0  0  0  0  0  0  0  0
   -0.6814    1.7994   -1.0367 H   0  0  0  0  0  0  0  0  0  0  0  0
  1  2  1  0  0  0  0
  2  3  1  0  0  0  0
  3  4  1  0  0  0  0
  4  5  2  0  0  0  0
  4  6  1  0  0  0  0
  6  7  1  0  0  0  0
  7  8  1  0  0  0  0
  8  9  2  0  0  0  0
  8 10  1  0  0  0  0
 10 15  2  0  0  0  0
 10 11  1  0  0  0  0
 11 12  2  0  0  0  0
 12 13  1  0  0  0  0
 13 14  2  0  0  0  0
 14 15  1  0  0  0  0
 14 16  1  0  0  0  0
 16 17  2  0  0  0  0
 16 18  2  0  0  0  0
 16 19  1  0  0  0  0
 19 20  1  0  0  0  0
 20 25  2  0  0  0  0
 20 21  1  0  0  0  0
 21 22  2  0  0  0  0
 22 23  1  0  0  0  0
 23 24  2  0  0  0  0
 24 25  1  0  0  0  0
 25 26  1  0  0  0  0
 26 27  1  0  0  0  0
  1 28  1  0  0  0  0
  1 29  1  0  0  0  0
  1 30  1  0  0  0  0
  3 31  1  0  0  0  0
  3 32  1  0  0  0  0
  6 33  1  0  0  0  0
  7 34  1  0  0  0  0
 11 35  1  0  0  0  0
 12 36  1  0  0  0  0
 13 37  1  0  0  0  0
 15 38  1  0  0  0  0
 21 39  1  0  0  0  0
 22 40  1  0  0  0  0
 23 41  1  0  0  0  0
 24 42  1  0  0  0  0
 27 43  1  0  0  0  0
 27 44  1  0  0  0  0
 27 45  1  0  0  0  0
M  CHG  1  19  -1
M  END
> <Name>
ZINC03365459

> <reference>
BDB4945

> <quality>
0.723

> <status>
decoy

$$$$
ZINC05594650
  SciTegic06141217593D

 33 34  0  0  1  0            999 V2000
    0.6856   -2.6001   -0.0192 C   0  0  0  0  0  0  0  0  0  0  0  0
   -0.5949   -2.2766   -0.0053 N   0  0  0  0  0  0  0  0  0  0  0  0
   -0.9836   -1.0059    0.0056 C   0  0  0  0  0  0  0  0  0  0  0  0
    0.0021   -0.0041    0.0020 C   0  0  0  0  0  0  0  0  0  0  0  0
    1.3500   -0.3998   -0.0130 C   0  0  0  0  0  0  0  0  0  0  0  0
    1.6425   -1.6964   -0.0231 N   0  0  0  0  0  0  0  0  0  0  0  0
    2.0845    0.7590   -0.0138 N   0  0  0  0  0  0  0  0  0  0  0  0
    1.2049    1.8003    0.0002 C   0  0  0  0  0  0  0  0  0  0  0  0
   -0.0163    1.3505    0.0095 N   0  0  0  0  0  0  0  0  0  0  0  0
    3.5460    0.8590   -0.0279 C   0  0  0  0  0  0  0  0  0  0  0  0
    4.0489    0.7765   -1.4706 C   0  0  0  0  0  0  0  0  0  0  0  0
    5.4745    0.8740   -1.4844 O   0  0  0  0  0  0  0  0  0  0  0  0
    6.0490    0.8076   -2.7911 C   0  0  0  0  0  0  0  0  0  0  0  0
    7.5711    0.9215   -2.6854 C   0  0  1  0  0  0  0  0  0  0  0  0
    8.1944    0.7258   -4.0689 C   0  0  0  0  0  0  0  0  0  0  0  0
    9.6187    0.7160   -3.9526 O   0  0  0  0  0  0  0  0  0  0  0  0
    7.9184    2.2142   -2.1850 O   0  0  0  0  0  0  0  0  0  0  0  0
   -2.3277   -0.6768    0.0207 N   0  0  0  0  0  0  0  0  0  0  0  0
    0.9627   -3.6646   -0.0278 H   0  0  0  0  0  0  0  0  0  0  0  0
    1.4858    2.8638    0.0032 H   0  0  0  0  0  0  0  0  0  0  0  0
    3.8522    1.8195    0.4122 H   0  0  0  0  0  0  0  0  0  0  0  0
    3.9768    0.0334    0.5576 H   0  0  0  0  0  0  0  0  0  0  0  0
    3.7433   -0.1840   -1.9112 H   0  0  0  0  0  0  0  0  0  0  0  0
    3.6199    1.6021   -2.0574 H   0  0  0  0  0  0  0  0  0  0  0  0
    5.6620    1.6339   -3.4054 H   0  0  0  0  0  0  0  0  0  0  0  0
    5.7853   -0.1522   -3.2594 H   0  0  0  0  0  0  0  0  0  0  0  0
    7.9499    0.1491   -2.0000 H   0  0  0  0  0  0  0  0  0  0  0  0
    7.8869    1.5490   -4.7306 H   0  0  0  0  0  0  0  0  0  0  0  0
    7.8550   -0.2311   -4.4921 H   0  0  0  0  0  0  0  0  0  0  0  0
    9.8971   -0.0251   -3.3582 H   0  0  0  0  0  0  0  0  0  0  0  0
    7.5157    2.3417   -1.2896 H   0  0  0  0  0  0  0  0  0  0  0  0
   -3.0330   -1.4274    0.0235 H   0  0  0  0  0  0  0  0  0  0  0  0
   -2.6221    0.3102    0.0291 H   0  0  0  0  0  0  0  0  0  0  0  0
  1  6  1  0  0  0  0
  1  2  2  0  0  0  0
  2  3  1  0  0  0  0
  3  4  2  0  0  0  0
  3 18  1  0  0  0  0
  4  9  1  0  0  0  0
  4  5  1  0  0  0  0
  5  6  2  0  0  0  0
  5  7  1  0  0  0  0
  7  8  1  0  0  0  0
  7 10  1  0  0  0  0
  8  9  2  0  0  0  0
 10 11  1  0  0  0  0
 11 12  1  0  0  0  0
 12 13  1  0  0  0  0
 13 14  1  0  0  0  0
 14 15  1  0  0  0  0
 14 17  1  0  0  0  0
 15 16  1  0  0  0  0
  1 19  1  0  0  0  0
  8 20  1  0  0  0  0
 10 21  1  0  0  0  0
 10 22  1  0  0  0  0
 11 23  1  0  0  0  0
 11 24  1  0  0  0  0
 13 25  1  0  0  0  0
 13 26  1  0  0  0  0
 14 27  1  0  0  0  0
 15 28  1  0  0  0  0
 15 29  1  0  0  0  0
 16 30  1  0  0  0  0
 17 31  1  0  0  0  0
 18 32  1  0  0  0  0
 18 33  1  0  0  0  0
M  END
> <Name>
ZINC05594650

> <reference>
BDB5015

> <quality>
0.709

> <status>
decoy

$$$$
ZINC23581324
  SciTegic06141217593D

 46 48  0  0  1  0            999 V2000
    3.1682    3.1143   -0.5572 C   0  0  0  0  0  0  0  0  0  0  0  0
    3.4482    2.3527    0.5820 C   0  0  0  0  0  0  0  0  0  0  0  0
    2.3609    1.7083    0.9202 N   0  0  0  0  0  0  0  0  0  0  0  0
    1.3557    2.0329    0.0000 N   0  0  0  0  0  0  0  0  0  0  0  0
    1.8754    2.8997   -0.8942 C   0  0  0  0  0  0  0  0  0  0  0  0
   -0.0187    1.5258    0.0104 C   0  0  0  0  0  0  0  0  0  0  0  0
    0.0021   -0.0041    0.0020 C   0  0  0  0  0  0  0  0  0  0  0  0
   -1.3723   -0.5112    0.0124 N   0  0  0  0  0  0  0  0  0  0  0  0
   -2.0122   -0.7309   -1.1530 C   0  0  0  0  0  0  0  0  0  0  0  0
   -1.4498   -0.5082   -2.2142 O   0  0  0  0  0  0  0  0  0  0  0  0
   -3.3249   -1.2217   -1.1402 C   0  0  0  0  0  0  0  0  0  0  0  0
   -3.9405   -1.4595    0.0747 C   0  0  0  0  0  0  0  0  0  0  0  0
   -3.2334   -1.2089    1.2707 C   0  0  0  0  0  0  0  0  0  0  0  0
   -2.0113   -0.7577    1.2320 N   0  0  0  0  0  0  0  0  0  0  0  0
   -5.2378   -1.9385    0.1180 N   0  0  0  0  0  0  0  0  0  0  0  0
   -6.1379   -0.9651    0.7535 C   0  0  0  0  0  0  0  0  0  0  0  0
   -7.5690   -1.5083    0.7267 C   0  0  0  0  0  0  0  0  0  0  0  0
   -7.6025   -2.7816    1.3771 O   0  0  0  0  0  0  0  0  0  0  0  0
   -6.7380   -3.7541    0.7836 C   0  0  1  0  0  0  0  0  0  0  0  0
   -5.2984   -3.2337    0.8109 C   0  0  0  0  0  0  0  0  0  0  0  0
   -6.8233   -5.0625    1.5722 C   0  0  0  0  0  0  0  0  0  0  0  0
   -8.2314   -5.6463    1.4407 C   0  0  0  0  0  0  0  0  0  0  0  0
   -8.3133   -6.9024    2.1979 N   0  3  0  0  0  0  0  0  0  0  0  0
    3.8742    3.7716   -1.0858 H   0  0  0  0  0  0  0  0  0  0  0  0
    4.4155    2.3039    1.1035 H   0  0  0  0  0  0  0  0  0  0  0  0
    1.3434    3.3510   -1.7447 H   0  0  0  0  0  0  0  0  0  0  0  0
   -0.5335    1.8800    0.9157 H   0  0  0  0  0  0  0  0  0  0  0  0
   -0.5516    1.8894   -0.8805 H   0  0  0  0  0  0  0  0  0  0  0  0
    0.5165   -0.3590   -0.9033 H   0  0  0  0  0  0  0  0  0  0  0  0
    0.5337   -0.3696    0.8929 H   0  0  0  0  0  0  0  0  0  0  0  0
   -3.8576   -1.4149   -2.0830 H   0  0  0  0  0  0  0  0  0  0  0  0
   -3.7168   -1.3956    2.2410 H   0  0  0  0  0  0  0  0  0  0  0  0
   -6.0972   -0.0127    0.2046 H   0  0  0  0  0  0  0  0  0  0  0  0
   -5.8267   -0.8031    1.7961 H   0  0  0  0  0  0  0  0  0  0  0  0
   -8.2367   -0.8101    1.2527 H   0  0  0  0  0  0  0  0  0  0  0  0
   -7.9008   -1.6205   -0.3160 H   0  0  0  0  0  0  0  0  0  0  0  0
   -7.0453   -3.9349   -0.2570 H   0  0  0  0  0  0  0  0  0  0  0  0
   -4.6388   -3.9531    0.3034 H   0  0  0  0  0  0  0  0  0  0  0  0
   -4.9737   -3.1088    1.8544 H   0  0  0  0  0  0  0  0  0  0  0  0
   -6.0909   -5.7797    1.1732 H   0  0  0  0  0  0  0  0  0  0  0  0
   -6.6055   -4.8676    2.6327 H   0  0  0  0  0  0  0  0  0  0  0  0
   -8.9643   -4.9297    1.8398 H   0  0  0  0  0  0  0  0  0  0  0  0
   -8.4505   -5.8430    0.3808 H   0  0  0  0  0  0  0  0  0  0  0  0
   -8.1095   -6.7198    3.1909 H   0  0  0  0  0  0  0  0  0  0  0  0
   -7.6276   -7.5745    1.8252 H   0  0  0  0  0  0  0  0  0  0  0  0
   -9.2611   -7.2960    2.1098 H   0  0  0  0  0  0  0  0  0  0  0  0
  1  5  2  0  0  0  0
  1  2  1  0  0  0  0
  2  3  2  0  0  0  0
  3  4  1  0  0  0  0
  4  5  1  0  0  0  0
  4  6  1  0  0  0  0
  6  7  1  0  0  0  0
  7  8  1  0  0  0  0
  8 14  1  0  0  0  0
  8  9  1  0  0  0  0
  9 10  2  0  0  0  0
  9 11  1  0  0  0  0
 11 12  2  0  0  0  0
 12 13  1  0  0  0  0
 12 15  1  0  0  0  0
 13 14  2  0  0  0  0
 15 20  1  0  0  0  0
 15 16  1  0  0  0  0
 16 17  1  0  0  0  0
 17 18  1  0  0  0  0
 18 19  1  0  0  0  0
 19 20  1  0  0  0  0
 19 21  1  0  0  0  0
 21 22  1  0  0  0  0
 22 23  1  0  0  0  0
  1 24  1  0  0  0  0
  2 25  1  0  0  0  0
  5 26  1  0  0  0  0
  6 27  1  0  0  0  0
  6 28  1  0  0  0  0
  7 29  1  0  0  0  0
  7 30  1  0  0  0  0
 11 31  1  0  0  0  0
 13 32  1  0  0  0  0
 16 33  1  0  0  0  0
 16 34  1  0  0  0  0
 17 35  1  0  0  0  0
 17 36  1  0  0  0  0
 19 37  1  0  0  0  0
 20 38  1  0  0  0  0
 20 39  1  0  0  0  0
 21 40  1  0  0  0  0
 21 41  1  0  0  0  0
 22 42  1  0  0  0  0
 22 43  1  0  0  0  0
 23 44  1  0  0  0  0
 23 45  1  0  0  0  0
 23 46  1  0  0  0  0
M  CHG  1  23   1
M  END
> <Name>
ZINC23581324

> <reference>
BDB5198

> <quality>
0.750

> <status>
decoy

$$$$
ZINC10569467
  SciTegic06141217593D

 35 35  0  0  1  0            999 V2000
   -1.2367    2.2323    0.0203 C   0  0  0  0  0  0  0  0  0  0  0  0
   -0.0163    1.3483    0.0095 C   0  0  0  0  0  0  0  0  0  0  0  0
    0.0021   -0.0041    0.0020 C   0  0  0  0  0  0  0  0  0  0  0  0
    1.3848   -0.3278   -0.0129 C   0  0  0  0  0  0  0  0  0  0  0  0
    2.0263    0.8111   -0.0129 N   0  0  0  0  0  0  0  0  0  0  0  0
    1.2633    1.7490   -0.0006 O   0  0  0  0  0  0  0  0  0  0  0  0
    1.9459   -1.6050   -0.0258 N   0  0  0  0  0  0  0  0  0  0  0  0
    1.1483   -2.6914   -0.0248 C   0  0  0  0  0  0  0  0  0  0  0  0
   -0.0571   -2.5587   -0.0127 O   0  0  0  0  0  0  0  0  0  0  0  0
    1.7543   -4.0711   -0.0388 C   0  0  2  0  0  0  0  0  0  0  0  0
    2.1754   -4.4288   -1.4655 C   0  0  0  0  0  0  0  0  0  0  0  0
    0.5316   -5.2746    0.5505 S   0  0  0  0  0  0  0  0  0  0  0  0
    1.4510   -6.8369    0.6183 C   0  0  0  0  0  0  0  0  0  0  0  0
    0.5391   -7.9359    1.0996 C   0  0  0  0  0  0  0  0  0  0  0  0
   -0.6129   -7.6904    1.3691 O   0  0  0  0  0  0  0  0  0  0  0  0
    1.0065   -9.1875    1.2287 O   0  0  0  0  0  0  0  0  0  0  0  0
    0.0720  -10.1952    1.6973 C   0  0  0  0  0  0  0  0  0  0  0  0
    0.7700  -11.5283    1.7792 C   0  0  0  0  0  0  0  0  0  0  0  0
    1.9398  -11.6201    1.4728 O   0  0  0  0  0  0  0  0  0  0  0  0
    0.0941  -12.6185    2.1930 N   0  0  0  0  0  0  0  0  0  0  0  0
   -1.0710    2.8738   -0.8578 H   0  0  0  0  0  0  0  0  0  0  0  0
   -1.0567    2.8722    0.8968 H   0  0  0  0  0  0  0  0  0  0  0  0
   -2.2119    1.7234    0.0278 H   0  0  0  0  0  0  0  0  0  0  0  0
   -0.8551   -0.6934    0.0064 H   0  0  0  0  0  0  0  0  0  0  0  0
    2.9697   -1.7177   -0.0361 H   0  0  0  0  0  0  0  0  0  0  0  0
    2.6354   -4.0912    0.6195 H   0  0  0  0  0  0  0  0  0  0  0  0
    2.9171   -3.6997   -1.8237 H   0  0  0  0  0  0  0  0  0  0  0  0
    1.2949   -4.4091   -2.1246 H   0  0  0  0  0  0  0  0  0  0  0  0
    2.6178   -5.4358   -1.4764 H   0  0  0  0  0  0  0  0  0  0  0  0
    2.2988   -6.7349    1.3117 H   0  0  0  0  0  0  0  0  0  0  0  0
    1.8261   -7.0856   -0.3854 H   0  0  0  0  0  0  0  0  0  0  0  0
   -0.7731  -10.2671    0.9969 H   0  0  0  0  0  0  0  0  0  0  0  0
   -0.3004   -9.9151    2.6937 H   0  0  0  0  0  0  0  0  0  0  0  0
   -0.8994  -12.5405    2.4532 H   0  0  0  0  0  0  0  0  0  0  0  0
    0.5711  -13.5297    2.2490 H   0  0  0  0  0  0  0  0  0  0  0  0
  1  2  1  0  0  0  0
  2  6  1  0  0  0  0
  2  3  2  0  0  0  0
  3  4  1  0  0  0  0
  4  5  2  0  0  0  0
  4  7  1  0  0  0  0
  5  6  1  0  0  0  0
  7  8  1  0  0  0  0
  8  9  2  0  0  0  0
  8 10  1  0  0  0  0
 10 11  1  0  0  0  0
 10 12  1  0  0  0  0
 12 13  1  0  0  0  0
 13 14  1  0  0  0  0
 14 15  2  0  0  0  0
 14 16  1  0  0  0  0
 16 17  1  0  0  0  0
 17 18  1  0  0  0  0
 18 19  2  0  0  0  0
 18 20  1  0  0  0  0
  1 21  1  0  0  0  0
  1 22  1  0  0  0  0
  1 23  1  0  0  0  0
  3 24  1  0  0  0  0
  7 25  1  0  0  0  0
 10 26  1  0  0  0  0
 11 27  1  0  0  0  0
 11 28  1  0  0  0  0
 11 29  1  0  0  0  0
 13 30  1  0  0  0  0
 13 31  1  0  0  0  0
 17 32  1  0  0  0  0
 17 33  1  0  0  0  0
 20 34  1  0  0  0  0
 20 35  1  0  0  0  0
M  END
> <Name>
ZINC10569467

> <reference>
BDB4986

> <quality>
0.721

> <status>
decoy

$$$$
ZINC05838514
  SciTegic06141217593D

 46 48  0  0  1  0            999 V2000
    5.3723    5.4693    5.1842 C   0  0  0  0  0  0  0  0  0  0  0  0
    4.9184    4.0326    4.9183 C   0  0  0  0  0  0  0  0  0  0  0  0
    4.9551    3.7564    3.4138 C   0  0  0  0  0  0  0  0  0  0  0  0
    4.5011    2.3197    3.1479 C   0  0  0  0  0  0  0  0  0  0  0  0
    4.1057    0.6810    1.4098 C   0  0  2  0  0  0  0  0  0  0  0  0
    5.3173   -0.2779    1.4096 C   0  0  2  0  0  0  0  0  0  0  0  0
    5.3501   -0.8409   -0.0286 C   0  0  2  0  0  0  0  0  0  0  0  0
    3.9954   -0.7027   -0.5100 O   0  0  0  0  0  0  0  0  0  0  0  0
    3.5499    0.5838   -0.0282 C   0  0  1  0  0  0  0  0  0  0  0  0
    2.0862    0.6442   -0.0144 N   0  0  0  0  0  0  0  0  0  0  0  0
    1.2350   -0.4205   -0.0120 C   0  0  0  0  0  0  0  0  0  0  0  0
    0.0021   -0.0041    0.0020 N   0  0  0  0  0  0  0  0  0  0  0  0
   -0.0163    1.3505    0.0095 C   0  0  0  0  0  0  0  0  0  0  0  0
    1.3208    1.7828   -0.0010 C   0  0  0  0  0  0  0  0  0  0  0  0
    1.5781    3.0865    0.0039 N   0  0  0  0  0  0  0  0  0  0  0  0
    0.5969    3.9640    0.0184 C   0  0  0  0  0  0  0  0  0  0  0  0
   -0.6740    3.6060    0.0291 N   0  0  0  0  0  0  0  0  0  0  0  0
   -1.0283    2.3250    0.0295 C   0  0  0  0  0  0  0  0  0  0  0  0
   -2.3630    1.9595    0.0471 N   0  0  0  0  0  0  0  0  0  0  0  0
    5.7626   -2.3142   -0.0145 C   0  0  0  0  0  0  0  0  0  0  0  0
    5.8998   -2.7833   -1.3573 O   0  0  0  0  0  0  0  0  0  0  0  0
    5.1238   -1.3295    2.3576 O   0  0  0  0  0  0  0  0  0  0  0  0
    4.5394    2.0615    1.6961 N   0  3  0  0  0  0  0  0  0  0  0  0
    4.6994    6.1692    4.6672 H   0  0  0  0  0  0  0  0  0  0  0  0
    6.3984    5.6056    4.8121 H   0  0  0  0  0  0  0  0  0  0  0  0
    5.3462    5.6686    6.2657 H   0  0  0  0  0  0  0  0  0  0  0  0
    5.5920    3.3334    5.4354 H   0  0  0  0  0  0  0  0  0  0  0  0
    3.8923    3.8962    5.2904 H   0  0  0  0  0  0  0  0  0  0  0  0
    4.2814    4.4550    2.8961 H   0  0  0  0  0  0  0  0  0  0  0  0
    5.9808    3.8911    3.0400 H   0  0  0  0  0  0  0  0  0  0  0  0
    5.1754    1.6198    3.6631 H   0  0  0  0  0  0  0  0  0  0  0  0
    3.4742    2.1832    3.5178 H   0  0  0  0  0  0  0  0  0  0  0  0
    3.3600    0.4190    2.1748 H   0  0  0  0  0  0  0  0  0  0  0  0
    6.2558    0.2233    1.6890 H   0  0  0  0  0  0  0  0  0  0  0  0
    6.0744   -0.3128   -0.6661 H   0  0  0  0  0  0  0  0  0  0  0  0
    3.8974    1.4102   -0.6656 H   0  0  0  0  0  0  0  0  0  0  0  0
    1.5446   -1.4760   -0.0206 H   0  0  0  0  0  0  0  0  0  0  0  0
    0.8451    5.0356    0.0217 H   0  0  0  0  0  0  0  0  0  0  0  0
   -2.6143    0.9606    0.0455 H   0  0  0  0  0  0  0  0  0  0  0  0
   -3.1001    2.6788    0.0617 H   0  0  0  0  0  0  0  0  0  0  0  0
    6.7232   -2.4211    0.5107 H   0  0  0  0  0  0  0  0  0  0  0  0
    4.9937   -2.9064    0.5033 H   0  0  0  0  0  0  0  0  0  0  0  0
    6.5923   -2.2519   -1.8244 H   0  0  0  0  0  0  0  0  0  0  0  0
    4.3045   -1.8320    2.1201 H   0  0  0  0  0  0  0  0  0  0  0  0
    5.5002    2.1954    1.3498 H   0  0  0  0  0  0  0  0  0  0  0  0
    3.9126    2.7223    1.2151 H   0  0  0  0  0  0  0  0  0  0  0  0
  1  2  1  0  0  0  0
  2  3  1  0  0  0  0
  3  4  1  0  0  0  0
  4 23  1  0  0  0  0
  5  9  1  0  0  0  0
  5  6  1  0  0  0  0
  5 23  1  0  0  0  0
  6  7  1  0  0  0  0
  6 22  1  0  0  0  0
  7  8  1  0  0  0  0
  7 20  1  0  0  0  0
  8  9  1  0  0  0  0
  9 10  1  0  0  0  0
 10 14  1  0  0  0  0
 10 11  1  0  0  0  0
 11 12  2  0  0  0  0
 12 13  1  0  0  0  0
 13 18  2  0  0  0  0
 13 14  1  0  0  0  0
 14 15  2  0  0  0  0
 15 16  1  0  0  0  0
 16 17  2  0  0  0  0
 17 18  1  0  0  0  0
 18 19  1  0  0  0  0
 20 21  1  0  0  0  0
  1 24  1  0  0  0  0
  1 25  1  0  0  0  0
  1 26  1  0  0  0  0
  2 27  1  0  0  0  0
  2 28  1  0  0  0  0
  3 29  1  0  0  0  0
  3 30  1  0  0  0  0
  4 31  1  0  0  0  0
  4 32  1  0  0  0  0
  5 33  1  0  0  0  0
  6 34  1  0  0  0  0
  7 35  1  0  0  0  0
  9 36  1  0  0  0  0
 11 37  1  0  0  0  0
 16 38  1  0  0  0  0
 19 39  1  0  0  0  0
 19 40  1  0  0  0  0
 20 41  1  0  0  0  0
 20 42  1  0  0  0  0
 21 43  1  0  0  0  0
 22 44  1  0  0  0  0
 23 45  1  0  0  0  0
 23 46  1  0  0  0  0
M  CHG  1  23   1
M  END
> <Name>
ZINC05838514

> <reference>
BDB5198

> <quality>
0.779

> <status>
decoy

$$$$
ZINC31971727
  SciTegic06141217593D

 47 48  0  0  0  0            999 V2000
   -1.1627   -3.9840    2.1852 C   0  0  0  0  0  0  0  0  0  0  0  0
   -0.4828   -4.7815    1.2138 O   0  0  0  0  0  0  0  0  0  0  0  0
    0.1127   -4.1241    0.1822 C   0  0  0  0  0  0  0  0  0  0  0  0
    0.0423   -2.7423    0.1093 C   0  0  0  0  0  0  0  0  0  0  0  0
    0.6491   -2.0715   -0.9422 C   0  0  0  0  0  0  0  0  0  0  0  0
    1.3250   -2.7890   -1.9278 C   0  0  0  0  0  0  0  0  0  0  0  0
    1.3990   -4.1718   -1.8497 C   0  0  0  0  0  0  0  0  0  0  0  0
    0.7921   -4.8397   -0.7984 C   0  0  0  0  0  0  0  0  0  0  0  0
    0.8610   -6.1965   -0.7248 O   0  0  0  0  0  0  0  0  0  0  0  0
    1.5746   -6.8673   -1.7655 C   0  0  0  0  0  0  0  0  0  0  0  0
    1.9341   -2.1129   -2.9947 N   0  0  0  0  0  0  0  0  0  0  0  0
    2.9721   -2.6757   -3.6444 C   0  0  0  0  0  0  0  0  0  0  0  0
    3.4440   -3.7193   -3.2448 O   0  0  0  0  0  0  0  0  0  0  0  0
    3.5466   -2.0086   -4.8675 C   0  0  2  0  0  0  0  0  0  0  0  0
    3.3409   -2.7048   -6.2143 C   0  0  0  0  0  0  0  0  0  0  0  0
    4.7241   -2.6971   -5.5605 C   0  0  0  0  0  0  0  0  0  0  0  0
    0.5777   -0.6730   -1.0168 N   0  0  0  0  0  0  0  0  0  0  0  0
   -0.4364   -0.0172   -0.4185 C   0  0  0  0  0  0  0  0  0  0  0  0
   -1.3402   -0.6396    0.0981 O   0  0  0  0  0  0  0  0  0  0  0  0
   -0.4473    1.4896   -0.3915 C   0  0  0  0  0  0  0  0  0  0  0  0
   -1.6982    1.9774    0.3421 C   0  0  0  0  0  0  0  0  0  0  0  0
   -1.7093    3.5071    0.3696 C   0  0  0  0  0  0  0  0  0  0  0  0
   -2.9104    3.9755    1.0739 N   0  3  0  0  0  0  0  0  0  0  0  0
   -1.9183   -3.4040    1.6350 H   0  0  0  0  0  0  0  0  0  0  0  0
   -0.4181   -3.2779    2.5814 H   0  0  0  0  0  0  0  0  0  0  0  0
   -1.6175   -4.5851    2.9863 H   0  0  0  0  0  0  0  0  0  0  0  0
   -0.4948   -2.1772    0.8853 H   0  0  0  0  0  0  0  0  0  0  0  0
    1.9395   -4.7382   -2.6224 H   0  0  0  0  0  0  0  0  0  0  0  0
    2.5915   -6.4479   -1.7632 H   0  0  0  0  0  0  0  0  0  0  0  0
    1.0914   -6.5754   -2.7096 H   0  0  0  0  0  0  0  0  0  0  0  0
    1.5867   -7.9598   -1.6374 H   0  0  0  0  0  0  0  0  0  0  0  0
    1.5882   -1.1862   -3.2818 H   0  0  0  0  0  0  0  0  0  0  0  0
    3.3562   -0.9982   -4.4765 H   0  0  0  0  0  0  0  0  0  0  0  0
    3.2814   -1.9792   -7.0389 H   0  0  0  0  0  0  0  0  0  0  0  0
    2.8436   -3.6784   -6.0929 H   0  0  0  0  0  0  0  0  0  0  0  0
    4.9550   -3.6670   -5.0958 H   0  0  0  0  0  0  0  0  0  0  0  0
    5.3923   -1.9669   -6.0405 H   0  0  0  0  0  0  0  0  0  0  0  0
    1.3002   -0.1470   -1.5288 H   0  0  0  0  0  0  0  0  0  0  0  0
    0.4493    1.8536    0.1316 H   0  0  0  0  0  0  0  0  0  0  0  0
   -0.4531    1.8759   -1.4214 H   0  0  0  0  0  0  0  0  0  0  0  0
   -2.5952    1.6141   -0.1808 H   0  0  0  0  0  0  0  0  0  0  0  0
   -1.6936    1.5929    1.3727 H   0  0  0  0  0  0  0  0  0  0  0  0
   -1.7150    3.8934   -0.6603 H   0  0  0  0  0  0  0  0  0  0  0  0
   -0.8128    3.8711    0.8928 H   0  0  0  0  0  0  0  0  0  0  0  0
   -2.9060    3.6155    2.0389 H   0  0  0  0  0  0  0  0  0  0  0  0
   -3.7508    3.6355    0.5850 H   0  0  0  0  0  0  0  0  0  0  0  0
   -2.9185    5.0053    1.0928 H   0  0  0  0  0  0  0  0  0  0  0  0
  1  2  1  0  0  0  0
  2  3  1  0  0  0  0
  3  8  2  0  0  0  0
  3  4  1  0  0  0  0
  4  5  2  0  0  0  0
  5  6  1  0  0  0  0
  5 17  1  0  0  0  0
  6  7  2  0  0  0  0
  6 11  1  0  0  0  0
  7  8  1  0  0  0  0
  8  9  1  0  0  0  0
  9 10  1  0  0  0  0
 11 12  1  0  0  0  0
 12 13  2  0  0  0  0
 12 14  1  0  0  0  0
 14 16  1  0  0  0  0
 14 15  1  0  0  0  0
 15 16  1  0  0  0  0
 17 18  1  0  0  0  0
 18 19  2  0  0  0  0
 18 20  1  0  0  0  0
 20 21  1  0  0  0  0
 21 22  1  0  0  0  0
 22 23  1  0  0  0  0
  1 24  1  0  0  0  0
  1 25  1  0  0  0  0
  1 26  1  0  0  0  0
  4 27  1  0  0  0  0
  7 28  1  0  0  0  0
 10 29  1  0  0  0  0
 10 30  1  0  0  0  0
 10 31  1  0  0  0  0
 11 32  1  0  0  0  0
 14 33  1  0  0  0  0
 15 34  1  0  0  0  0
 15 35  1  0  0  0  0
 16 36  1  0  0  0  0
 16 37  1  0  0  0  0
 17 38  1  0  0  0  0
 20 39  1  0  0  0  0
 20 40  1  0  0  0  0
 21 41  1  0  0  0  0
 21 42  1  0  0  0  0
 22 43  1  0  0  0  0
 22 44  1  0  0  0  0
 23 45  1  0  0  0  0
 23 46  1  0  0  0  0
 23 47  1  0  0  0  0
M  CHG  1  23   1
M  END
> <Name>
ZINC31971727

> <reference>
BDB5023

> <quality>
0.658

> <status>
decoy

$$$$
ZINC16697325
  SciTegic06141217593D

 43 43  0  0  1  0            999 V2000
   -6.8248    1.8953    3.1137 C   0  0  0  0  0  0  0  0  0  0  0  0
   -5.8355    2.8590    3.7721 C   0  0  2  0  0  0  0  0  0  0  0  0
   -6.3029    3.1770    5.1939 C   0  0  0  0  0  0  0  0  0  0  0  0
   -5.7642    4.1522    2.9575 C   0  0  0  0  0  0  0  0  0  0  0  0
   -4.5209    2.2446    3.8208 O   0  0  0  0  0  0  0  0  0  0  0  0
   -3.9628    1.9009    2.6448 C   0  0  0  0  0  0  0  0  0  0  0  0
   -4.5581    2.1088    1.6060 O   0  0  0  0  0  0  0  0  0  0  0  0
   -2.7439    1.3264    2.6196 N   0  0  0  0  0  0  0  0  0  0  0  0
   -2.0119    1.0687    3.8671 C   0  0  0  0  0  0  0  0  0  0  0  0
   -0.6202    1.7003    3.7617 C   0  0  0  0  0  0  0  0  0  0  0  0
    0.0783    1.1788    2.5038 C   0  0  0  0  0  0  0  0  0  0  0  0
   -0.7288    1.5792    1.2668 C   0  0  2  0  0  0  0  0  0  0  0  0
   -2.1217    0.9462    1.3440 C   0  0  0  0  0  0  0  0  0  0  0  0
   -0.0127    1.0858    0.0080 C   0  0  0  0  0  0  0  0  0  0  0  0
   -0.7527    1.5927   -1.2315 C   0  0  2  0  0  0  0  0  0  0  0  0
   -0.1210    1.0071   -2.4681 C   0  0  0  0  0  0  0  0  0  0  0  0
    0.6532    1.6660   -3.1209 O   0  0  0  0  0  0  0  0  0  0  0  0
   -0.4186   -0.2466   -2.8443 O   0  5  0  0  0  0  0  0  0  0  0  0
   -0.6801    3.0641   -1.2641 N   0  3  0  0  0  0  0  0  0  0  0  0
   -7.8211    2.3600    3.0760 H   0  0  0  0  0  0  0  0  0  0  0  0
   -6.8766    0.9651    3.6985 H   0  0  0  0  0  0  0  0  0  0  0  0
   -6.4894    1.6662    2.0914 H   0  0  0  0  0  0  0  0  0  0  0  0
   -6.3542    2.2479    5.7806 H   0  0  0  0  0  0  0  0  0  0  0  0
   -7.2988    3.6428    5.1581 H   0  0  0  0  0  0  0  0  0  0  0  0
   -5.5921    3.8699    5.6679 H   0  0  0  0  0  0  0  0  0  0  0  0
   -6.7597    4.6186    2.9203 H   0  0  0  0  0  0  0  0  0  0  0  0
   -5.4281    3.9247    1.9351 H   0  0  0  0  0  0  0  0  0  0  0  0
   -5.0531    4.8455    3.4304 H   0  0  0  0  0  0  0  0  0  0  0  0
   -2.5554    1.5156    4.7126 H   0  0  0  0  0  0  0  0  0  0  0  0
   -1.9125   -0.0161    4.0201 H   0  0  0  0  0  0  0  0  0  0  0  0
   -0.0263    1.4327    4.6481 H   0  0  0  0  0  0  0  0  0  0  0  0
   -0.7171    2.7943    3.7002 H   0  0  0  0  0  0  0  0  0  0  0  0
    1.0873    1.6120    2.4384 H   0  0  0  0  0  0  0  0  0  0  0  0
    0.1531    0.0824    2.5526 H   0  0  0  0  0  0  0  0  0  0  0  0
   -0.8235    2.6744    1.2273 H   0  0  0  0  0  0  0  0  0  0  0  0
   -2.7379    1.3109    0.5089 H   0  0  0  0  0  0  0  0  0  0  0  0
   -2.0315   -0.1487    1.2897 H   0  0  0  0  0  0  0  0  0  0  0  0
    1.0191    1.4669   -0.0002 H   0  0  0  0  0  0  0  0  0  0  0  0
    0.0025   -0.0141    0.0008 H   0  0  0  0  0  0  0  0  0  0  0  0
   -1.8078    1.2839   -1.1954 H   0  0  0  0  0  0  0  0  0  0  0  0
    0.3045    3.3633   -1.3074 H   0  0  0  0  0  0  0  0  0  0  0  0
   -1.1219    3.4533   -0.4190 H   0  0  0  0  0  0  0  0  0  0  0  0
   -1.1770    3.4106   -2.0971 H   0  0  0  0  0  0  0  0  0  0  0  0
  1  2  1  0  0  0  0
  2  3  1  0  0  0  0
  2  4  1  0  0  0  0
  2  5  1  0  0  0  0
  5  6  1  0  0  0  0
  6  7  2  0  0  0  0
  6  8  1  0  0  0  0
  8 13  1  0  0  0  0
  8  9  1  0  0  0  0
  9 10  1  0  0  0  0
 10 11  1  0  0  0  0
 11 12  1  0  0  0  0
 12 13  1  0  0  0  0
 12 14  1  0  0  0  0
 14 15  1  0  0  0  0
 15 16  1  0  0  0  0
 15 19  1  0  0  0  0
 16 17  2  0  0  0  0
 16 18  1  0  0  0  0
  1 20  1  0  0  0  0
  1 21  1  0  0  0  0
  1 22  1  0  0  0  0
  3 23  1  0  0  0  0
  3 24  1  0  0  0  0
  3 25  1  0  0  0  0
  4 26  1  0  0  0  0
  4 27  1  0  0  0  0
  4 28  1  0  0  0  0
  9 29  1  0  0  0  0
  9 30  1  0  0  0  0
 10 31  1  0  0  0  0
 10 32  1  0  0  0  0
 11 33  1  0  0  0  0
 11 34  1  0  0  0  0
 12 35  1  0  0  0  0
 13 36  1  0  0  0  0
 13 37  1  0  0  0  0
 14 38  1  0  0  0  0
 14 39  1  0  0  0  0
 15 40  1  0  0  0  0
 19 41  1  0  0  0  0
 19 42  1  0  0  0  0
 19 43  1  0  0  0  0
M  CHG  2  18  -1  19   1
M  END
> <Name>
ZINC16697325

> <reference>
BDB5242

> <quality>
0.818

> <status>
decoy

$$$$
ZINC16769863
  SciTegic06141217593D

 50 52  0  0  1  0            999 V2000
    3.3199    2.2115   -1.2154 C   0  0  0  0  0  0  0  0  0  0  0  0
    2.2146    1.4243   -0.5598 C   0  0  0  0  0  0  0  0  0  0  0  0
    1.1782    2.0852    0.0744 C   0  0  0  0  0  0  0  0  0  0  0  0
    0.1618    1.3669    0.6768 C   0  0  0  0  0  0  0  0  0  0  0  0
    0.1784   -0.0138    0.6471 C   0  0  0  0  0  0  0  0  0  0  0  0
    1.2178   -0.6809    0.0111 C   0  0  0  0  0  0  0  0  0  0  0  0
    2.2375    0.0442   -0.5932 C   0  0  0  0  0  0  0  0  0  0  0  0
    1.2380   -2.0775   -0.0204 N   0  0  0  0  0  0  0  0  0  0  0  0
    0.0509   -2.7927    0.0925 C   0  0  0  0  0  0  0  0  0  0  0  0
   -1.1907   -2.3501    0.1314 N   0  0  0  0  0  0  0  0  0  0  0  0
   -2.2323   -3.2418    0.2442 N   0  0  0  0  0  0  0  0  0  0  0  0
   -1.9831   -4.5352    0.3235 C   0  0  0  0  0  0  0  0  0  0  0  0
   -0.1993   -4.5559    0.2314 S   0  0  0  0  0  0  0  0  0  0  0  0
   -3.1089   -5.8817    0.4791 S   0  0  0  0  0  0  0  0  0  0  0  0
   -4.7402   -5.0888    0.5078 C   0  0  0  0  0  0  0  0  0  0  0  0
   -5.8089   -6.1431    0.6395 C   0  0  0  0  0  0  0  0  0  0  0  0
   -5.5005   -7.3141    0.7073 O   0  0  0  0  0  0  0  0  0  0  0  0
   -7.1074   -5.7847    0.6819 N   0  0  0  0  0  0  0  0  0  0  0  0
   -8.1010   -6.7648    0.8043 N   0  0  0  0  0  0  0  0  0  0  0  0
   -9.3995   -6.4065    0.8467 C   0  0  0  0  0  0  0  0  0  0  0  0
   -9.7080   -5.2355    0.7788 O   0  0  0  0  0  0  0  0  0  0  0  0
  -10.4683   -7.4608    0.9783 C   0  0  0  0  0  0  0  0  0  0  0  0
  -11.8442   -6.7920    1.0025 C   0  0  1  0  0  0  0  0  0  0  0  0
  -12.1008   -6.1033   -0.3481 C   0  0  0  0  0  0  0  0  0  0  0  0
  -13.6042   -5.7095   -0.4131 C   0  0  0  0  0  0  0  0  0  0  0  0
  -14.3769   -7.2046    0.3369 S   0  0  0  0  0  0  0  0  0  0  0  0
  -14.7169   -8.1175   -0.6976 O   0  0  0  0  0  0  0  0  0  0  0  0
  -15.3729   -6.7945    1.2638 O   0  0  0  0  0  0  0  0  0  0  0  0
  -12.9312   -7.8623    1.2640 C   0  0  0  0  0  0  0  0  0  0  0  0
    3.3317    1.8715   -2.2615 H   0  0  0  0  0  0  0  0  0  0  0  0
    4.2464    1.8500   -0.7453 H   0  0  0  0  0  0  0  0  0  0  0  0
    3.2014    3.3016   -1.1285 H   0  0  0  0  0  0  0  0  0  0  0  0
    1.1625    3.1848    0.0996 H   0  0  0  0  0  0  0  0  0  0  0  0
   -0.6609    1.8957    1.1803 H   0  0  0  0  0  0  0  0  0  0  0  0
   -0.6305   -0.5846    1.1265 H   0  0  0  0  0  0  0  0  0  0  0  0
    3.0621   -0.4807   -1.0977 H   0  0  0  0  0  0  0  0  0  0  0  0
    2.1322   -2.5773   -0.1273 H   0  0  0  0  0  0  0  0  0  0  0  0
   -4.8928   -4.5277   -0.4259 H   0  0  0  0  0  0  0  0  0  0  0  0
   -4.7981   -4.3998    1.3634 H   0  0  0  0  0  0  0  0  0  0  0  0
   -7.3693   -4.7902    0.6243 H   0  0  0  0  0  0  0  0  0  0  0  0
   -7.8391   -7.7593    0.8619 H   0  0  0  0  0  0  0  0  0  0  0  0
  -10.4112   -8.1499    0.1228 H   0  0  0  0  0  0  0  0  0  0  0  0
  -10.3180   -8.0224    1.9121 H   0  0  0  0  0  0  0  0  0  0  0  0
  -11.8774   -6.0395    1.8042 H   0  0  0  0  0  0  0  0  0  0  0  0
  -11.4787   -5.1996   -0.4268 H   0  0  0  0  0  0  0  0  0  0  0  0
  -11.8651   -6.7967   -1.1689 H   0  0  0  0  0  0  0  0  0  0  0  0
  -13.8053   -4.8285    0.2141 H   0  0  0  0  0  0  0  0  0  0  0  0
  -13.9359   -5.5991   -1.4561 H   0  0  0  0  0  0  0  0  0  0  0  0
  -13.1694   -7.9182    2.3365 H   0  0  0  0  0  0  0  0  0  0  0  0
  -12.6273   -8.8321    0.8432 H   0  0  0  0  0  0  0  0  0  0  0  0
  1  2  1  0  0  0  0
  2  7  2  0  0  0  0
  2  3  1  0  0  0  0
  3  4  2  0  0  0  0
  4  5  1  0  0  0  0
  5  6  2  0  0  0  0
  6  7  1  0  0  0  0
  6  8  1  0  0  0  0
  8  9  1  0  0  0  0
  9 13  1  0  0  0  0
  9 10  2  0  0  0  0
 10 11  1  0  0  0  0
 11 12  2  0  0  0  0
 12 13  1  0  0  0  0
 12 14  1  0  0  0  0
 14 15  1  0  0  0  0
 15 16  1  0  0  0  0
 16 17  2  0  0  0  0
 16 18  1  0  0  0  0
 18 19  1  0  0  0  0
 19 20  1  0  0  0  0
 20 21  2  0  0  0  0
 20 22  1  0  0  0  0
 22 23  1  0  0  0  0
 23 29  1  0  0  0  0
 23 24  1  0  0  0  0
 24 25  1  0  0  0  0
 25 26  1  0  0  0  0
 26 27  2  0  0  0  0
 26 28  2  0  0  0  0
 26 29  1  0  0  0  0
  1 30  1  0  0  0  0
  1 31  1  0  0  0  0
  1 32  1  0  0  0  0
  3 33  1  0  0  0  0
  4 34  1  0  0  0  0
  5 35  1  0  0  0  0
  7 36  1  0  0  0  0
  8 37  1  0  0  0  0
 15 38  1  0  0  0  0
 15 39  1  0  0  0  0
 18 40  1  0  0  0  0
 19 41  1  0  0  0  0
 22 42  1  0  0  0  0
 22 43  1  0  0  0  0
 23 44  1  0  0  0  0
 24 45  1  0  0  0  0
 24 46  1  0  0  0  0
 25 47  1  0  0  0  0
 25 48  1  0  0  0  0
 29 49  1  0  0  0  0
 29 50  1  0  0  0  0
M  END
> <Name>
ZINC16769863

> <reference>
BDB4968

> <quality>
0.760

> <status>
decoy

$$$$
ZINC19752740
  SciTegic06141217593D

 44 46  0  0  1  0            999 V2000
   -0.8126   -2.0436   -1.1892 C   0  0  0  0  0  0  0  0  0  0  0  0
   -0.7241   -0.5171   -1.2431 C   0  0  0  0  0  0  0  0  0  0  0  0
    0.0021   -0.0041    0.0020 C   0  0  2  0  0  0  0  0  0  0  0  0
   -0.0184    1.5028    0.0103 C   0  0  0  0  0  0  0  0  0  0  0  0
    1.0197    2.1211    0.0037 O   0  0  0  0  0  0  0  0  0  0  0  0
   -1.1898    2.1580    0.0194 O   0  5  0  0  0  0  0  0  0  0  0  0
    1.3897   -0.4735   -0.0138 N   0  0  0  0  0  0  0  0  0  0  0  0
    2.3334   -0.2087   -0.9885 C   0  0  0  0  0  0  0  0  0  0  0  0
    2.3225    0.5245   -2.1669 C   0  0  0  0  0  0  0  0  0  0  0  0
    3.4654    0.6055   -2.9416 C   0  0  0  0  0  0  0  0  0  0  0  0
    4.6342   -0.0420   -2.5393 C   0  0  0  0  0  0  0  0  0  0  0  0
    4.6577   -0.7709   -1.3671 C   0  0  0  0  0  0  0  0  0  0  0  0
    3.5078   -0.8596   -0.5774 C   0  0  0  0  0  0  0  0  0  0  0  0
    3.2255   -1.4825    0.5966 N   0  0  0  0  0  0  0  0  0  0  0  0
    1.9874   -1.2563    0.9256 C   0  0  0  0  0  0  0  0  0  0  0  0
    1.3132   -1.7844    2.1656 C   0  0  0  0  0  0  0  0  0  0  0  0
    0.6778   -3.1426    1.8614 C   0  0  0  0  0  0  0  0  0  0  0  0
   -0.0068   -3.6788    3.1203 C   0  0  0  0  0  0  0  0  0  0  0  0
   -0.6168   -4.9829    2.8283 N   0  3  0  0  0  0  0  0  0  0  0  0
    5.7672    0.0385   -3.2918 O   0  0  0  0  0  0  0  0  0  0  0  0
    5.6097    0.4670   -4.6486 C   0  0  0  0  0  0  0  0  0  0  0  0
    4.6935    1.6980   -4.6608 C   0  0  0  0  0  0  0  0  0  0  0  0
    3.4314    1.3231   -4.0989 O   0  0  0  0  0  0  0  0  0  0  0  0
   -1.3682   -2.3482   -0.2900 H   0  0  0  0  0  0  0  0  0  0  0  0
    0.2009   -2.4697   -1.1551 H   0  0  0  0  0  0  0  0  0  0  0  0
   -1.3346   -2.4131   -2.0841 H   0  0  0  0  0  0  0  0  0  0  0  0
   -0.1681   -0.2134   -2.1424 H   0  0  0  0  0  0  0  0  0  0  0  0
   -1.7376   -0.0909   -1.2772 H   0  0  0  0  0  0  0  0  0  0  0  0
   -0.5028   -0.3827    0.9030 H   0  0  0  0  0  0  0  0  0  0  0  0
    1.4049    1.0412   -2.4847 H   0  0  0  0  0  0  0  0  0  0  0  0
    5.5806   -1.2815   -1.0548 H   0  0  0  0  0  0  0  0  0  0  0  0
    2.0577   -1.8998    2.9671 H   0  0  0  0  0  0  0  0  0  0  0  0
    0.5329   -1.0795    2.4886 H   0  0  0  0  0  0  0  0  0  0  0  0
   -0.0671   -3.0279    1.0602 H   0  0  0  0  0  0  0  0  0  0  0  0
    1.4569   -3.8493    1.5394 H   0  0  0  0  0  0  0  0  0  0  0  0
    0.7377   -3.7941    3.9218 H   0  0  0  0  0  0  0  0  0  0  0  0
   -0.7871   -2.9739    3.4432 H   0  0  0  0  0  0  0  0  0  0  0  0
    0.1128   -5.6445    2.5268 H   0  0  0  0  0  0  0  0  0  0  0  0
   -1.3143   -4.8765    2.0779 H   0  0  0  0  0  0  0  0  0  0  0  0
   -1.0779   -5.3444    3.6754 H   0  0  0  0  0  0  0  0  0  0  0  0
    6.5907    0.7333   -5.0690 H   0  0  0  0  0  0  0  0  0  0  0  0
    5.1523   -0.3387   -5.2416 H   0  0  0  0  0  0  0  0  0  0  0  0
    4.5495    2.0423   -5.6956 H   0  0  0  0  0  0  0  0  0  0  0  0
    5.1436    2.4995   -4.0567 H   0  0  0  0  0  0  0  0  0  0  0  0
  1  2  1  0  0  0  0
  2  3  1  0  0  0  0
  3  4  1  0  0  0  0
  3  7  1  0  0  0  0
  4  5  2  0  0  0  0
  4  6  1  0  0  0  0
  7 15  1  0  0  0  0
  7  8  1  0  0  0  0
  8 13  1  0  0  0  0
  8  9  2  0  0  0  0
  9 10  1  0  0  0  0
 10 23  1  0  0  0  0
 10 11  2  0  0  0  0
 11 12  1  0  0  0  0
 11 20  1  0  0  0  0
 12 13  2  0  0  0  0
 13 14  1  0  0  0  0
 14 15  2  0  0  0  0
 15 16  1  0  0  0  0
 16 17  1  0  0  0  0
 17 18  1  0  0  0  0
 18 19  1  0  0  0  0
 20 21  1  0  0  0  0
 21 22  1  0  0  0  0
 22 23  1  0  0  0  0
  1 24  1  0  0  0  0
  1 25  1  0  0  0  0
  1 26  1  0  0  0  0
  2 27  1  0  0  0  0
  2 28  1  0  0  0  0
  3 29  1  0  0  0  0
  9 30  1  0  0  0  0
 12 31  1  0  0  0  0
 16 32  1  0  0  0  0
 16 33  1  0  0  0  0
 17 34  1  0  0  0  0
 17 35  1  0  0  0  0
 18 36  1  0  0  0  0
 18 37  1  0  0  0  0
 19 38  1  0  0  0  0
 19 39  1  0  0  0  0
 19 40  1  0  0  0  0
 21 41  1  0  0  0  0
 21 42  1  0  0  0  0
 22 43  1  0  0  0  0
 22 44  1  0  0  0  0
M  CHG  2   6  -1  19   1
M  END
> <Name>
ZINC19752740

> <reference>
BDB5199

> <quality>
0.777

> <status>
decoy

$$$$
ZINC20236076
  SciTegic06141217593D

 38 38  0  0  1  0            999 V2000
   -1.3151    3.2988   -1.8343 C   0  0  0  0  0  0  0  0  0  0  0  0
   -1.3137    1.9449   -1.2745 N   0  0  0  0  0  0  0  0  0  0  0  0
   -2.2963    0.9608   -1.7351 C   0  0  0  0  0  0  0  0  0  0  0  0
   -0.2013    1.5271   -0.1211 S   0  0  0  0  0  0  0  0  0  0  0  0
   -0.0620    0.1143   -0.1842 O   0  0  0  0  0  0  0  0  0  0  0  0
    0.9011    2.4092   -0.2816 O   0  0  0  0  0  0  0  0  0  0  0  0
   -0.8720    1.8711    1.3534 N   0  0  0  0  0  0  0  0  0  0  0  0
   -1.7601    0.9009    1.9985 C   0  0  0  0  0  0  0  0  0  0  0  0
   -0.9537    0.0417    2.9745 C   0  0  0  0  0  0  0  0  0  0  0  0
   -1.8441   -0.9312    3.6214 N   0  3  0  0  0  0  0  0  0  0  0  0
   -0.5905    3.0887    1.9831 C   0  0  0  0  0  0  0  0  0  0  0  0
   -1.6200    3.9729    2.2775 C   0  0  0  0  0  0  0  0  0  0  0  0
   -1.3420    5.1718    2.9042 C   0  0  0  0  0  0  0  0  0  0  0  0
   -0.0335    5.4980    3.2288 C   0  0  0  0  0  0  0  0  0  0  0  0
    0.9960    4.6178    2.9304 C   0  0  0  0  0  0  0  0  0  0  0  0
    0.7191    3.4159    2.3089 C   0  0  0  0  0  0  0  0  0  0  0  0
    0.2401    6.6815    3.8405 O   0  0  0  0  0  0  0  0  0  0  0  0
   -0.8683    7.5397    4.1182 C   0  0  0  0  0  0  0  0  0  0  0  0
   -2.3319    3.6775   -1.6536 H   0  0  0  0  0  0  0  0  0  0  0  0
   -1.2149    3.1549   -2.9202 H   0  0  0  0  0  0  0  0  0  0  0  0
   -0.5387    3.9604   -1.4225 H   0  0  0  0  0  0  0  0  0  0  0  0
   -2.1563    0.9116   -2.8250 H   0  0  0  0  0  0  0  0  0  0  0  0
   -3.2734    1.4342   -1.5585 H   0  0  0  0  0  0  0  0  0  0  0  0
   -2.2111   -0.0245   -1.2535 H   0  0  0  0  0  0  0  0  0  0  0  0
   -2.5500    1.4348    2.5472 H   0  0  0  0  0  0  0  0  0  0  0  0
   -2.2169    0.2553    1.2339 H   0  0  0  0  0  0  0  0  0  0  0  0
   -0.4970    0.6856    3.7406 H   0  0  0  0  0  0  0  0  0  0  0  0
   -0.1639   -0.4928    2.4264 H   0  0  0  0  0  0  0  0  0  0  0  0
   -2.2718   -1.5357    2.9054 H   0  0  0  0  0  0  0  0  0  0  0  0
   -2.5842   -0.4321    4.1352 H   0  0  0  0  0  0  0  0  0  0  0  0
   -1.3018   -1.5099    4.2786 H   0  0  0  0  0  0  0  0  0  0  0  0
   -2.6566    3.7185    2.0116 H   0  0  0  0  0  0  0  0  0  0  0  0
   -2.1585    5.8682    3.1460 H   0  0  0  0  0  0  0  0  0  0  0  0
    2.0333    4.8770    3.1888 H   0  0  0  0  0  0  0  0  0  0  0  0
    1.5357    2.7180    2.0721 H   0  0  0  0  0  0  0  0  0  0  0  0
   -1.5623    6.9567    4.7415 H   0  0  0  0  0  0  0  0  0  0  0  0
   -1.3607    7.7309    3.1533 H   0  0  0  0  0  0  0  0  0  0  0  0
   -0.5685    8.4755    4.6125 H   0  0  0  0  0  0  0  0  0  0  0  0
  1  2  1  0  0  0  0
  2  3  1  0  0  0  0
  2  4  1  0  0  0  0
  4  5  2  0  0  0  0
  4  6  2  0  0  0  0
  4  7  1  0  0  0  0
  7  8  1  0  0  0  0
  7 11  1  0  0  0  0
  8  9  1  0  0  0  0
  9 10  1  0  0  0  0
 11 16  2  0  0  0  0
 11 12  1  0  0  0  0
 12 13  2  0  0  0  0
 13 14  1  0  0  0  0
 14 15  2  0  0  0  0
 14 17  1  0  0  0  0
 15 16  1  0  0  0  0
 17 18  1  0  0  0  0
  1 19  1  0  0  0  0
  1 20  1  0  0  0  0
  1 21  1  0  0  0  0
  3 22  1  0  0  0  0
  3 23  1  0  0  0  0
  3 24  1  0  0  0  0
  8 25  1  0  0  0  0
  8 26  1  0  0  0  0
  9 27  1  0  0  0  0
  9 28  1  0  0  0  0
 10 29  1  0  0  0  0
 10 30  1  0  0  0  0
 10 31  1  0  0  0  0
 12 32  1  0  0  0  0
 13 33  1  0  0  0  0
 15 34  1  0  0  0  0
 16 35  1  0  0  0  0
 18 36  1  0  0  0  0
 18 37  1  0  0  0  0
 18 38  1  0  0  0  0
M  CHG  1  10   1
M  END
> <Name>
ZINC20236076

> <reference>
BDB5234

> <quality>
0.775

> <status>
decoy

$$$$
ZINC29839654
  SciTegic06141217593D

 53 53  0  0  1  0            999 V2000
    9.0673   -2.4511    7.3928 C   0  0  0  0  0  0  0  0  0  0  0  0
    8.0519   -3.5748    7.6095 C   0  0  0  0  0  0  0  0  0  0  0  0
    6.6911   -3.0266    7.5326 N   0  3  0  0  0  0  0  0  0  0  0  0
    5.7248   -3.9236    8.1805 C   0  0  0  0  0  0  0  0  0  0  0  0
    6.0098   -3.9808    9.6826 C   0  0  0  0  0  0  0  0  0  0  0  0
    5.7783   -2.6946   10.2607 O   0  0  0  0  0  0  0  0  0  0  0  0
    6.3092   -2.7593    6.1395 C   0  0  0  0  0  0  0  0  0  0  0  0
    5.1656   -1.7782    6.1116 C   0  0  0  0  0  0  0  0  0  0  0  0
    4.7794   -1.2680    7.1413 O   0  0  0  0  0  0  0  0  0  0  0  0
    4.5723   -1.4681    4.9419 N   0  0  0  0  0  0  0  0  0  0  0  0
    3.5495   -0.5907    4.9169 C   0  0  0  0  0  0  0  0  0  0  0  0
    3.1623   -0.0791    5.9492 O   0  0  0  0  0  0  0  0  0  0  0  0
    2.9561   -0.2806    3.7472 N   0  0  0  0  0  0  0  0  0  0  0  0
    1.9682    0.7123    3.7043 C   0  0  0  0  0  0  0  0  0  0  0  0
    1.0855    0.8594    4.7658 C   0  0  0  0  0  0  0  0  0  0  0  0
    0.1109    1.8383    4.7254 C   0  0  0  0  0  0  0  0  0  0  0  0
    0.0163    2.6788    3.6280 C   0  0  0  0  0  0  0  0  0  0  0  0
    0.8959    2.5301    2.5601 C   0  0  0  0  0  0  0  0  0  0  0  0
    1.8726    1.5489    2.6009 C   0  0  0  0  0  0  0  0  0  0  0  0
    0.8003    3.3509    1.4800 O   0  0  0  0  0  0  0  0  0  0  0  0
    1.7400    3.1449    0.4234 C   0  0  0  0  0  0  0  0  0  0  0  0
    1.4782    4.1544   -0.6960 C   0  0  0  0  0  0  0  0  0  0  0  0
   -0.9403    3.6458    3.5921 O   0  0  0  0  0  0  0  0  0  0  0  0
   -1.8089    3.7415    4.7227 C   0  0  0  0  0  0  0  0  0  0  0  0
   -2.8102    4.8770    4.5019 C   0  0  0  0  0  0  0  0  0  0  0  0
    8.9376   -1.6834    8.1698 H   0  0  0  0  0  0  0  0  0  0  0  0
    8.9101   -1.9995    6.4022 H   0  0  0  0  0  0  0  0  0  0  0  0
   10.0865   -2.8609    7.4503 H   0  0  0  0  0  0  0  0  0  0  0  0
    8.1821   -4.3418    6.8319 H   0  0  0  0  0  0  0  0  0  0  0  0
    8.2090   -4.0265    8.6001 H   0  0  0  0  0  0  0  0  0  0  0  0
    6.6815   -2.1308    8.0409 H   0  0  0  0  0  0  0  0  0  0  0  0
    5.8153   -4.9328    7.7522 H   0  0  0  0  0  0  0  0  0  0  0  0
    4.7052   -3.5452    8.0154 H   0  0  0  0  0  0  0  0  0  0  0  0
    7.0575   -4.2728    9.8473 H   0  0  0  0  0  0  0  0  0  0  0  0
    5.3448   -4.7193   10.1542 H   0  0  0  0  0  0  0  0  0  0  0  0
    4.8354   -2.4308   10.1142 H   0  0  0  0  0  0  0  0  0  0  0  0
    5.9982   -3.6976    5.6569 H   0  0  0  0  0  0  0  0  0  0  0  0
    7.1682   -2.3358    5.5985 H   0  0  0  0  0  0  0  0  0  0  0  0
    4.9005   -1.9016    4.0671 H   0  0  0  0  0  0  0  0  0  0  0  0
    3.2287   -0.7734    2.8848 H   0  0  0  0  0  0  0  0  0  0  0  0
    1.1620    0.1960    5.6399 H   0  0  0  0  0  0  0  0  0  0  0  0
   -0.5905    1.9503    5.5654 H   0  0  0  0  0  0  0  0  0  0  0  0
    2.5718    1.4328    1.7597 H   0  0  0  0  0  0  0  0  0  0  0  0
    2.7611    3.2821    0.8087 H   0  0  0  0  0  0  0  0  0  0  0  0
    1.6313    2.1241    0.0283 H   0  0  0  0  0  0  0  0  0  0  0  0
    1.5876    5.1759   -0.3029 H   0  0  0  0  0  0  0  0  0  0  0  0
    0.4573    4.0183   -1.0824 H   0  0  0  0  0  0  0  0  0  0  0  0
    2.2013    3.9963   -1.5097 H   0  0  0  0  0  0  0  0  0  0  0  0
   -1.2157    3.9472    5.6259 H   0  0  0  0  0  0  0  0  0  0  0  0
   -2.3524    2.7935    4.8490 H   0  0  0  0  0  0  0  0  0  0  0  0
   -3.4051    4.6723    3.5996 H   0  0  0  0  0  0  0  0  0  0  0  0
   -2.2682    5.8258    4.3755 H   0  0  0  0  0  0  0  0  0  0  0  0
   -3.4792    4.9512    5.3719 H   0  0  0  0  0  0  0  0  0  0  0  0
  1  2  1  0  0  0  0
  2  3  1  0  0  0  0
  3  4  1  0  0  0  0
  3  7  1  0  0  0  0
  4  5  1  0  0  0  0
  5  6  1  0  0  0  0
  7  8  1  0  0  0  0
  8  9  2  0  0  0  0
  8 10  1  0  0  0  0
 10 11  1  0  0  0  0
 11 12  2  0  0  0  0
 11 13  1  0  0  0  0
 13 14  1  0  0  0  0
 14 19  2  0  0  0  0
 14 15  1  0  0  0  0
 15 16  2  0  0  0  0
 16 17  1  0  0  0  0
 17 18  2  0  0  0  0
 17 23  1  0  0  0  0
 18 19  1  0  0  0  0
 18 20  1  0  0  0  0
 20 21  1  0  0  0  0
 21 22  1  0  0  0  0
 23 24  1  0  0  0  0
 24 25  1  0  0  0  0
  1 26  1  0  0  0  0
  1 27  1  0  0  0  0
  1 28  1  0  0  0  0
  2 29  1  0  0  0  0
  2 30  1  0  0  0  0
  3 31  1  0  0  0  0
  4 32  1  0  0  0  0
  4 33  1  0  0  0  0
  5 34  1  0  0  0  0
  5 35  1  0  0  0  0
  6 36  1  0  0  0  0
  7 37  1  0  0  0  0
  7 38  1  0  0  0  0
 10 39  1  0  0  0  0
 13 40  1  0  0  0  0
 15 41  1  0  0  0  0
 16 42  1  0  0  0  0
 19 43  1  0  0  0  0
 21 44  1  0  0  0  0
 21 45  1  0  0  0  0
 22 46  1  0  0  0  0
 22 47  1  0  0  0  0
 22 48  1  0  0  0  0
 24 49  1  0  0  0  0
 24 50  1  0  0  0  0
 25 51  1  0  0  0  0
 25 52  1  0  0  0  0
 25 53  1  0  0  0  0
M  CHG  1   3   1
M  END
> <Name>
ZINC29839654

> <reference>
BDB4997

> <quality>
0.682

> <status>
decoy

$$$$
ZINC07149658
  SciTegic06141217593D

 32 32  0  0  0  0            999 V2000
    0.3687    1.8989    1.7214 C   0  0  0  0  0  0  0  0  0  0  0  0
    0.8821    1.3979    0.3700 C   0  0  0  0  0  0  0  0  0  0  0  0
    0.6709   -0.0354    0.2731 O   0  0  0  0  0  0  0  0  0  0  0  0
    1.0709   -0.6372   -0.8642 C   0  0  0  0  0  0  0  0  0  0  0  0
    1.5823    0.0178   -1.7508 O   0  0  0  0  0  0  0  0  0  0  0  0
    0.8883   -2.0902   -1.0329 C   0  0  0  0  0  0  0  0  0  0  0  0
    0.4219   -2.8738    0.0300 C   0  0  0  0  0  0  0  0  0  0  0  0
    0.2599   -4.2426   -0.1810 C   0  0  0  0  0  0  0  0  0  0  0  0
    0.5817   -4.7804   -1.4431 C   0  0  0  0  0  0  0  0  0  0  0  0
    1.0255   -3.9989   -2.4184 N   0  0  0  0  0  0  0  0  0  0  0  0
    1.1840   -2.7035   -2.2545 C   0  0  0  0  0  0  0  0  0  0  0  0
    1.6917   -1.8672   -3.4008 C   0  0  0  0  0  0  0  0  0  0  0  0
    0.3918   -6.5087   -1.7287 S   0  0  0  0  0  0  0  0  0  0  0  0
    0.9350   -6.6040   -3.4526 C   0  0  0  0  0  0  0  0  0  0  0  0
    0.8552   -8.0324   -3.9262 C   0  0  0  0  0  0  0  0  0  0  0  0
    0.4690   -8.9005   -3.1725 O   0  0  0  0  0  0  0  0  0  0  0  0
    1.2129   -8.3452   -5.1874 N   0  0  0  0  0  0  0  0  0  0  0  0
   -0.2191   -5.0891    0.8700 C   0  0  0  0  0  0  0  0  0  0  0  0
   -0.5991   -5.7606    1.7038 N   0  0  0  0  0  0  0  0  0  0  0  0
    0.9135    1.3931    2.5322 H   0  0  0  0  0  0  0  0  0  0  0  0
   -0.7057    1.6805    1.8105 H   0  0  0  0  0  0  0  0  0  0  0  0
    0.5284    2.9847    1.7954 H   0  0  0  0  0  0  0  0  0  0  0  0
    0.3366    1.9040   -0.4401 H   0  0  0  0  0  0  0  0  0  0  0  0
    1.9565    1.6163    0.2808 H   0  0  0  0  0  0  0  0  0  0  0  0
    0.1895   -2.4215    1.0054 H   0  0  0  0  0  0  0  0  0  0  0  0
    2.5912   -1.3645   -3.0158 H   0  0  0  0  0  0  0  0  0  0  0  0
    0.9258   -1.0929   -3.5553 H   0  0  0  0  0  0  0  0  0  0  0  0
    1.8935   -2.4453   -4.3147 H   0  0  0  0  0  0  0  0  0  0  0  0
    1.9735   -6.2499   -3.5310 H   0  0  0  0  0  0  0  0  0  0  0  0
    0.2846   -5.9742   -4.0774 H   0  0  0  0  0  0  0  0  0  0  0  0
    1.5408   -7.6080   -5.8276 H   0  0  0  0  0  0  0  0  0  0  0  0
    1.1584   -9.3215   -5.5111 H   0  0  0  0  0  0  0  0  0  0  0  0
  1  2  1  0  0  0  0
  2  3  1  0  0  0  0
  3  4  1  0  0  0  0
  4  5  2  0  0  0  0
  4  6  1  0  0  0  0
  6 11  2  0  0  0  0
  6  7  1  0  0  0  0
  7  8  2  0  0  0  0
  8  9  1  0  0  0  0
  8 18  1  0  0  0  0
  9 10  2  0  0  0  0
  9 13  1  0  0  0  0
 10 11  1  0  0  0  0
 11 12  1  0  0  0  0
 13 14  1  0  0  0  0
 14 15  1  0  0  0  0
 15 16  2  0  0  0  0
 15 17  1  0  0  0  0
 18 19  3  0  0  0  0
  1 20  1  0  0  0  0
  1 21  1  0  0  0  0
  1 22  1  0  0  0  0
  2 23  1  0  0  0  0
  2 24  1  0  0  0  0
  7 25  1  0  0  0  0
 12 26  1  0  0  0  0
 12 27  1  0  0  0  0
 12 28  1  0  0  0  0
 14 29  1  0  0  0  0
 14 30  1  0  0  0  0
 17 31  1  0  0  0  0
 17 32  1  0  0  0  0
M  END
> <Name>
ZINC07149658

> <reference>
BDB5204

> <quality>
0.741

> <status>
decoy

$$$$
ZINC24983764
  SciTegic06141217593D

 42 43  0  0  0  0            999 V2000
    1.7425   13.9736   -2.4441 C   0  0  0  0  0  0  0  0  0  0  0  0
    1.6032   14.2879   -0.6630 S   0  0  0  0  0  0  0  0  0  0  0  0
    0.2807   14.6953   -0.3399 O   0  0  0  0  0  0  0  0  0  0  0  0
    2.7229   15.0357   -0.2088 O   0  0  0  0  0  0  0  0  0  0  0  0
    1.7723   12.8010    0.0461 N   0  0  0  0  0  0  0  0  0  0  0  0
    2.9351   12.0653   -0.1509 C   0  0  0  0  0  0  0  0  0  0  0  0
    4.1614   12.7110   -0.2480 C   0  0  0  0  0  0  0  0  0  0  0  0
    5.3147   11.9796   -0.4436 C   0  0  0  0  0  0  0  0  0  0  0  0
    5.2605   10.5966   -0.5453 C   0  0  0  0  0  0  0  0  0  0  0  0
    4.0523    9.9383   -0.4464 C   0  0  0  0  0  0  0  0  0  0  0  0
    2.8756   10.6672   -0.2532 C   0  0  0  0  0  0  0  0  0  0  0  0
    1.5802    9.9707   -0.1513 C   0  0  0  0  0  0  0  0  0  0  0  0
    0.5591   10.6081    0.0219 O   0  0  0  0  0  0  0  0  0  0  0  0
    1.5276    8.6276   -0.2500 N   0  0  0  0  0  0  0  0  0  0  0  0
    0.2404    7.9355   -0.1488 C   0  0  0  0  0  0  0  0  0  0  0  0
    0.4591    6.4281   -0.2932 C   0  0  0  0  0  0  0  0  0  0  0  0
   -0.8282    5.7360   -0.1919 N   0  0  0  0  0  0  0  0  0  0  0  0
   -0.8822    4.3549   -0.2935 C   0  0  0  0  0  0  0  0  0  0  0  0
    0.2939    3.6342   -0.4919 C   0  0  0  0  0  0  0  0  0  0  0  0
    0.2370    2.2702   -0.5923 C   0  0  0  0  0  0  0  0  0  0  0  0
   -1.0146    1.6431   -0.4907 C   0  0  0  0  0  0  0  0  0  0  0  0
   -2.1521    2.4284   -0.2972 C   0  0  0  0  0  0  0  0  0  0  0  0
   -2.0520    3.7382   -0.2009 N   0  0  0  0  0  0  0  0  0  0  0  0
   -1.1235    0.2187   -0.5900 C   0  0  0  0  0  0  0  0  0  0  0  0
   -1.2100   -0.9113   -0.6688 N   0  0  0  0  0  0  0  0  0  0  0  0
    6.3967    9.8914   -0.7372 F   0  0  0  0  0  0  0  0  0  0  0  0
    1.4982   14.8939   -2.9950 H   0  0  0  0  0  0  0  0  0  0  0  0
    1.0354   13.1805   -2.7288 H   0  0  0  0  0  0  0  0  0  0  0  0
    2.7683   13.6589   -2.6864 H   0  0  0  0  0  0  0  0  0  0  0  0
    1.0159   12.4213    0.6331 H   0  0  0  0  0  0  0  0  0  0  0  0
    4.2128   13.8069   -0.1688 H   0  0  0  0  0  0  0  0  0  0  0  0
    6.2831   12.4958   -0.5194 H   0  0  0  0  0  0  0  0  0  0  0  0
    4.0151    8.8414   -0.5195 H   0  0  0  0  0  0  0  0  0  0  0  0
    2.3924    8.0877   -0.3966 H   0  0  0  0  0  0  0  0  0  0  0  0
   -0.2140    8.1474    0.8303 H   0  0  0  0  0  0  0  0  0  0  0  0
   -0.4296    8.2862   -0.9476 H   0  0  0  0  0  0  0  0  0  0  0  0
    0.9131    6.2155   -1.2723 H   0  0  0  0  0  0  0  0  0  0  0  0
    1.1281    6.0753    0.5056 H   0  0  0  0  0  0  0  0  0  0  0  0
   -1.6930    6.2758   -0.0452 H   0  0  0  0  0  0  0  0  0  0  0  0
    1.2590    4.1566   -0.5671 H   0  0  0  0  0  0  0  0  0  0  0  0
    1.1513    1.6790   -0.7490 H   0  0  0  0  0  0  0  0  0  0  0  0
   -3.1398    1.9497   -0.2246 H   0  0  0  0  0  0  0  0  0  0  0  0
  1  2  1  0  0  0  0
  2  3  2  0  0  0  0
  2  4  2  0  0  0  0
  2  5  1  0  0  0  0
  5  6  1  0  0  0  0
  6 11  2  0  0  0  0
  6  7  1  0  0  0  0
  7  8  2  0  0  0  0
  8  9  1  0  0  0  0
  9 10  2  0  0  0  0
  9 26  1  0  0  0  0
 10 11  1  0  0  0  0
 11 12  1  0  0  0  0
 12 13  2  0  0  0  0
 12 14  1  0  0  0  0
 14 15  1  0  0  0  0
 15 16  1  0  0  0  0
 16 17  1  0  0  0  0
 17 18  1  0  0  0  0
 18 23  2  0  0  0  0
 18 19  1  0  0  0  0
 19 20  2  0  0  0  0
 20 21  1  0  0  0  0
 21 22  2  0  0  0  0
 21 24  1  0  0  0  0
 22 23  1  0  0  0  0
 24 25  3  0  0  0  0
  1 27  1  0  0  0  0
  1 28  1  0  0  0  0
  1 29  1  0  0  0  0
  5 30  1  0  0  0  0
  7 31  1  0  0  0  0
  8 32  1  0  0  0  0
 10 33  1  0  0  0  0
 14 34  1  0  0  0  0
 15 35  1  0  0  0  0
 15 36  1  0  0  0  0
 16 37  1  0  0  0  0
 16 38  1  0  0  0  0
 17 39  1  0  0  0  0
 19 40  1  0  0  0  0
 20 41  1  0  0  0  0
 22 42  1  0  0  0  0
M  END
> <Name>
ZINC24983764

> <reference>
BDB4952

> <quality>
0.720

> <status>
decoy

$$$$
ZINC31792221
  SciTegic06141217593D

 33 34  0  0  0  0            999 V2000
   -0.8914   -2.6149    2.4593 C   0  0  0  0  0  0  0  0  0  0  0  0
   -0.8124   -3.1046    1.0363 C   0  0  0  0  0  0  0  0  0  0  0  0
   -0.9972   -2.2530   -0.0005 C   0  0  0  0  0  0  0  0  0  0  0  0
   -0.7863   -3.3630   -1.3847 S   0  0  0  0  0  0  0  0  0  0  0  0
   -0.4886   -4.8097   -0.4715 C   0  0  0  0  0  0  0  0  0  0  0  0
   -0.5655   -4.3738    0.7721 N   0  0  0  0  0  0  0  0  0  0  0  0
   -0.1657   -6.4406   -1.0551 S   0  0  0  0  0  0  0  0  0  0  0  0
    0.0209   -7.3077    0.5227 C   0  0  0  0  0  0  0  0  0  0  0  0
    0.3157   -8.7860    0.2604 C   0  0  0  0  0  0  0  0  0  0  0  0
    0.4668   -9.4879    1.5374 N   0  0  0  0  0  0  0  0  0  0  0  0
   -0.5482  -10.0701    2.2059 C   0  0  0  0  0  0  0  0  0  0  0  0
   -1.7145  -10.1093    1.8772 O   0  0  0  0  0  0  0  0  0  0  0  0
    0.0715  -10.6650    3.4548 C   0  0  0  0  0  0  0  0  0  0  0  0
    1.4976  -10.3161    3.3336 N   0  5  0  0  0  0  0  0  0  0  0  0
    1.6304   -9.6350    2.1811 C   0  0  0  0  0  0  0  0  0  0  0  0
    2.6886   -9.1991    1.7720 O   0  0  0  0  0  0  0  0  0  0  0  0
   -1.2926   -0.7753    0.0102 C   0  0  0  0  0  0  0  0  0  0  0  0
    0.0021   -0.0041    0.0020 C   0  0  0  0  0  0  0  0  0  0  0  0
    1.0605   -0.5961   -0.0113 O   0  0  0  0  0  0  0  0  0  0  0  0
   -0.0162    1.3436    0.0094 N   0  0  0  0  0  0  0  0  0  0  0  0
    0.0721   -2.8965    2.9091 H   0  0  0  0  0  0  0  0  0  0  0  0
   -1.6651   -3.2389    2.9305 H   0  0  0  0  0  0  0  0  0  0  0  0
   -1.1023   -1.5391    2.5500 H   0  0  0  0  0  0  0  0  0  0  0  0
    0.8525   -6.8634    1.0893 H   0  0  0  0  0  0  0  0  0  0  0  0
   -0.9085   -7.2174    1.1041 H   0  0  0  0  0  0  0  0  0  0  0  0
   -0.5158   -9.2310   -0.3058 H   0  0  0  0  0  0  0  0  0  0  0  0
    1.2455   -8.8782   -0.3201 H   0  0  0  0  0  0  0  0  0  0  0  0
   -0.3597  -10.1971    4.3521 H   0  0  0  0  0  0  0  0  0  0  0  0
   -0.0536  -11.7579    3.4580 H   0  0  0  0  0  0  0  0  0  0  0  0
   -1.8642   -0.5211    0.9150 H   0  0  0  0  0  0  0  0  0  0  0  0
   -1.8810   -0.5124   -0.8812 H   0  0  0  0  0  0  0  0  0  0  0  0
   -0.9151    1.8464    0.0207 H   0  0  0  0  0  0  0  0  0  0  0  0
    0.8687    1.8707    0.0038 H   0  0  0  0  0  0  0  0  0  0  0  0
  1  2  1  0  0  0  0
  2  6  1  0  0  0  0
  2  3  2  0  0  0  0
  3  4  1  0  0  0  0
  3 17  1  0  0  0  0
  4  5  1  0  0  0  0
  5  6  2  0  0  0  0
  5  7  1  0  0  0  0
  7  8  1  0  0  0  0
  8  9  1  0  0  0  0
  9 10  1  0  0  0  0
 10 15  1  0  0  0  0
 10 11  1  0  0  0  0
 11 12  2  0  0  0  0
 11 13  1  0  0  0  0
 13 14  1  0  0  0  0
 14 15  1  0  0  0  0
 15 16  2  0  0  0  0
 17 18  1  0  0  0  0
 18 19  2  0  0  0  0
 18 20  1  0  0  0  0
  1 21  1  0  0  0  0
  1 22  1  0  0  0  0
  1 23  1  0  0  0  0
  8 24  1  0  0  0  0
  8 25  1  0  0  0  0
  9 26  1  0  0  0  0
  9 27  1  0  0  0  0
 13 28  1  0  0  0  0
 13 29  1  0  0  0  0
 17 30  1  0  0  0  0
 17 31  1  0  0  0  0
 20 32  1  0  0  0  0
 20 33  1  0  0  0  0
M  CHG  1  14  -1
M  END
> <Name>
ZINC31792221

> <reference>
BDB5200

> <quality>
0.726

> <status>
decoy

$$$$
ZINC31852179
  SciTegic06141217593D

 41 43  0  0  0  0            999 V2000
   11.6385   -0.5891   -1.3385 C   0  0  0  0  0  0  0  0  0  0  0  0
   10.2197   -0.8612   -1.5818 N   0  0  0  0  0  0  0  0  0  0  0  0
    9.8499   -1.9866   -2.2245 C   0  0  0  0  0  0  0  0  0  0  0  0
   10.6961   -2.7375   -2.6723 O   0  0  0  0  0  0  0  0  0  0  0  0
    8.4257   -2.3067   -2.3843 C   0  0  0  0  0  0  0  0  0  0  0  0
    7.3836   -1.5150   -2.0057 C   0  0  0  0  0  0  0  0  0  0  0  0
    6.1951   -2.2063   -2.3435 C   0  0  0  0  0  0  0  0  0  0  0  0
    6.5760   -3.4097   -2.9163 C   0  0  0  0  0  0  0  0  0  0  0  0
    7.9160   -3.4594   -2.9425 N   0  0  0  0  0  0  0  0  0  0  0  0
    8.7128   -4.5675   -3.4747 C   0  0  0  0  0  0  0  0  0  0  0  0
    4.8224   -1.7406   -2.1234 C   0  0  0  0  0  0  0  0  0  0  0  0
    3.8854   -2.4335   -2.4605 O   0  0  0  0  0  0  0  0  0  0  0  0
    4.5754   -0.4012   -1.4783 C   0  0  0  0  0  0  0  0  0  0  0  0
    2.7892   -0.1141   -1.3457 S   0  0  0  0  0  0  0  0  0  0  0  0
    2.6674    1.4693   -0.5825 C   0  0  0  0  0  0  0  0  0  0  0  0
    3.6721    2.2278   -0.2166 N   0  0  0  0  0  0  0  0  0  0  0  0
    3.1476    3.3957    0.3525 N   0  0  0  0  0  0  0  0  0  0  0  0
    1.8405    3.3149    0.3111 C   0  0  0  0  0  0  0  0  0  0  0  0
    1.5090    2.1241   -0.2705 N   0  0  0  0  0  0  0  0  0  0  0  0
    0.1502    1.6323   -0.5118 C   0  0  1  0  0  0  0  0  0  0  0  0
   -0.0220    0.5024   -1.5289 C   0  0  0  0  0  0  0  0  0  0  0  0
   -0.1846    0.2180   -0.0336 C   0  0  0  0  0  0  0  0  0  0  0  0
    0.9483    4.2725    0.7762 N   0  0  0  0  0  0  0  0  0  0  0  0
   12.1094   -0.6124   -2.3324 H   0  0  0  0  0  0  0  0  0  0  0  0
   12.0069   -1.4638   -0.7825 H   0  0  0  0  0  0  0  0  0  0  0  0
   11.8264    0.3555   -0.8071 H   0  0  0  0  0  0  0  0  0  0  0  0
    9.5048   -0.1924   -1.2617 H   0  0  0  0  0  0  0  0  0  0  0  0
    7.4525   -0.5264   -1.5282 H   0  0  0  0  0  0  0  0  0  0  0  0
    5.8954   -4.1907   -3.2862 H   0  0  0  0  0  0  0  0  0  0  0  0
    9.3596   -4.8314   -2.6250 H   0  0  0  0  0  0  0  0  0  0  0  0
    9.3650   -4.0681   -4.2063 H   0  0  0  0  0  0  0  0  0  0  0  0
    8.1522   -5.4191   -3.8877 H   0  0  0  0  0  0  0  0  0  0  0  0
    5.0236   -0.3896   -0.4738 H   0  0  0  0  0  0  0  0  0  0  0  0
    5.0288    0.3916   -2.0914 H   0  0  0  0  0  0  0  0  0  0  0  0
   -0.2968    2.6275   -0.3712 H   0  0  0  0  0  0  0  0  0  0  0  0
    0.9485    0.1447   -1.9033 H   0  0  0  0  0  0  0  0  0  0  0  0
   -0.9965    0.5613   -2.0357 H   0  0  0  0  0  0  0  0  0  0  0  0
   -1.2446    0.1265    0.2456 H   0  0  0  0  0  0  0  0  0  0  0  0
    0.7007   -0.2884    0.3784 H   0  0  0  0  0  0  0  0  0  0  0  0
    1.3698    5.1171    1.1883 H   0  0  0  0  0  0  0  0  0  0  0  0
   -0.0738    4.1587    0.7192 H   0  0  0  0  0  0  0  0  0  0  0  0
  1  2  1  0  0  0  0
  2  3  1  0  0  0  0
  3  4  2  0  0  0  0
  3  5  1  0  0  0  0
  5  9  1  0  0  0  0
  5  6  2  0  0  0  0
  6  7  1  0  0  0  0
  7  8  2  0  0  0  0
  7 11  1  0  0  0  0
  8  9  1  0  0  0  0
  9 10  1  0  0  0  0
 11 12  2  0  0  0  0
 11 13  1  0  0  0  0
 13 14  1  0  0  0  0
 14 15  1  0  0  0  0
 15 19  1  0  0  0  0
 15 16  2  0  0  0  0
 16 17  1  0  0  0  0
 17 18  2  0  0  0  0
 18 19  1  0  0  0  0
 18 23  1  0  0  0  0
 19 20  1  0  0  0  0
 20 22  1  0  0  0  0
 20 21  1  0  0  0  0
 21 22  1  0  0  0  0
  1 24  1  0  0  0  0
  1 25  1  0  0  0  0
  1 26  1  0  0  0  0
  2 27  1  0  0  0  0
  6 28  1  0  0  0  0
  8 29  1  0  0  0  0
 10 30  1  0  0  0  0
 10 31  1  0  0  0  0
 10 32  1  0  0  0  0
 13 33  1  0  0  0  0
 13 34  1  0  0  0  0
 20 35  1  0  0  0  0
 21 36  1  0  0  0  0
 21 37  1  0  0  0  0
 22 38  1  0  0  0  0
 22 39  1  0  0  0  0
 23 40  1  0  0  0  0
 23 41  1  0  0  0  0
M  END
> <Name>
ZINC31852179

> <reference>
BDB5228

> <quality>
0.683

> <status>
decoy

$$$$
ZINC05426335
  SciTegic06141217593D

 30 32  0  0  1  0            999 V2000
   -0.0188    1.5368    0.0105 C   0  0  0  0  0  0  0  0  0  0  0  0
    1.4767    1.9366   -0.0016 C   0  0  1  0  0  0  0  0  0  0  0  0
    2.1612    0.6496    0.5251 C   0  0  1  0  0  0  0  0  0  0  0  0
    1.3788   -0.4124   -0.0619 O   0  0  0  0  0  0  0  0  0  0  0  0
    0.0021   -0.0041    0.0020 C   0  0  2  0  0  0  0  0  0  0  0  0
   -0.7243   -0.5057   -1.1672 N   0  0  0  0  0  0  0  0  0  0  0  0
   -2.0740   -0.7183   -1.2673 C   0  0  0  0  0  0  0  0  0  0  0  0
   -3.1241   -0.5849   -0.4856 N   0  0  0  0  0  0  0  0  0  0  0  0
   -4.3468   -0.8936   -0.9101 C   0  0  0  0  0  0  0  0  0  0  0  0
   -4.6190   -1.3497   -2.1193 N   0  0  0  0  0  0  0  0  0  0  0  0
   -3.6576   -1.5342   -3.0357 C   0  0  0  0  0  0  0  0  0  0  0  0
   -3.9164   -1.9576   -4.1511 O   0  0  0  0  0  0  0  0  0  0  0  0
   -2.2755   -1.2183   -2.6379 C   0  0  0  0  0  0  0  0  0  0  0  0
   -1.0981   -1.2690   -3.2097 N   0  0  0  0  0  0  0  0  0  0  0  0
   -0.1756   -0.8703   -2.4068 N   0  5  0  0  0  0  0  0  0  0  0  0
   -5.3942   -0.7273   -0.0334 N   0  0  0  0  0  0  0  0  0  0  0  0
    3.6127    0.5770    0.0470 C   0  0  0  0  0  0  0  0  0  0  0  0
    4.2230   -0.6107    0.5558 O   0  0  0  0  0  0  0  0  0  0  0  0
    1.9128    2.2397   -1.3283 O   0  0  0  0  0  0  0  0  0  0  0  0
   -0.5180    1.9138   -0.8943 H   0  0  0  0  0  0  0  0  0  0  0  0
   -0.5007    1.9049    0.9282 H   0  0  0  0  0  0  0  0  0  0  0  0
    1.7012    2.8343    0.5932 H   0  0  0  0  0  0  0  0  0  0  0  0
    2.1973    0.6005    1.6234 H   0  0  0  0  0  0  0  0  0  0  0  0
   -0.4813   -0.4067    0.9044 H   0  0  0  0  0  0  0  0  0  0  0  0
   -5.2447   -0.3754    0.9230 H   0  0  0  0  0  0  0  0  0  0  0  0
   -6.3478   -0.9612   -0.3446 H   0  0  0  0  0  0  0  0  0  0  0  0
    4.1642    1.4565    0.4108 H   0  0  0  0  0  0  0  0  0  0  0  0
    3.6362    0.5585   -1.0526 H   0  0  0  0  0  0  0  0  0  0  0  0
    3.7284   -1.4033    0.2283 H   0  0  0  0  0  0  0  0  0  0  0  0
    1.3676    2.9866   -1.6818 H   0  0  0  0  0  0  0  0  0  0  0  0
  1  5  1  0  0  0  0
  1  2  1  0  0  0  0
  2  3  1  0  0  0  0
  2 19  1  0  0  0  0
  3  4  1  0  0  0  0
  3 17  1  0  0  0  0
  4  5  1  0  0  0  0
  5  6  1  0  0  0  0
  6 15  1  0  0  0  0
  6  7  1  0  0  0  0
  7 13  1  0  0  0  0
  7  8  2  0  0  0  0
  8  9  1  0  0  0  0
  9 10  2  0  0  0  0
  9 16  1  0  0  0  0
 10 11  1  0  0  0  0
 11 12  2  0  0  0  0
 11 13  1  0  0  0  0
 13 14  2  0  0  0  0
 14 15  1  0  0  0  0
 17 18  1  0  0  0  0
  1 20  1  0  0  0  0
  1 21  1  0  0  0  0
  2 22  1  0  0  0  0
  3 23  1  0  0  0  0
  5 24  1  0  0  0  0
 16 25  1  0  0  0  0
 16 26  1  0  0  0  0
 17 27  1  0  0  0  0
 17 28  1  0  0  0  0
 18 29  1  0  0  0  0
 19 30  1  0  0  0  0
M  CHG  1  15  -1
M  END
> <Name>
ZINC05426335

> <reference>
BDB5257

> <quality>
0.780

> <status>
decoy

$$$$
ZINC17107909
  SciTegic06141217593D

 34 36  0  0  1  0            999 V2000
    1.7295   -2.2102   -1.7307 C   0  0  0  0  0  0  0  0  0  0  0  0
    0.6633   -1.2013   -2.0716 C   0  0  0  0  0  0  0  0  0  0  0  0
   -0.4787   -1.5608   -2.2345 O   0  0  0  0  0  0  0  0  0  0  0  0
    0.9822    0.0968   -2.1942 O   0  0  0  0  0  0  0  0  0  0  0  0
   -0.0956    1.0121   -2.5241 C   0  0  1  0  0  0  0  0  0  0  0  0
   -0.7527    1.5927   -1.2315 C   0  0  2  0  0  0  0  0  0  0  0  0
   -0.6328    3.0442   -1.3291 O   0  0  0  0  0  0  0  0  0  0  0  0
   -0.6901    3.2907   -2.7420 C   0  0  2  0  0  0  0  0  0  0  0  0
    0.4312    2.2472   -3.1709 C   0  0  2  0  0  0  0  0  0  0  0  0
    0.6369    2.6248   -4.5092 O   0  0  0  0  0  0  0  0  0  0  0  0
    0.5487    3.9828   -4.4980 C   0  0  0  0  0  0  0  0  0  0  0  0
    0.9144    4.8404   -5.4283 N   0  0  0  0  0  0  0  0  0  0  0  0
    0.7166    6.1567   -5.2041 C   0  0  0  0  0  0  0  0  0  0  0  0
    0.3269    6.6552   -4.0673 N   0  3  0  0  0  0  0  0  0  0  0  0
    0.1352    5.8233   -2.8696 C   0  0  0  0  0  0  0  0  0  0  0  0
   -0.0158    4.4436   -3.3105 N   0  0  0  0  0  0  0  0  0  0  0  0
    0.9429    7.0303   -6.2482 N   0  0  0  0  0  0  0  0  0  0  0  0
   -0.0127    1.0858    0.0080 C   0  0  0  0  0  0  0  0  0  0  0  0
   -0.6816    1.5467    1.1837 O   0  0  0  0  0  0  0  0  0  0  0  0
    1.7035   -2.9509   -2.5435 H   0  0  0  0  0  0  0  0  0  0  0  0
    1.3803   -2.7081   -0.8141 H   0  0  0  0  0  0  0  0  0  0  0  0
    2.7265   -1.7621   -1.6073 H   0  0  0  0  0  0  0  0  0  0  0  0
   -0.7833    0.4314   -3.1565 H   0  0  0  0  0  0  0  0  0  0  0  0
   -1.8041    1.2822   -1.1417 H   0  0  0  0  0  0  0  0  0  0  0  0
   -1.7525    3.3201   -3.0258 H   0  0  0  0  0  0  0  0  0  0  0  0
    1.4871    2.1361   -2.8833 H   0  0  0  0  0  0  0  0  0  0  0  0
    0.1464    7.6673   -4.0039 H   0  0  0  0  0  0  0  0  0  0  0  0
    1.0140    5.9089   -2.2135 H   0  0  0  0  0  0  0  0  0  0  0  0
   -0.7717    6.1431   -2.3355 H   0  0  0  0  0  0  0  0  0  0  0  0
    1.2529    6.6968   -7.1721 H   0  0  0  0  0  0  0  0  0  0  0  0
    0.7971    8.0385   -6.0956 H   0  0  0  0  0  0  0  0  0  0  0  0
    1.0194    1.4661    0.0013 H   0  0  0  0  0  0  0  0  0  0  0  0
    0.0017   -0.0141    0.0023 H   0  0  0  0  0  0  0  0  0  0  0  0
   -1.6105    1.2043    1.1917 H   0  0  0  0  0  0  0  0  0  0  0  0
  1  2  1  0  0  0  0
  2  3  2  0  0  0  0
  2  4  1  0  0  0  0
  4  5  1  0  0  0  0
  5  9  1  0  0  0  0
  5  6  1  0  0  0  0
  6  7  1  0  0  0  0
  6 18  1  0  0  0  0
  7  8  1  0  0  0  0
  8 16  1  0  0  0  0
  8  9  1  0  0  0  0
  9 10  1  0  0  0  0
 10 11  1  0  0  0  0
 11 16  1  0  0  0  0
 11 12  2  0  0  0  0
 12 13  1  0  0  0  0
 13 14  2  0  0  0  0
 13 17  1  0  0  0  0
 14 15  1  0  0  0  0
 15 16  1  0  0  0  0
 18 19  1  0  0  0  0
  1 20  1  0  0  0  0
  1 21  1  0  0  0  0
  1 22  1  0  0  0  0
  5 23  1  0  0  0  0
  6 24  1  0  0  0  0
  8 25  1  0  0  0  0
  9 26  1  0  0  0  0
 14 27  1  0  0  0  0
 15 28  1  0  0  0  0
 15 29  1  0  0  0  0
 17 30  1  0  0  0  0
 17 31  1  0  0  0  0
 18 32  1  0  0  0  0
 18 33  1  0  0  0  0
 19 34  1  0  0  0  0
M  CHG  1  14   1
M  END
> <Name>
ZINC17107909

> <reference>
BDB5008

> <quality>
0.762

> <status>
decoy

$$$$
ZINC05887406
  SciTegic06141217593D

 64 64  0  0  1  0            999 V2000
    5.6732    3.1986   -1.9501 C   0  0  0  0  0  0  0  0  0  0  0  0
    5.3227    2.6065   -0.5835 C   0  0  1  0  0  0  0  0  0  0  0  0
    6.2851    1.4614   -0.2618 C   0  0  0  0  0  0  0  0  0  0  0  0
    5.4443    3.6912    0.4886 C   0  0  0  0  0  0  0  0  0  0  0  0
    4.3683    4.7551    0.2620 C   0  0  2  0  0  0  0  0  0  0  0  0
    4.5645    5.8993    1.2586 C   0  0  1  0  0  0  0  0  0  0  0  0
    5.9475    6.5213    1.0550 C   0  0  0  0  0  0  0  0  0  0  0  0
    6.1902    7.5866    2.1261 C   0  0  0  0  0  0  0  0  0  0  0  0
    7.5376    8.2660    1.8735 C   0  0  0  0  0  0  0  0  0  0  0  0
    7.7643    9.2610    2.8738 O   0  0  0  0  0  0  0  0  0  0  0  0
    3.5047    6.9472    1.0354 C   0  0  0  0  0  0  0  0  0  0  0  0
    3.0510    7.1238   -0.0754 O   0  0  0  0  0  0  0  0  0  0  0  0
    3.0610    7.6879    2.0702 N   0  0  0  0  0  0  0  0  0  0  0  0
    1.9924    8.5979    1.8827 O   0  0  0  0  0  0  0  0  0  0  0  0
    3.0061    4.1424    0.4625 C   0  0  0  0  0  0  0  0  0  0  0  0
    2.5992    3.9222    1.5837 O   0  0  0  0  0  0  0  0  0  0  0  0
    2.2399    3.8392   -0.6041 N   0  0  0  0  0  0  0  0  0  0  0  0
    0.9342    3.3669   -0.4171 C   0  0  0  0  0  0  0  0  0  0  0  0
    0.6887    2.1987   -0.9477 C   0  0  0  0  0  0  0  0  0  0  0  0
   -0.5873    1.4442   -0.8838 C   0  0  0  0  0  0  0  0  0  0  0  0
   -1.8145    2.3161   -0.9317 C   0  0  0  0  0  0  0  0  0  0  0  0
   -2.0915    3.0318    0.3647 C   0  0  0  0  0  0  0  0  0  0  0  0
   -1.2111    4.1454    0.6157 N   0  0  0  0  0  0  0  0  0  0  0  0
    0.0693    4.2461    0.3326 C   0  0  0  0  0  0  0  0  0  0  0  0
    0.6120    5.2408    0.7734 O   0  0  0  0  0  0  0  0  0  0  0  0
   -1.8179    5.3093    1.2664 C   0  0  0  0  0  0  0  0  0  0  0  0
   -1.7006    5.1635    2.7849 C   0  0  0  0  0  0  0  0  0  0  0  0
   -0.3225    5.1956    3.1615 O   0  0  0  0  0  0  0  0  0  0  0  0
   -0.1009    5.0663    4.5673 C   0  0  0  0  0  0  0  0  0  0  0  0
    5.5859    2.4195   -2.7217 H   0  0  0  0  0  0  0  0  0  0  0  0
    6.7043    3.5815   -1.9315 H   0  0  0  0  0  0  0  0  0  0  0  0
    4.9816    4.0220   -2.1820 H   0  0  0  0  0  0  0  0  0  0  0  0
    4.2914    2.2242   -0.6031 H   0  0  0  0  0  0  0  0  0  0  0  0
    7.3167    1.8427   -0.2417 H   0  0  0  0  0  0  0  0  0  0  0  0
    6.1983    0.6808   -1.0319 H   0  0  0  0  0  0  0  0  0  0  0  0
    6.0337    1.0352    0.7206 H   0  0  0  0  0  0  0  0  0  0  0  0
    5.3100    3.2407    1.4831 H   0  0  0  0  0  0  0  0  0  0  0  0
    6.4386    4.1578    0.4286 H   0  0  0  0  0  0  0  0  0  0  0  0
    4.4479    5.1445   -0.7637 H   0  0  0  0  0  0  0  0  0  0  0  0
    4.4849    5.5099    2.2843 H   0  0  0  0  0  0  0  0  0  0  0  0
    6.7169    5.7393    1.1355 H   0  0  0  0  0  0  0  0  0  0  0  0
    5.9990    6.9854    0.0590 H   0  0  0  0  0  0  0  0  0  0  0  0
    5.3878    8.3379    2.0846 H   0  0  0  0  0  0  0  0  0  0  0  0
    6.1992    7.1141    3.1194 H   0  0  0  0  0  0  0  0  0  0  0  0
    7.5301    8.7400    0.8809 H   0  0  0  0  0  0  0  0  0  0  0  0
    8.3405    7.5152    1.9153 H   0  0  0  0  0  0  0  0  0  0  0  0
    7.7724    8.8357    3.7678 H   0  0  0  0  0  0  0  0  0  0  0  0
    3.4992    7.5921    2.9974 H   0  0  0  0  0  0  0  0  0  0  0  0
    1.2479    8.0508    1.5270 H   0  0  0  0  0  0  0  0  0  0  0  0
    2.6143    3.9547   -1.5567 H   0  0  0  0  0  0  0  0  0  0  0  0
    1.5140    1.7250   -1.4994 H   0  0  0  0  0  0  0  0  0  0  0  0
   -0.6228    0.7357   -1.7245 H   0  0  0  0  0  0  0  0  0  0  0  0
   -0.6065    0.8562    0.0457 H   0  0  0  0  0  0  0  0  0  0  0  0
   -2.6850    1.6940   -1.1872 H   0  0  0  0  0  0  0  0  0  0  0  0
   -1.6905    3.0623   -1.7304 H   0  0  0  0  0  0  0  0  0  0  0  0
   -3.1290    3.3971    0.3548 H   0  0  0  0  0  0  0  0  0  0  0  0
   -1.9998    2.3154    1.1944 H   0  0  0  0  0  0  0  0  0  0  0  0
   -2.8795    5.3755    0.9861 H   0  0  0  0  0  0  0  0  0  0  0  0
   -1.2961    6.2228    0.9449 H   0  0  0  0  0  0  0  0  0  0  0  0
   -2.2335    5.9915    3.2751 H   0  0  0  0  0  0  0  0  0  0  0  0
   -2.1432    4.2063    3.0977 H   0  0  0  0  0  0  0  0  0  0  0  0
   -0.5484    4.1137    4.8872 H   0  0  0  0  0  0  0  0  0  0  0  0
   -0.6381    5.8874    5.0645 H   0  0  0  0  0  0  0  0  0  0  0  0
    0.9711    5.0961    4.8119 H   0  0  0  0  0  0  0  0  0  0  0  0
  1  2  1  0  0  0  0
  2  3  1  0  0  0  0
  2  4  1  0  0  0  0
  4  5  1  0  0  0  0
  5  6  1  0  0  0  0
  5 15  1  0  0  0  0
  6  7  1  0  0  0  0
  6 11  1  0  0  0  0
  7  8  1  0  0  0  0
  8  9  1  0  0  0  0
  9 10  1  0  0  0  0
 11 12  2  0  0  0  0
 11 13  1  0  0  0  0
 13 14  1  0  0  0  0
 15 16  2  0  0  0  0
 15 17  1  0  0  0  0
 17 18  1  0  0  0  0
 18 24  1  0  0  0  0
 18 19  2  0  0  0  0
 19 20  1  0  0  0  0
 20 21  1  0  0  0  0
 21 22  1  0  0  0  0
 22 23  1  0  0  0  0
 23 24  1  0  0  0  0
 23 26  1  0  0  0  0
 24 25  2  0  0  0  0
 26 27  1  0  0  0  0
 27 28  1  0  0  0  0
 28 29  1  0  0  0  0
  1 30  1  0  0  0  0
  1 31  1  0  0  0  0
  1 32  1  0  0  0  0
  2 33  1  0  0  0  0
  3 34  1  0  0  0  0
  3 35  1  0  0  0  0
  3 36  1  0  0  0  0
  4 37  1  0  0  0  0
  4 38  1  0  0  0  0
  5 39  1  0  0  0  0
  6 40  1  0  0  0  0
  7 41  1  0  0  0  0
  7 42  1  0  0  0  0
  8 43  1  0  0  0  0
  8 44  1  0  0  0  0
  9 45  1  0  0  0  0
  9 46  1  0  0  0  0
 10 47  1  0  0  0  0
 13 48  1  0  0  0  0
 14 49  1  0  0  0  0
 17 50  1  0  0  0  0
 19 51  1  0  0  0  0
 20 52  1  0  0  0  0
 20 53  1  0  0  0  0
 21 54  1  0  0  0  0
 21 55  1  0  0  0  0
 22 56  1  0  0  0  0
 22 57  1  0  0  0  0
 26 58  1  0  0  0  0
 26 59  1  0  0  0  0
 27 60  1  0  0  0  0
 27 61  1  0  0  0  0
 29 62  1  0  0  0  0
 29 63  1  0  0  0  0
 29 64  1  0  0  0  0
M  END
> <Name>
ZINC05887406

> <reference>
BDB4948

> <quality>
0.748

> <status>
decoy

$$$$
ZINC31576049
  SciTegic06141217593D

 51 52  0  0  1  0            999 V2000
   -2.5786    4.3880   10.0262 C   0  0  0  0  0  0  0  0  0  0  0  0
   -3.2197    5.4174    9.1972 N   0  3  0  0  0  0  0  0  0  0  0  0
   -3.1066    6.7422    9.8218 C   0  0  0  0  0  0  0  0  0  0  0  0
   -2.6579    5.4256    7.8399 C   0  0  0  0  0  0  0  0  0  0  0  0
   -3.0128    4.1159    7.1331 C   0  0  2  0  0  0  0  0  0  0  0  0
   -2.3245    4.0705    5.7674 C   0  0  0  0  0  0  0  0  0  0  0  0
   -2.6643    2.8165    5.0907 N   0  0  0  0  0  0  0  0  0  0  0  0
   -2.1499    2.5467    3.8204 C   0  0  0  0  0  0  0  0  0  0  0  0
   -1.2209    3.4069    3.2484 C   0  0  0  0  0  0  0  0  0  0  0  0
   -0.7101    3.1342    1.9948 C   0  0  0  0  0  0  0  0  0  0  0  0
   -1.1302    2.0119    1.3044 C   0  0  0  0  0  0  0  0  0  0  0  0
   -2.0546    1.1537    1.8707 C   0  0  0  0  0  0  0  0  0  0  0  0
   -2.5657    1.4177    3.1265 C   0  0  0  0  0  0  0  0  0  0  0  0
   -3.5548    0.4983    3.7321 N   0  0  0  0  0  0  0  0  0  0  0  0
   -3.4511   -0.7037    3.5649 O   0  0  0  0  0  0  0  0  0  0  0  0
   -4.4724    0.9436    4.3978 O   0  0  0  0  0  0  0  0  0  0  0  0
   -0.4804    1.6710   -0.2976 S   0  0  0  0  0  0  0  0  0  0  0  0
   -0.6180    0.2716   -0.5023 O   0  0  0  0  0  0  0  0  0  0  0  0
    0.7747    2.3326   -0.3760 O   0  0  0  0  0  0  0  0  0  0  0  0
   -1.4745    2.4101   -1.3966 N   0  0  0  0  0  0  0  0  0  0  0  0
   -2.6311    1.7020   -1.9679 C   0  0  0  0  0  0  0  0  0  0  0  0
   -3.8676    2.6021   -1.8142 C   0  0  0  0  0  0  0  0  0  0  0  0
   -3.5799    3.8915   -2.3607 O   0  0  0  0  0  0  0  0  0  0  0  0
   -2.5258    4.5885   -1.6922 C   0  0  0  0  0  0  0  0  0  0  0  0
   -1.2238    3.7921   -1.8354 C   0  0  0  0  0  0  0  0  0  0  0  0
   -4.4287    4.0389    6.9557 O   0  0  0  0  0  0  0  0  0  0  0  0
   -3.0655    4.3718   11.0124 H   0  0  0  0  0  0  0  0  0  0  0  0
   -1.5165    4.6446   10.1533 H   0  0  0  0  0  0  0  0  0  0  0  0
   -2.6710    3.4024    9.5466 H   0  0  0  0  0  0  0  0  0  0  0  0
   -4.2208    5.1865    9.1239 H   0  0  0  0  0  0  0  0  0  0  0  0
   -2.0414    6.9849    9.9501 H   0  0  0  0  0  0  0  0  0  0  0  0
   -3.5904    6.7121   10.8092 H   0  0  0  0  0  0  0  0  0  0  0  0
   -3.5905    7.5021    9.1907 H   0  0  0  0  0  0  0  0  0  0  0  0
   -3.0762    6.2716    7.2748 H   0  0  0  0  0  0  0  0  0  0  0  0
   -1.5640    5.5267    7.8952 H   0  0  0  0  0  0  0  0  0  0  0  0
   -2.6729    3.2662    7.7434 H   0  0  0  0  0  0  0  0  0  0  0  0
   -2.6647    4.9199    5.1568 H   0  0  0  0  0  0  0  0  0  0  0  0
   -1.2345    4.1295    5.9028 H   0  0  0  0  0  0  0  0  0  0  0  0
   -3.2826    2.1337    5.5516 H   0  0  0  0  0  0  0  0  0  0  0  0
   -0.8926    4.3042    3.7935 H   0  0  0  0  0  0  0  0  0  0  0  0
    0.0317    3.8103    1.5448 H   0  0  0  0  0  0  0  0  0  0  0  0
   -2.3834    0.2597    1.3205 H   0  0  0  0  0  0  0  0  0  0  0  0
   -2.7926    0.7579   -1.4271 H   0  0  0  0  0  0  0  0  0  0  0  0
   -2.4519    1.5000   -3.0342 H   0  0  0  0  0  0  0  0  0  0  0  0
   -4.7163    2.1559   -2.3534 H   0  0  0  0  0  0  0  0  0  0  0  0
   -4.1195    2.7033   -0.7482 H   0  0  0  0  0  0  0  0  0  0  0  0
   -2.3986    5.5834   -2.1440 H   0  0  0  0  0  0  0  0  0  0  0  0
   -2.7738    4.6967   -0.6260 H   0  0  0  0  0  0  0  0  0  0  0  0
   -0.4439    4.2444   -1.2052 H   0  0  0  0  0  0  0  0  0  0  0  0
   -0.9043    3.7946   -2.8880 H   0  0  0  0  0  0  0  0  0  0  0  0
   -4.7355    4.8032    6.4063 H   0  0  0  0  0  0  0  0  0  0  0  0
  1  2  1  0  0  0  0
  2  3  1  0  0  0  0
  2  4  1  0  0  0  0
  4  5  1  0  0  0  0
  5  6  1  0  0  0  0
  5 26  1  0  0  0  0
  6  7  1  0  0  0  0
  7  8  1  0  0  0  0
  8 13  2  0  0  0  0
  8  9  1  0  0  0  0
  9 10  2  0  0  0  0
 10 11  1  0  0  0  0
 11 12  2  0  0  0  0
 11 17  1  0  0  0  0
 12 13  1  0  0  0  0
 13 14  1  0  0  0  0
 14 15  2  0  0  0  0
 14 16  2  0  0  0  0
 17 18  2  0  0  0  0
 17 19  2  0  0  0  0
 17 20  1  0  0  0  0
 20 25  1  0  0  0  0
 20 21  1  0  0  0  0
 21 22  1  0  0  0  0
 22 23  1  0  0  0  0
 23 24  1  0  0  0  0
 24 25  1  0  0  0  0
  1 27  1  0  0  0  0
  1 28  1  0  0  0  0
  1 29  1  0  0  0  0
  2 30  1  0  0  0  0
  3 31  1  0  0  0  0
  3 32  1  0  0  0  0
  3 33  1  0  0  0  0
  4 34  1  0  0  0  0
  4 35  1  0  0  0  0
  5 36  1  0  0  0  0
  6 37  1  0  0  0  0
  6 38  1  0  0  0  0
  7 39  1  0  0  0  0
  9 40  1  0  0  0  0
 10 41  1  0  0  0  0
 12 42  1  0  0  0  0
 21 43  1  0  0  0  0
 21 44  1  0  0  0  0
 22 45  1  0  0  0  0
 22 46  1  0  0  0  0
 24 47  1  0  0  0  0
 24 48  1  0  0  0  0
 25 49  1  0  0  0  0
 25 50  1  0  0  0  0
 26 51  1  0  0  0  0
M  CHG  1   2   1
M  END
> <Name>
ZINC31576049

> <reference>
BDB4945

> <quality>
0.852

> <status>
decoy

$$$$
ZINC17376865
  SciTegic06141217593D

 38 40  0  0  1  0            999 V2000
   -4.9522    5.7912    0.0765 C   0  0  0  0  0  0  0  0  0  0  0  0
   -3.4458    5.7499    0.0627 C   0  0  0  0  0  0  0  0  0  0  0  0
   -2.8109    6.7832    0.0620 O   0  0  0  0  0  0  0  0  0  0  0  0
   -2.8043    4.5647    0.0512 N   0  0  0  0  0  0  0  0  0  0  0  0
   -1.4130    4.5266    0.0385 C   0  0  0  0  0  0  0  0  0  0  0  0
   -0.7346    3.3098    0.0260 C   0  0  0  0  0  0  0  0  0  0  0  0
    0.6621    3.3237    0.0131 C   0  0  0  0  0  0  0  0  0  0  0  0
    1.2941    4.4917    0.0131 N   0  0  0  0  0  0  0  0  0  0  0  0
    0.6162    5.6218    0.0251 C   0  0  0  0  0  0  0  0  0  0  0  0
   -0.7021    5.6518    0.0376 N   0  0  0  0  0  0  0  0  0  0  0  0
    1.0754    2.0039    0.0026 N   0  0  0  0  0  0  0  0  0  0  0  0
   -0.0144    1.2126    0.0087 C   0  0  0  0  0  0  0  0  0  0  0  0
    0.0021   -0.0041    0.0020 O   0  0  0  0  0  0  0  0  0  0  0  0
   -1.1260    1.9745    0.0175 N   0  0  0  0  0  0  0  0  0  0  0  0
    2.4661    1.5436   -0.0132 C   0  0  1  0  0  0  0  0  0  0  0  0
    2.7857    0.7537    1.2754 C   0  0  2  0  0  0  0  0  0  0  0  0
    3.7216   -0.3807    0.7958 C   0  0  1  0  0  0  0  0  0  0  0  0
    3.8579   -0.1383   -0.7237 C   0  0  2  0  0  0  0  0  0  0  0  0
    2.6714    0.6004   -1.0875 O   0  0  0  0  0  0  0  0  0  0  0  0
    3.9077   -1.4699   -1.4756 C   0  0  0  0  0  0  0  0  0  0  0  0
    4.0780   -1.2220   -2.8726 O   0  0  0  0  0  0  0  0  0  0  0  0
    4.9960   -0.2832    1.4347 O   0  0  0  0  0  0  0  0  0  0  0  0
    1.5902    0.2110    1.8395 O   0  0  0  0  0  0  0  0  0  0  0  0
   -5.2377    6.3825   -0.8061 H   0  0  0  0  0  0  0  0  0  0  0  0
   -5.2216    6.3738    0.9698 H   0  0  0  0  0  0  0  0  0  0  0  0
   -5.4133    4.7925    0.0758 H   0  0  0  0  0  0  0  0  0  0  0  0
   -3.3436    3.6872    0.0518 H   0  0  0  0  0  0  0  0  0  0  0  0
    1.1691    6.5728    0.0247 H   0  0  0  0  0  0  0  0  0  0  0  0
   -2.0962    1.6287    0.0179 H   0  0  0  0  0  0  0  0  0  0  0  0
    3.0976    2.4380   -0.1195 H   0  0  0  0  0  0  0  0  0  0  0  0
    3.2422    1.3803    2.0557 H   0  0  0  0  0  0  0  0  0  0  0  0
    3.3301   -1.3811    1.0322 H   0  0  0  0  0  0  0  0  0  0  0  0
    4.7808    0.4043   -0.9765 H   0  0  0  0  0  0  0  0  0  0  0  0
    4.7521   -2.0693   -1.1045 H   0  0  0  0  0  0  0  0  0  0  0  0
    2.9686   -2.0193   -1.3132 H   0  0  0  0  0  0  0  0  0  0  0  0
    4.9234   -0.7285   -3.0205 H   0  0  0  0  0  0  0  0  0  0  0  0
    4.8718   -0.3491    2.4147 H   0  0  0  0  0  0  0  0  0  0  0  0
    1.1659   -0.3920    1.1788 H   0  0  0  0  0  0  0  0  0  0  0  0
  1  2  1  0  0  0  0
  2  3  2  0  0  0  0
  2  4  1  0  0  0  0
  4  5  1  0  0  0  0
  5 10  2  0  0  0  0
  5  6  1  0  0  0  0
  6 14  1  0  0  0  0
  6  7  2  0  0  0  0
  7  8  1  0  0  0  0
  7 11  1  0  0  0  0
  8  9  2  0  0  0  0
  9 10  1  0  0  0  0
 11 12  1  0  0  0  0
 11 15  1  0  0  0  0
 12 13  2  0  0  0  0
 12 14  1  0  0  0  0
 15 19  1  0  0  0  0
 15 16  1  0  0  0  0
 16 17  1  0  0  0  0
 16 23  1  0  0  0  0
 17 18  1  0  0  0  0
 17 22  1  0  0  0  0
 18 19  1  0  0  0  0
 18 20  1  0  0  0  0
 20 21  1  0  0  0  0
  1 24  1  0  0  0  0
  1 25  1  0  0  0  0
  1 26  1  0  0  0  0
  4 27  1  0  0  0  0
  9 28  1  0  0  0  0
 14 29  1  0  0  0  0
 15 30  1  0  0  0  0
 16 31  1  0  0  0  0
 17 32  1  0  0  0  0
 18 33  1  0  0  0  0
 20 34  1  0  0  0  0
 20 35  1  0  0  0  0
 21 36  1  0  0  0  0
 22 37  1  0  0  0  0
 23 38  1  0  0  0  0
M  END
> <Name>
ZINC17376865

> <reference>
BDB4977

> <quality>
0.652

> <status>
decoy

$$$$
ZINC19848804
  SciTegic06141217593D

 60 62  0  0  1  0            999 V2000
   -0.8110    3.7416    5.6435 C   0  0  0  0  0  0  0  0  0  0  0  0
    0.2045    2.5976    5.6115 C   0  0  0  0  0  0  0  0  0  0  0  0
    0.3467    2.0818    4.1781 C   0  0  0  0  0  0  0  0  0  0  0  0
    1.3622    0.9378    4.1461 C   0  0  0  0  0  0  0  0  0  0  0  0
    1.4983    0.4440    2.7735 N   0  0  0  0  0  0  0  0  0  0  0  0
    2.3930    0.9403    1.9112 C   0  0  0  0  0  0  0  0  0  0  0  0
    3.1775    1.8327    2.1516 O   0  0  0  0  0  0  0  0  0  0  0  0
    2.2722    0.2151    0.5898 C   0  0  2  0  0  0  0  0  0  0  0  0
    1.7080    1.1833   -0.4708 C   0  0  1  0  0  0  0  0  0  0  0  0
    0.2333    1.0862   -0.3237 N   0  3  0  0  0  0  0  0  0  0  0  0
   -0.0150   -0.3589   -0.0873 C   0  0  1  0  0  0  0  0  0  0  0  0
    1.1309   -0.8060    0.8441 C   0  0  2  0  0  0  0  0  0  0  0  0
    0.7377   -0.5400    2.2798 C   0  0  0  0  0  0  0  0  0  0  0  0
   -0.1311   -1.1268    2.8885 O   0  0  0  0  0  0  0  0  0  0  0  0
   -1.3683   -0.5623    0.5969 C   0  0  0  0  0  0  0  0  0  0  0  0
   -2.4790    0.0003   -0.2922 C   0  0  1  0  0  0  0  0  0  0  0  0
   -3.8300   -0.5491    0.1703 C   0  0  0  0  0  0  0  0  0  0  0  0
   -2.4882    1.5270   -0.1922 C   0  0  0  0  0  0  0  0  0  0  0  0
    0.0345   -1.1197   -1.3872 C   0  0  0  0  0  0  0  0  0  0  0  0
    0.5040   -2.2326   -1.4184 O   0  0  0  0  0  0  0  0  0  0  0  0
   -0.4429   -0.5610   -2.5105 O   0  5  0  0  0  0  0  0  0  0  0  0
    2.1714    2.5907   -0.1963 C   0  0  0  0  0  0  0  0  0  0  0  0
    1.3998    3.4321    0.5826 C   0  0  0  0  0  0  0  0  0  0  0  0
    1.8222    4.7228    0.8364 C   0  0  0  0  0  0  0  0  0  0  0  0
    3.0230    5.1775    0.3094 C   0  0  0  0  0  0  0  0  0  0  0  0
    3.7987    4.3355   -0.4720 C   0  0  0  0  0  0  0  0  0  0  0  0
    3.3751    3.0389   -0.7210 C   0  0  0  0  0  0  0  0  0  0  0  0
    4.1361    2.2092   -1.4822 O   0  0  0  0  0  0  0  0  0  0  0  0
    3.4377    6.4474    0.5591 O   0  0  0  0  0  0  0  0  0  0  0  0
    2.5879    7.2594    1.3718 C   0  0  0  0  0  0  0  0  0  0  0  0
   -1.7860    3.3779    5.2871 H   0  0  0  0  0  0  0  0  0  0  0  0
   -0.4651    4.5586    4.9932 H   0  0  0  0  0  0  0  0  0  0  0  0
   -0.9137    4.1129    6.6738 H   0  0  0  0  0  0  0  0  0  0  0  0
    1.1792    2.9623    5.9678 H   0  0  0  0  0  0  0  0  0  0  0  0
   -0.1413    1.7806    6.2618 H   0  0  0  0  0  0  0  0  0  0  0  0
   -0.6276    1.7166    3.8213 H   0  0  0  0  0  0  0  0  0  0  0  0
    0.6936    2.8973    3.5265 H   0  0  0  0  0  0  0  0  0  0  0  0
    2.3369    1.3025    4.5024 H   0  0  0  0  0  0  0  0  0  0  0  0
    1.0164    0.1207    4.7963 H   0  0  0  0  0  0  0  0  0  0  0  0
    3.2328   -0.2076    0.2603 H   0  0  0  0  0  0  0  0  0  0  0  0
    2.0436    0.9303   -1.4874 H   0  0  0  0  0  0  0  0  0  0  0  0
   -0.2315    1.3880   -1.1919 H   0  0  0  0  0  0  0  0  0  0  0  0
   -0.0794    1.6369    0.4886 H   0  0  0  0  0  0  0  0  0  0  0  0
    1.3826   -1.8630    0.6729 H   0  0  0  0  0  0  0  0  0  0  0  0
   -1.3736   -0.0389    1.5644 H   0  0  0  0  0  0  0  0  0  0  0  0
   -1.5389   -1.6366    0.7603 H   0  0  0  0  0  0  0  0  0  0  0  0
   -2.2997   -0.2978   -1.3357 H   0  0  0  0  0  0  0  0  0  0  0  0
   -4.0104   -0.2513    1.2137 H   0  0  0  0  0  0  0  0  0  0  0  0
   -3.8246   -1.6468    0.0986 H   0  0  0  0  0  0  0  0  0  0  0  0
   -4.6291   -0.1450   -0.4686 H   0  0  0  0  0  0  0  0  0  0  0  0
   -1.5174    1.9231   -0.5247 H   0  0  0  0  0  0  0  0  0  0  0  0
   -2.6677    1.8261    0.8510 H   0  0  0  0  0  0  0  0  0  0  0  0
   -3.2866    1.9322   -0.8312 H   0  0  0  0  0  0  0  0  0  0  0  0
    0.4478    3.0736    1.0011 H   0  0  0  0  0  0  0  0  0  0  0  0
    1.2063    5.3906    1.4566 H   0  0  0  0  0  0  0  0  0  0  0  0
    4.7487    4.6953   -0.8939 H   0  0  0  0  0  0  0  0  0  0  0  0
    3.5402    1.9206   -2.2183 H   0  0  0  0  0  0  0  0  0  0  0  0
    2.4628    6.7209    2.3228 H   0  0  0  0  0  0  0  0  0  0  0  0
    1.6106    7.2854    0.8677 H   0  0  0  0  0  0  0  0  0  0  0  0
    2.9897    8.2713    1.5290 H   0  0  0  0  0  0  0  0  0  0  0  0
  1  2  1  0  0  0  0
  2  3  1  0  0  0  0
  3  4  1  0  0  0  0
  4  5  1  0  0  0  0
  5 13  1  0  0  0  0
  5  6  1  0  0  0  0
  6  7  2  0  0  0  0
  6  8  1  0  0  0  0
  8 12  1  0  0  0  0
  8  9  1  0  0  0  0
  9 10  1  0  0  0  0
  9 22  1  0  0  0  0
 10 11  1  0  0  0  0
 11 12  1  0  0  0  0
 11 15  1  0  0  0  0
 11 19  1  0  0  0  0
 12 13  1  0  0  0  0
 13 14  2  0  0  0  0
 15 16  1  0  0  0  0
 16 17  1  0  0  0  0
 16 18  1  0  0  0  0
 19 20  2  0  0  0  0
 19 21  1  0  0  0  0
 22 27  2  0  0  0  0
 22 23  1  0  0  0  0
 23 24  2  0  0  0  0
 24 25  1  0  0  0  0
 25 26  2  0  0  0  0
 25 29  1  0  0  0  0
 26 27  1  0  0  0  0
 27 28  1  0  0  0  0
 29 30  1  0  0  0  0
  1 31  1  0  0  0  0
  1 32  1  0  0  0  0
  1 33  1  0  0  0  0
  2 34  1  0  0  0  0
  2 35  1  0  0  0  0
  3 36  1  0  0  0  0
  3 37  1  0  0  0  0
  4 38  1  0  0  0  0
  4 39  1  0  0  0  0
  8 40  1  0  0  0  0
  9 41  1  0  0  0  0
 10 42  1  0  0  0  0
 10 43  1  0  0  0  0
 12 44  1  0  0  0  0
 15 45  1  0  0  0  0
 15 46  1  0  0  0  0
 16 47  1  0  0  0  0
 17 48  1  0  0  0  0
 17 49  1  0  0  0  0
 17 50  1  0  0  0  0
 18 51  1  0  0  0  0
 18 52  1  0  0  0  0
 18 53  1  0  0  0  0
 23 54  1  0  0  0  0
 24 55  1  0  0  0  0
 26 56  1  0  0  0  0
 28 57  1  0  0  0  0
 30 58  1  0  0  0  0
 30 59  1  0  0  0  0
 30 60  1  0  0  0  0
M  CHG  2  10   1  21  -1
M  END
> <Name>
ZINC19848804

> <reference>
BDB4965

> <quality>
0.672

> <status>
decoy

$$$$
ZINC31659431
  SciTegic06141217593D

 39 39  0  0  1  0            999 V2000
    2.5938   -6.0340    3.6208 C   0  0  0  0  0  0  0  0  0  0  0  0
    2.5508   -4.5048    3.5969 C   0  0  0  0  0  0  0  0  0  0  0  0
    1.7203   -4.0367    2.4002 C   0  0  0  0  0  0  0  0  0  0  0  0
    1.6773   -2.5075    2.3763 C   0  0  0  0  0  0  0  0  0  0  0  0
    0.8467   -2.0393    1.1796 C   0  0  1  0  0  0  0  0  0  0  0  0
    1.5457   -2.4949   -0.0873 C   0  0  0  0  0  0  0  0  0  0  0  0
    2.6827   -2.1549   -0.3351 O   0  5  0  0  0  0  0  0  0  0  0  0
    0.8616   -3.2926   -0.9288 N   0  0  0  0  0  0  0  0  0  0  0  0
   -0.3945   -3.6767   -0.6743 C   0  0  0  0  0  0  0  0  0  0  0  0
   -0.9393   -4.3956   -1.4881 O   0  0  0  0  0  0  0  0  0  0  0  0
   -1.0946   -3.3265    0.4107 N   0  0  0  0  0  0  0  0  0  0  0  0
   -0.5754   -2.5317    1.3705 C   0  0  0  0  0  0  0  0  0  0  0  0
   -1.2218   -2.2227    2.3485 O   0  0  0  0  0  0  0  0  0  0  0  0
    0.8260   -0.5095    1.1880 C   0  0  0  0  0  0  0  0  0  0  0  0
    0.0021   -0.0041    0.0020 C   0  0  0  0  0  0  0  0  0  0  0  0
   -0.0178    1.4648    0.0101 N   0  3  0  0  0  0  0  0  0  0  0  0
   -0.8017    1.9868   -1.1173 C   0  0  0  0  0  0  0  0  0  0  0  0
   -0.7993    3.5163   -1.0752 C   0  0  0  0  0  0  0  0  0  0  0  0
    3.0510   -6.4036    2.6911 H   0  0  0  0  0  0  0  0  0  0  0  0
    1.5710   -6.4293    3.7081 H   0  0  0  0  0  0  0  0  0  0  0  0
    3.1908   -6.3713    4.4810 H   0  0  0  0  0  0  0  0  0  0  0  0
    2.0932   -4.1361    4.5268 H   0  0  0  0  0  0  0  0  0  0  0  0
    3.5736   -4.1094    3.5096 H   0  0  0  0  0  0  0  0  0  0  0  0
    2.1776   -4.4047    1.4699 H   0  0  0  0  0  0  0  0  0  0  0  0
    0.6967   -4.4302    2.4864 H   0  0  0  0  0  0  0  0  0  0  0  0
    2.7001   -2.1121    2.2890 H   0  0  0  0  0  0  0  0  0  0  0  0
    1.2198   -2.1388    3.3062 H   0  0  0  0  0  0  0  0  0  0  0  0
   -2.0585   -3.6737    0.5169 H   0  0  0  0  0  0  0  0  0  0  0  0
    0.3741   -0.1539    2.1257 H   0  0  0  0  0  0  0  0  0  0  0  0
    1.8544   -0.1273    1.1085 H   0  0  0  0  0  0  0  0  0  0  0  0
    0.4537   -0.3590   -0.9361 H   0  0  0  0  0  0  0  0  0  0  0  0
   -1.0271   -0.3844    0.0804 H   0  0  0  0  0  0  0  0  0  0  0  0
   -0.4332    1.7941    0.8932 H   0  0  0  0  0  0  0  0  0  0  0  0
    0.9472    1.8189   -0.0553 H   0  0  0  0  0  0  0  0  0  0  0  0
   -1.8365    1.6204   -1.0467 H   0  0  0  0  0  0  0  0  0  0  0  0
   -0.3557    1.6459   -2.0633 H   0  0  0  0  0  0  0  0  0  0  0  0
    0.2348    3.8845   -1.1469 H   0  0  0  0  0  0  0  0  0  0  0  0
   -1.2452    3.8588   -0.1298 H   0  0  0  0  0  0  0  0  0  0  0  0
   -1.3861    3.9079   -1.9192 H   0  0  0  0  0  0  0  0  0  0  0  0
  1  2  1  0  0  0  0
  2  3  1  0  0  0  0
  3  4  1  0  0  0  0
  4  5  1  0  0  0  0
  5 12  1  0  0  0  0
  5  6  1  0  0  0  0
  5 14  1  0  0  0  0
  6  7  1  0  0  0  0
  6  8  2  0  0  0  0
  8  9  1  0  0  0  0
  9 10  2  0  0  0  0
  9 11  1  0  0  0  0
 11 12  1  0  0  0  0
 12 13  2  0  0  0  0
 14 15  1  0  0  0  0
 15 16  1  0  0  0  0
 16 17  1  0  0  0  0
 17 18  1  0  0  0  0
  1 19  1  0  0  0  0
  1 20  1  0  0  0  0
  1 21  1  0  0  0  0
  2 22  1  0  0  0  0
  2 23  1  0  0  0  0
  3 24  1  0  0  0  0
  3 25  1  0  0  0  0
  4 26  1  0  0  0  0
  4 27  1  0  0  0  0
 11 28  1  0  0  0  0
 14 29  1  0  0  0  0
 14 30  1  0  0  0  0
 15 31  1  0  0  0  0
 15 32  1  0  0  0  0
 16 33  1  0  0  0  0
 16 34  1  0  0  0  0
 17 35  1  0  0  0  0
 17 36  1  0  0  0  0
 18 37  1  0  0  0  0
 18 38  1  0  0  0  0
 18 39  1  0  0  0  0
M  CHG  2   7  -1  16   1
M  END
> <Name>
ZINC31659431

> <reference>
BDB5232

> <quality>
0.769

> <status>
decoy

$$$$
ZINC22063500
  SciTegic06141217593D

 48 49  0  0  1  0            999 V2000
    1.2924   -0.7528   -0.0089 C   0  0  0  0  0  0  0  0  0  0  0  0
    0.0178   -0.0306    0.0045 N   0  0  0  0  0  0  0  0  0  0  0  0
   -1.2449   -0.7734    0.0118 C   0  0  0  0  0  0  0  0  0  0  0  0
   -1.6325   -1.1346   -1.4235 C   0  0  0  0  0  0  0  0  0  0  0  0
   -2.9512   -1.9104   -1.4158 C   0  0  0  0  0  0  0  0  0  0  0  0
   -3.3330   -2.2661   -2.8296 C   0  0  0  0  0  0  0  0  0  0  0  0
   -2.6207   -1.9321   -3.7523 O   0  0  0  0  0  0  0  0  0  0  0  0
   -4.5704   -3.0188   -3.0904 C   0  0  0  0  0  0  0  0  0  0  0  0
   -5.4006   -3.4165   -2.0317 C   0  0  0  0  0  0  0  0  0  0  0  0
   -6.5543   -4.1173   -2.3319 C   0  0  0  0  0  0  0  0  0  0  0  0
   -6.8447   -4.4111   -3.6528 C   0  0  0  0  0  0  0  0  0  0  0  0
   -6.0433   -4.0291   -4.6290 N   0  3  0  0  0  0  0  0  0  0  0  0
   -4.9363   -3.3553   -4.3970 C   0  0  0  0  0  0  0  0  0  0  0  0
   -6.3953   -4.3649   -6.0108 C   0  0  2  0  0  0  0  0  0  0  0  0
   -5.9662   -3.2250   -6.9384 C   0  0  2  0  0  0  0  0  0  0  0  0
   -6.7316   -1.9534   -6.5596 C   0  0  2  0  0  0  0  0  0  0  0  0
   -8.2356   -2.2330   -6.6394 C   0  0  1  0  0  0  0  0  0  0  0  0
   -8.5770   -3.4112   -5.7234 C   0  0  2  0  0  0  0  0  0  0  0  0
   -7.8085   -4.5521   -6.1106 O   0  0  0  0  0  0  0  0  0  0  0  0
  -10.0450   -3.7305   -5.8414 C   0  0  0  0  0  0  0  0  0  0  0  0
  -10.3976   -4.7899   -6.3033 O   0  0  0  0  0  0  0  0  0  0  0  0
  -10.9609   -2.8381   -5.4332 O   0  5  0  0  0  0  0  0  0  0  0  0
   -8.9596   -1.0753   -6.2182 O   0  0  0  0  0  0  0  0  0  0  0  0
   -6.3919   -0.9029   -7.4668 O   0  0  0  0  0  0  0  0  0  0  0  0
   -6.2610   -3.5744   -8.2923 O   0  0  0  0  0  0  0  0  0  0  0  0
    0.0073    1.2593    0.0097 N   0  0  0  0  0  0  0  0  0  0  0  0
    1.0571    1.8769    0.0036 O   0  0  0  0  0  0  0  0  0  0  0  0
    1.2391   -1.4023   -0.8951 H   0  0  0  0  0  0  0  0  0  0  0  0
    1.2535   -1.4095    0.8727 H   0  0  0  0  0  0  0  0  0  0  0  0
    2.1808   -0.1042   -0.0135 H   0  0  0  0  0  0  0  0  0  0  0  0
   -1.1254   -1.6942    0.6015 H   0  0  0  0  0  0  0  0  0  0  0  0
   -2.0347   -0.1517    0.4587 H   0  0  0  0  0  0  0  0  0  0  0  0
   -1.7527   -0.2141   -2.0137 H   0  0  0  0  0  0  0  0  0  0  0  0
   -0.8442   -1.7573   -1.8717 H   0  0  0  0  0  0  0  0  0  0  0  0
   -3.7410   -1.2888   -0.9689 H   0  0  0  0  0  0  0  0  0  0  0  0
   -2.8316   -2.8313   -0.8261 H   0  0  0  0  0  0  0  0  0  0  0  0
   -5.1406   -3.1771   -0.9900 H   0  0  0  0  0  0  0  0  0  0  0  0
   -7.2343   -4.4380   -1.5290 H   0  0  0  0  0  0  0  0  0  0  0  0
   -7.7595   -4.9728   -3.8930 H   0  0  0  0  0  0  0  0  0  0  0  0
   -4.2941   -3.0547   -5.2380 H   0  0  0  0  0  0  0  0  0  0  0  0
   -5.8804   -5.2914   -6.3049 H   0  0  0  0  0  0  0  0  0  0  0  0
   -4.8850   -3.0508   -6.8351 H   0  0  0  0  0  0  0  0  0  0  0  0
   -6.4640   -1.6496   -5.5368 H   0  0  0  0  0  0  0  0  0  0  0  0
   -8.5120   -2.4776   -7.6756 H   0  0  0  0  0  0  0  0  0  0  0  0
   -8.3424   -3.1467   -4.6818 H   0  0  0  0  0  0  0  0  0  0  0  0
   -8.7347   -0.3123   -6.8075 H   0  0  0  0  0  0  0  0  0  0  0  0
   -6.6343   -1.1710   -8.3885 H   0  0  0  0  0  0  0  0  0  0  0  0
   -7.2340   -3.7295   -8.3893 H   0  0  0  0  0  0  0  0  0  0  0  0
  1  2  1  0  0  0  0
  2  3  1  0  0  0  0
  2 26  1  0  0  0  0
  3  4  1  0  0  0  0
  4  5  1  0  0  0  0
  5  6  1  0  0  0  0
  6  7  2  0  0  0  0
  6  8  1  0  0  0  0
  8 13  2  0  0  0  0
  8  9  1  0  0  0  0
  9 10  2  0  0  0  0
 10 11  1  0  0  0  0
 11 12  2  0  0  0  0
 12 13  1  0  0  0  0
 12 14  1  0  0  0  0
 14 19  1  0  0  0  0
 14 15  1  0  0  0  0
 15 16  1  0  0  0  0
 15 25  1  0  0  0  0
 16 17  1  0  0  0  0
 16 24  1  0  0  0  0
 17 18  1  0  0  0  0
 17 23  1  0  0  0  0
 18 19  1  0  0  0  0
 18 20  1  0  0  0  0
 20 21  2  0  0  0  0
 20 22  1  0  0  0  0
 26 27  2  0  0  0  0
  1 28  1  0  0  0  0
  1 29  1  0  0  0  0
  1 30  1  0  0  0  0
  3 31  1  0  0  0  0
  3 32  1  0  0  0  0
  4 33  1  0  0  0  0
  4 34  1  0  0  0  0
  5 35  1  0  0  0  0
  5 36  1  0  0  0  0
  9 37  1  0  0  0  0
 10 38  1  0  0  0  0
 11 39  1  0  0  0  0
 13 40  1  0  0  0  0
 14 41  1  0  0  0  0
 15 42  1  0  0  0  0
 16 43  1  0  0  0  0
 17 44  1  0  0  0  0
 18 45  1  0  0  0  0
 23 46  1  0  0  0  0
 24 47  1  0  0  0  0
 25 48  1  0  0  0  0
M  CHG  2  12   1  22  -1
M  END
> <Name>
ZINC22063500

> <reference>
BDB4945

> <quality>
0.716

> <status>
decoy

$$$$
ZINC16562397
  SciTegic06141217593D

 53 54  0  0  1  0            999 V2000
    9.2501    5.2914    1.1613 C   0  0  0  0  0  0  0  0  0  0  0  0
    7.9669    4.4628    1.0728 C   0  0  0  0  0  0  0  0  0  0  0  0
    6.8902    5.1867    1.6717 O   0  0  0  0  0  0  0  0  0  0  0  0
    5.6708    4.5868    1.6765 C   0  0  0  0  0  0  0  0  0  0  0  0
    4.5809    5.2328    2.2417 C   0  0  0  0  0  0  0  0  0  0  0  0
    3.3422    4.6211    2.2449 C   0  0  0  0  0  0  0  0  0  0  0  0
    3.1883    3.3660    1.6855 C   0  0  0  0  0  0  0  0  0  0  0  0
    4.2741    2.7177    1.1266 C   0  0  0  0  0  0  0  0  0  0  0  0
    5.5137    3.3276    1.1158 C   0  0  0  0  0  0  0  0  0  0  0  0
    1.8359    2.7011    1.6903 C   0  0  0  0  0  0  0  0  0  0  0  0
    0.7905    4.5004    0.4526 C   0  0  0  0  0  0  0  0  0  0  0  0
   -0.1108    2.2570    0.3208 C   0  0  2  0  0  0  0  0  0  0  0  0
    0.2670    0.7764    0.2430 C   0  0  0  0  0  0  0  0  0  0  0  0
   -0.8309    2.6586   -0.9406 C   0  0  0  0  0  0  0  0  0  0  0  0
   -0.2331    3.2446   -1.8207 O   0  0  0  0  0  0  0  0  0  0  0  0
   -2.1997    2.3539   -1.0993 C   0  0  0  0  0  0  0  0  0  0  0  0
   -2.8608    2.5975   -2.3156 C   0  0  0  0  0  0  0  0  0  0  0  0
   -4.1851    2.2810   -2.4225 N   0  0  0  0  0  0  0  0  0  0  0  0
   -4.8623    1.7555   -1.3898 C   0  0  0  0  0  0  0  0  0  0  0  0
   -6.0409    1.4957   -1.5342 O   0  0  0  0  0  0  0  0  0  0  0  0
   -4.2857    1.5057   -0.2030 N   0  0  0  0  0  0  0  0  0  0  0  0
   -2.9806    1.7778    0.0030 C   0  0  0  0  0  0  0  0  0  0  0  0
   -2.4612    1.5510    1.0802 O   0  0  0  0  0  0  0  0  0  0  0  0
   -5.0844    0.9307    0.8821 C   0  0  0  0  0  0  0  0  0  0  0  0
   -4.8819    2.5264   -3.6876 C   0  0  0  0  0  0  0  0  0  0  0  0
   -2.1910    3.1350   -3.3709 N   0  0  0  0  0  0  0  0  0  0  0  0
    1.1235    3.0604    0.4461 N   0  0  0  0  0  0  0  0  0  0  0  0
    9.4863    5.4919    2.2168 H   0  0  0  0  0  0  0  0  0  0  0  0
    9.1097    6.2444    0.6302 H   0  0  0  0  0  0  0  0  0  0  0  0
   10.0794    4.7347    0.7004 H   0  0  0  0  0  0  0  0  0  0  0  0
    7.7313    4.2631    0.0170 H   0  0  0  0  0  0  0  0  0  0  0  0
    8.1072    3.5097    1.6038 H   0  0  0  0  0  0  0  0  0  0  0  0
    4.7029    6.2312    2.6869 H   0  0  0  0  0  0  0  0  0  0  0  0
    2.4777    5.1329    2.6928 H   0  0  0  0  0  0  0  0  0  0  0  0
    4.1509    1.7155    0.6902 H   0  0  0  0  0  0  0  0  0  0  0  0
    6.3754    2.8152    0.6630 H   0  0  0  0  0  0  0  0  0  0  0  0
    1.9623    1.6095    1.7397 H   0  0  0  0  0  0  0  0  0  0  0  0
    1.2568    3.0481    2.5588 H   0  0  0  0  0  0  0  0  0  0  0  0
    1.7177    5.0877    0.5266 H   0  0  0  0  0  0  0  0  0  0  0  0
    0.1495    4.7215    1.3187 H   0  0  0  0  0  0  0  0  0  0  0  0
    0.2606    4.7633   -0.4748 H   0  0  0  0  0  0  0  0  0  0  0  0
   -0.7641    2.4275    1.1892 H   0  0  0  0  0  0  0  0  0  0  0  0
    0.9248    0.6098   -0.6228 H   0  0  0  0  0  0  0  0  0  0  0  0
   -0.6440    0.1698    0.1327 H   0  0  0  0  0  0  0  0  0  0  0  0
    0.7927    0.4826    1.1635 H   0  0  0  0  0  0  0  0  0  0  0  0
   -5.4980   -0.0035    0.4744 H   0  0  0  0  0  0  0  0  0  0  0  0
   -5.9242    1.6267    1.0245 H   0  0  0  0  0  0  0  0  0  0  0  0
   -4.5166    0.7661    1.8097 H   0  0  0  0  0  0  0  0  0  0  0  0
   -4.3110    1.9716   -4.4467 H   0  0  0  0  0  0  0  0  0  0  0  0
   -4.7445    3.5984   -3.8924 H   0  0  0  0  0  0  0  0  0  0  0  0
   -5.9432    2.2378   -3.6706 H   0  0  0  0  0  0  0  0  0  0  0  0
   -1.1914    3.3645   -3.2756 H   0  0  0  0  0  0  0  0  0  0  0  0
   -2.6794    3.3118   -4.2603 H   0  0  0  0  0  0  0  0  0  0  0  0
  1  2  1  0  0  0  0
  2  3  1  0  0  0  0
  3  4  1  0  0  0  0
  4  9  2  0  0  0  0
  4  5  1  0  0  0  0
  5  6  2  0  0  0  0
  6  7  1  0  0  0  0
  7  8  2  0  0  0  0
  7 10  1  0  0  0  0
  8  9  1  0  0  0  0
 10 27  1  0  0  0  0
 11 27  1  0  0  0  0
 12 13  1  0  0  0  0
 12 14  1  0  0  0  0
 12 27  1  0  0  0  0
 14 15  2  0  0  0  0
 14 16  1  0  0  0  0
 16 22  1  0  0  0  0
 16 17  2  0  0  0  0
 17 18  1  0  0  0  0
 17 26  1  0  0  0  0
 18 19  1  0  0  0  0
 18 25  1  0  0  0  0
 19 20  2  0  0  0  0
 19 21  1  0  0  0  0
 21 22  1  0  0  0  0
 21 24  1  0  0  0  0
 22 23  2  0  0  0  0
  1 28  1  0  0  0  0
  1 29  1  0  0  0  0
  1 30  1  0  0  0  0
  2 31  1  0  0  0  0
  2 32  1  0  0  0  0
  5 33  1  0  0  0  0
  6 34  1  0  0  0  0
  8 35  1  0  0  0  0
  9 36  1  0  0  0  0
 10 37  1  0  0  0  0
 10 38  1  0  0  0  0
 11 39  1  0  0  0  0
 11 40  1  0  0  0  0
 11 41  1  0  0  0  0
 12 42  1  0  0  0  0
 13 43  1  0  0  0  0
 13 44  1  0  0  0  0
 13 45  1  0  0  0  0
 24 46  1  0  0  0  0
 24 47  1  0  0  0  0
 24 48  1  0  0  0  0
 25 49  1  0  0  0  0
 25 50  1  0  0  0  0
 25 51  1  0  0  0  0
 26 52  1  0  0  0  0
 26 53  1  0  0  0  0
M  END
> <Name>
ZINC16562397

> <reference>
BDB4952

> <quality>
0.727

> <status>
decoy

$$$$
ZINC08615535
  SciTegic06141217593D

 49 50  0  0  0  0            999 V2000
   -3.2552    0.0066   -2.1530 C   0  0  0  0  0  0  0  0  0  0  0  0
   -1.7389   -0.1825   -2.2299 C   0  0  2  0  0  0  0  0  0  0  0  0
   -1.2606   -0.8846   -1.0246 N   0  0  0  0  0  0  0  0  0  0  0  0
   -1.2001   -0.1487    0.1524 C   0  0  0  0  0  0  0  0  0  0  0  0
   -0.6645    1.1339    0.0512 N   0  0  0  0  0  0  0  0  0  0  0  0
   -1.0127    1.8535   -1.0908 C   0  0  0  0  0  0  0  0  0  0  0  0
   -1.0725    1.1322   -2.2765 N   0  0  0  0  0  0  0  0  0  0  0  0
   -0.5238    1.6321   -3.4651 C   0  0  0  0  0  0  0  0  0  0  0  0
    0.8286    1.4636   -3.7302 C   0  0  0  0  0  0  0  0  0  0  0  0
    1.3681    1.9513   -4.9039 C   0  0  0  0  0  0  0  0  0  0  0  0
    0.5604    2.6207   -5.8139 C   0  0  0  0  0  0  0  0  0  0  0  0
   -0.7913    2.7942   -5.5459 C   0  0  0  0  0  0  0  0  0  0  0  0
   -1.3317    2.3010   -4.3750 C   0  0  0  0  0  0  0  0  0  0  0  0
    1.1084    3.1208   -7.0004 N   0  0  0  0  0  0  0  0  0  0  0  0
    2.5342    2.9378   -7.2829 C   0  0  0  0  0  0  0  0  0  0  0  0
    2.7392    1.6254   -8.0421 C   0  0  0  0  0  0  0  0  0  0  0  0
    2.1084    1.7115   -9.3214 O   0  0  0  0  0  0  0  0  0  0  0  0
    0.2563    3.8274   -7.9599 C   0  0  0  0  0  0  0  0  0  0  0  0
    0.2509    5.3222   -7.6332 C   0  0  0  0  0  0  0  0  0  0  0  0
    1.5620    5.8567   -7.8266 O   0  0  0  0  0  0  0  0  0  0  0  0
   -1.3796   -0.9910   -3.4782 C   0  0  0  0  0  0  0  0  0  0  0  0
   -1.6444   -0.6964    1.2731 N   0  3  0  0  0  0  0  0  0  0  0  0
   -1.2826    3.1498   -1.1149 N   0  3  0  0  0  0  0  0  0  0  0  0
   -3.5992    0.5604   -3.0390 H   0  0  0  0  0  0  0  0  0  0  0  0
   -3.5062    0.5768   -1.2464 H   0  0  0  0  0  0  0  0  0  0  0  0
   -3.7494   -0.9755   -2.1184 H   0  0  0  0  0  0  0  0  0  0  0  0
   -0.9837   -1.8763   -1.0539 H   0  0  0  0  0  0  0  0  0  0  0  0
   -0.0481    1.5267    0.7769 H   0  0  0  0  0  0  0  0  0  0  0  0
    1.4703    0.9415   -3.0052 H   0  0  0  0  0  0  0  0  0  0  0  0
    2.4377    1.8096   -5.1181 H   0  0  0  0  0  0  0  0  0  0  0  0
   -1.4313    3.3245   -6.2665 H   0  0  0  0  0  0  0  0  0  0  0  0
   -2.4023    2.4380   -4.1629 H   0  0  0  0  0  0  0  0  0  0  0  0
    3.0953    2.9050   -6.3373 H   0  0  0  0  0  0  0  0  0  0  0  0
    2.8972    3.7759   -7.8959 H   0  0  0  0  0  0  0  0  0  0  0  0
    3.8157    1.4435   -8.1762 H   0  0  0  0  0  0  0  0  0  0  0  0
    2.2958    0.7968   -7.4705 H   0  0  0  0  0  0  0  0  0  0  0  0
    2.5072    2.4563   -9.8375 H   0  0  0  0  0  0  0  0  0  0  0  0
   -0.7698    3.4358   -7.8986 H   0  0  0  0  0  0  0  0  0  0  0  0
    0.6462    3.6764   -8.9773 H   0  0  0  0  0  0  0  0  0  0  0  0
   -0.4572    5.8401   -8.2968 H   0  0  0  0  0  0  0  0  0  0  0  0
   -0.0533    5.4688   -6.5863 H   0  0  0  0  0  0  0  0  0  0  0  0
    1.8368    5.7265   -8.7687 H   0  0  0  0  0  0  0  0  0  0  0  0
   -1.7277   -0.4544   -4.3732 H   0  0  0  0  0  0  0  0  0  0  0  0
   -1.8694   -1.9747   -3.4293 H   0  0  0  0  0  0  0  0  0  0  0  0
   -0.2891   -1.1254   -3.5310 H   0  0  0  0  0  0  0  0  0  0  0  0
   -2.0293   -1.6518    1.2772 H   0  0  0  0  0  0  0  0  0  0  0  0
   -1.6034   -0.1581    2.1503 H   0  0  0  0  0  0  0  0  0  0  0  0
   -1.2262    3.6469   -0.2146 H   0  0  0  0  0  0  0  0  0  0  0  0
   -1.5366    3.6472   -1.9803 H   0  0  0  0  0  0  0  0  0  0  0  0
  1  2  1  0  0  0  0
  2  7  1  0  0  0  0
  2  3  1  0  0  0  0
  2 21  1  0  0  0  0
  3  4  1  0  0  0  0
  4  5  1  0  0  0  0
  4 22  2  0  0  0  0
  5  6  1  0  0  0  0
  6  7  1  0  0  0  0
  6 23  2  0  0  0  0
  7  8  1  0  0  0  0
  8 13  2  0  0  0  0
  8  9  1  0  0  0  0
  9 10  2  0  0  0  0
 10 11  1  0  0  0  0
 11 12  2  0  0  0  0
 11 14  1  0  0  0  0
 12 13  1  0  0  0  0
 14 15  1  0  0  0  0
 14 18  1  0  0  0  0
 15 16  1  0  0  0  0
 16 17  1  0  0  0  0
 18 19  1  0  0  0  0
 19 20  1  0  0  0  0
  1 24  1  0  0  0  0
  1 25  1  0  0  0  0
  1 26  1  0  0  0  0
  3 27  1  0  0  0  0
  5 28  1  0  0  0  0
  9 29  1  0  0  0  0
 10 30  1  0  0  0  0
 12 31  1  0  0  0  0
 13 32  1  0  0  0  0
 15 33  1  0  0  0  0
 15 34  1  0  0  0  0
 16 35  1  0  0  0  0
 16 36  1  0  0  0  0
 17 37  1  0  0  0  0
 18 38  1  0  0  0  0
 18 39  1  0  0  0  0
 19 40  1  0  0  0  0
 19 41  1  0  0  0  0
 20 42  1  0  0  0  0
 21 43  1  0  0  0  0
 21 44  1  0  0  0  0
 21 45  1  0  0  0  0
 22 46  1  0  0  0  0
 22 47  1  0  0  0  0
 23 48  1  0  0  0  0
 23 49  1  0  0  0  0
M  CHG  2  22   1  23   1
M  END
> <Name>
ZINC08615535

> <reference>
BDB5228

> <quality>
0.725

> <status>
decoy

$$$$
ZINC06078676
  SciTegic06141217593D

 37 38  0  0  0  0            999 V2000
    0.2530   -4.1741   -0.0223 C   0  0  0  0  0  0  0  0  0  0  0  0
    0.1437   -2.6711   -0.0137 C   0  0  0  0  0  0  0  0  0  0  0  0
   -1.1236   -2.0495    0.0018 C   0  0  0  0  0  0  0  0  0  0  0  0
   -2.1470   -2.7129    0.0076 O   0  0  0  0  0  0  0  0  0  0  0  0
   -1.1715   -0.6974    0.0095 N   0  0  0  0  0  0  0  0  0  0  0  0
    0.0021   -0.0041    0.0020 C   0  0  0  0  0  0  0  0  0  0  0  0
    1.1587   -0.6456   -0.0179 N   0  0  0  0  0  0  0  0  0  0  0  0
    1.2260   -1.9287   -0.0200 N   0  0  0  0  0  0  0  0  0  0  0  0
   -0.0218    1.7577    0.0117 S   0  0  0  0  0  0  0  0  0  0  0  0
    1.7562    2.0963   -0.0035 C   0  0  0  0  0  0  0  0  0  0  0  0
    1.9874    3.6087    0.0025 C   0  0  0  0  0  0  0  0  0  0  0  0
    3.3912    3.8760   -0.0095 O   0  0  0  0  0  0  0  0  0  0  0  0
    3.7711    5.1816   -0.0061 C   0  0  0  0  0  0  0  0  0  0  0  0
    2.8115    6.1831    0.0027 C   0  0  0  0  0  0  0  0  0  0  0  0
    3.1974    7.5093    0.0106 C   0  0  0  0  0  0  0  0  0  0  0  0
    4.5444    7.8397   -0.0001 C   0  0  0  0  0  0  0  0  0  0  0  0
    5.5040    6.8383   -0.0137 C   0  0  0  0  0  0  0  0  0  0  0  0
    5.1181    5.5120   -0.0172 C   0  0  0  0  0  0  0  0  0  0  0  0
    4.9243    9.1454    0.0034 O   0  0  0  0  0  0  0  0  0  0  0  0
    3.8830   10.1240    0.0176 C   0  0  0  0  0  0  0  0  0  0  0  0
   -2.3697   -0.0415    0.0240 N   0  0  0  0  0  0  0  0  0  0  0  0
    0.8659   -4.4220    0.8569 H   0  0  0  0  0  0  0  0  0  0  0  0
    0.8494   -4.4130   -0.9152 H   0  0  0  0  0  0  0  0  0  0  0  0
   -0.7193   -4.6885   -0.0159 H   0  0  0  0  0  0  0  0  0  0  0  0
    2.2220    1.6512    0.8881 H   0  0  0  0  0  0  0  0  0  0  0  0
    2.2057    1.6610   -0.9082 H   0  0  0  0  0  0  0  0  0  0  0  0
    1.5222    4.0544   -0.8891 H   0  0  0  0  0  0  0  0  0  0  0  0
    1.5394    4.0456    0.9071 H   0  0  0  0  0  0  0  0  0  0  0  0
    1.7431    5.9212    0.0034 H   0  0  0  0  0  0  0  0  0  0  0  0
    2.4364    8.3035    0.0254 H   0  0  0  0  0  0  0  0  0  0  0  0
    6.5723    7.1003   -0.0217 H   0  0  0  0  0  0  0  0  0  0  0  0
    5.8791    4.7178   -0.0288 H   0  0  0  0  0  0  0  0  0  0  0  0
    3.2757    9.9165    0.9110 H   0  0  0  0  0  0  0  0  0  0  0  0
    3.2602    9.9257   -0.8672 H   0  0  0  0  0  0  0  0  0  0  0  0
    4.2676   11.1546    0.0196 H   0  0  0  0  0  0  0  0  0  0  0  0
   -3.2448   -0.5847    0.0291 H   0  0  0  0  0  0  0  0  0  0  0  0
   -2.3996    0.9881    0.0298 H   0  0  0  0  0  0  0  0  0  0  0  0
  1  2  1  0  0  0  0
  2  8  2  0  0  0  0
  2  3  1  0  0  0  0
  3  4  2  0  0  0  0
  3  5  1  0  0  0  0
  5  6  1  0  0  0  0
  5 21  1  0  0  0  0
  6  7  2  0  0  0  0
  6  9  1  0  0  0  0
  7  8  1  0  0  0  0
  9 10  1  0  0  0  0
 10 11  1  0  0  0  0
 11 12  1  0  0  0  0
 12 13  1  0  0  0  0
 13 18  2  0  0  0  0
 13 14  1  0  0  0  0
 14 15  2  0  0  0  0
 15 16  1  0  0  0  0
 16 17  2  0  0  0  0
 16 19  1  0  0  0  0
 17 18  1  0  0  0  0
 19 20  1  0  0  0  0
  1 22  1  0  0  0  0
  1 23  1  0  0  0  0
  1 24  1  0  0  0  0
 10 25  1  0  0  0  0
 10 26  1  0  0  0  0
 11 27  1  0  0  0  0
 11 28  1  0  0  0  0
 14 29  1  0  0  0  0
 15 30  1  0  0  0  0
 17 31  1  0  0  0  0
 18 32  1  0  0  0  0
 20 33  1  0  0  0  0
 20 34  1  0  0  0  0
 20 35  1  0  0  0  0
 21 36  1  0  0  0  0
 21 37  1  0  0  0  0
M  END
> <Name>
ZINC06078676

> <reference>
BDB5199

> <quality>
0.701

> <status>
decoy

$$$$
ZINC24195016
  SciTegic06141217593D

 49 50  0  0  1  0            999 V2000
    5.0492   -0.4171   -1.8751 C   0  0  0  0  0  0  0  0  0  0  0  0
    4.0226    0.6735   -2.1876 C   0  0  0  0  0  0  0  0  0  0  0  0
    3.1984    0.8944   -1.0413 O   0  0  0  0  0  0  0  0  0  0  0  0
    2.2346    1.8324   -1.1514 C   0  0  0  0  0  0  0  0  0  0  0  0
    2.0987    2.4457   -2.1935 O   0  0  0  0  0  0  0  0  0  0  0  0
    1.3823    2.1027   -0.0553 C   0  0  0  0  0  0  0  0  0  0  0  0
    1.7935    2.8715    0.9760 C   0  0  0  0  0  0  0  0  0  0  0  0
    0.9694    3.1324    2.0331 N   0  0  0  0  0  0  0  0  0  0  0  0
   -0.2801    2.6619    2.1343 C   0  0  0  0  0  0  0  0  0  0  0  0
   -0.9388    2.9487    3.1149 O   0  0  0  0  0  0  0  0  0  0  0  0
   -0.8311    1.8800    1.1849 N   0  0  0  0  0  0  0  0  0  0  0  0
   -0.0234    1.5398    0.0014 C   0  0  2  0  0  0  0  0  0  0  0  0
    0.0754    0.0152   -0.0798 C   0  0  0  0  0  0  0  0  0  0  0  0
    3.1844    3.4514    0.9597 C   0  0  0  0  0  0  0  0  0  0  0  0
    3.1044    4.8987    0.8744 O   0  0  0  0  0  0  0  0  0  0  0  0
    4.2649    5.5728    0.8497 C   0  0  0  0  0  0  0  0  0  0  0  0
    5.3128    4.9733    0.8978 O   0  0  0  0  0  0  0  0  0  0  0  0
    4.2607    7.0772    0.7621 C   0  0  0  0  0  0  0  0  0  0  0  0
    5.6404    7.5696    0.7507 N   0  0  0  0  0  0  0  0  0  0  0  0
    6.3516    7.7852    2.0132 C   0  0  0  0  0  0  0  0  0  0  0  0
    6.3961    7.8823   -0.6892 S   0  0  0  0  0  0  0  0  0  0  0  0
    7.7926    7.7879   -0.4439 O   0  0  0  0  0  0  0  0  0  0  0  0
    5.7402    7.0929   -1.6720 O   0  0  0  0  0  0  0  0  0  0  0  0
    6.0688    9.5655   -1.0946 C   0  0  0  0  0  0  0  0  0  0  0  0
    6.7748   10.6753   -0.7671 C   0  0  0  0  0  0  0  0  0  0  0  0
    6.3264   11.9080   -1.2031 C   0  0  0  0  0  0  0  0  0  0  0  0
    5.1881   11.9716   -1.9363 C   0  0  0  0  0  0  0  0  0  0  0  0
    4.7168   10.2526   -2.0365 S   0  0  0  0  0  0  0  0  0  0  0  0
    4.5272   -1.3496   -1.6145 H   0  0  0  0  0  0  0  0  0  0  0  0
    5.6765   -0.1000   -1.0290 H   0  0  0  0  0  0  0  0  0  0  0  0
    5.6840   -0.5876   -2.7571 H   0  0  0  0  0  0  0  0  0  0  0  0
    4.5454    1.6057   -2.4478 H   0  0  0  0  0  0  0  0  0  0  0  0
    3.3953    0.3565   -3.0337 H   0  0  0  0  0  0  0  0  0  0  0  0
    1.3292    3.7243    2.7954 H   0  0  0  0  0  0  0  0  0  0  0  0
   -1.7942    1.5287    1.2847 H   0  0  0  0  0  0  0  0  0  0  0  0
   -0.5496    2.0069   -0.8441 H   0  0  0  0  0  0  0  0  0  0  0  0
    0.6579   -0.3734    0.7685 H   0  0  0  0  0  0  0  0  0  0  0  0
    0.5501   -0.2849   -1.0257 H   0  0  0  0  0  0  0  0  0  0  0  0
   -0.9386   -0.4092   -0.0398 H   0  0  0  0  0  0  0  0  0  0  0  0
    3.7110    3.1676    1.8828 H   0  0  0  0  0  0  0  0  0  0  0  0
    3.7344    3.0634    0.0897 H   0  0  0  0  0  0  0  0  0  0  0  0
    3.7529    7.3894   -0.1624 H   0  0  0  0  0  0  0  0  0  0  0  0
    3.7303    7.4947    1.6307 H   0  0  0  0  0  0  0  0  0  0  0  0
    6.3082    6.8153    2.5304 H   0  0  0  0  0  0  0  0  0  0  0  0
    5.7146    8.4798    2.5805 H   0  0  0  0  0  0  0  0  0  0  0  0
    7.3807    8.1557    1.8962 H   0  0  0  0  0  0  0  0  0  0  0  0
    7.6909   10.5961   -0.1634 H   0  0  0  0  0  0  0  0  0  0  0  0
    6.8849   12.8236   -0.9587 H   0  0  0  0  0  0  0  0  0  0  0  0
    4.6852   12.8536   -2.3597 H   0  0  0  0  0  0  0  0  0  0  0  0
  1  2  1  0  0  0  0
  2  3  1  0  0  0  0
  3  4  1  0  0  0  0
  4  5  2  0  0  0  0
  4  6  1  0  0  0  0
  6 12  1  0  0  0  0
  6  7  2  0  0  0  0
  7  8  1  0  0  0  0
  7 14  1  0  0  0  0
  8  9  1  0  0  0  0
  9 10  2  0  0  0  0
  9 11  1  0  0  0  0
 11 12  1  0  0  0  0
 12 13  1  0  0  0  0
 14 15  1  0  0  0  0
 15 16  1  0  0  0  0
 16 17  2  0  0  0  0
 16 18  1  0  0  0  0
 18 19  1  0  0  0  0
 19 20  1  0  0  0  0
 19 21  1  0  0  0  0
 21 22  2  0  0  0  0
 21 23  2  0  0  0  0
 21 24  1  0  0  0  0
 24 28  1  0  0  0  0
 24 25  2  0  0  0  0
 25 26  1  0  0  0  0
 26 27  2  0  0  0  0
 27 28  1  0  0  0  0
  1 29  1  0  0  0  0
  1 30  1  0  0  0  0
  1 31  1  0  0  0  0
  2 32  1  0  0  0  0
  2 33  1  0  0  0  0
  8 34  1  0  0  0  0
 11 35  1  0  0  0  0
 12 36  1  0  0  0  0
 13 37  1  0  0  0  0
 13 38  1  0  0  0  0
 13 39  1  0  0  0  0
 14 40  1  0  0  0  0
 14 41  1  0  0  0  0
 18 42  1  0  0  0  0
 18 43  1  0  0  0  0
 20 44  1  0  0  0  0
 20 45  1  0  0  0  0
 20 46  1  0  0  0  0
 25 47  1  0  0  0  0
 26 48  1  0  0  0  0
 27 49  1  0  0  0  0
M  END
> <Name>
ZINC24195016

> <reference>
BDB4946

> <quality>
0.742

> <status>
decoy

$$$$
ZINC15910386
  SciTegic06141217593D

 54 55  0  0  0  0            999 V2000
   -3.1330    3.2374    4.8544 C   0  0  0  0  0  0  0  0  0  0  0  0
   -2.3546    2.7433    3.6625 C   0  0  0  0  0  0  0  0  0  0  0  0
   -1.5896    3.6222    2.9235 C   0  0  0  0  0  0  0  0  0  0  0  0
   -0.8705    3.1693    1.8319 C   0  0  0  0  0  0  0  0  0  0  0  0
   -0.9215    1.8353    1.4673 C   0  0  0  0  0  0  0  0  0  0  0  0
   -1.6824    0.9462    2.1975 C   0  0  0  0  0  0  0  0  0  0  0  0
   -2.4061    1.3957    3.3033 C   0  0  0  0  0  0  0  0  0  0  0  0
   -3.2241    0.4484    4.0903 C   0  0  0  0  0  0  0  0  0  0  0  0
   -3.7616    0.8164    5.1165 O   0  0  0  0  0  0  0  0  0  0  0  0
   -3.3739   -0.8233    3.6697 N   0  0  0  0  0  0  0  0  0  0  0  0
   -4.1491   -1.7210    4.4155 N   0  0  0  0  0  0  0  0  0  0  0  0
   -4.2989   -2.9927    3.9949 C   0  0  0  0  0  0  0  0  0  0  0  0
   -5.2461   -4.0897    4.9062 S   0  0  0  0  0  0  0  0  0  0  0  0
   -3.7030   -3.4008    2.8570 N   0  0  0  0  0  0  0  0  0  0  0  0
   -3.8658   -4.7831    2.3999 C   0  0  0  0  0  0  0  0  0  0  0  0
   -3.0935   -4.9829    1.0944 C   0  0  0  0  0  0  0  0  0  0  0  0
   -3.2635   -6.4265    0.6170 C   0  0  0  0  0  0  0  0  0  0  0  0
   -2.5422   -6.6131   -0.6024 O   0  0  0  0  0  0  0  0  0  0  0  0
   -2.6357   -7.9352   -1.1365 C   0  0  0  0  0  0  0  0  0  0  0  0
   -0.0068    1.2700    0.0715 S   0  0  0  0  0  0  0  0  0  0  0  0
    0.2161   -0.1197    0.2678 O   0  0  0  0  0  0  0  0  0  0  0  0
    1.0570    2.1929   -0.1178 O   0  0  0  0  0  0  0  0  0  0  0  0
   -0.9947    1.4088   -1.2503 N   0  0  0  0  0  0  0  0  0  0  0  0
   -1.8680    0.2987   -1.6632 C   0  0  0  0  0  0  0  0  0  0  0  0
   -3.2905    0.8512   -1.8474 C   0  0  0  0  0  0  0  0  0  0  0  0
   -3.2450    1.9815   -2.7216 O   0  0  0  0  0  0  0  0  0  0  0  0
   -2.4805    3.0799   -2.2187 C   0  0  0  0  0  0  0  0  0  0  0  0
   -1.0207    2.6436   -2.0502 C   0  0  0  0  0  0  0  0  0  0  0  0
   -2.7862    2.6205    5.6965 H   0  0  0  0  0  0  0  0  0  0  0  0
   -4.1758    2.9522    4.6515 H   0  0  0  0  0  0  0  0  0  0  0  0
   -3.0201    4.3147    5.0461 H   0  0  0  0  0  0  0  0  0  0  0  0
   -1.5514    4.6854    3.2030 H   0  0  0  0  0  0  0  0  0  0  0  0
   -0.2555    3.8726    1.2512 H   0  0  0  0  0  0  0  0  0  0  0  0
   -1.7188   -0.1147    1.9091 H   0  0  0  0  0  0  0  0  0  0  0  0
   -2.9185   -1.1352    2.8001 H   0  0  0  0  0  0  0  0  0  0  0  0
   -4.6045   -1.4091    5.2851 H   0  0  0  0  0  0  0  0  0  0  0  0
   -3.1331   -2.7408    2.3088 H   0  0  0  0  0  0  0  0  0  0  0  0
   -3.4759   -5.4707    3.1648 H   0  0  0  0  0  0  0  0  0  0  0  0
   -4.9325   -4.9909    2.2295 H   0  0  0  0  0  0  0  0  0  0  0  0
   -3.4832   -4.2958    0.3289 H   0  0  0  0  0  0  0  0  0  0  0  0
   -2.0263   -4.7766    1.2632 H   0  0  0  0  0  0  0  0  0  0  0  0
   -2.8736   -7.1141    1.3819 H   0  0  0  0  0  0  0  0  0  0  0  0
   -4.3302   -6.6343    0.4467 H   0  0  0  0  0  0  0  0  0  0  0  0
   -3.7015   -8.1514   -1.3019 H   0  0  0  0  0  0  0  0  0  0  0  0
   -2.2544   -8.6291   -0.3728 H   0  0  0  0  0  0  0  0  0  0  0  0
   -2.0671   -8.0340   -2.0729 H   0  0  0  0  0  0  0  0  0  0  0  0
   -1.8723   -0.4793   -0.8856 H   0  0  0  0  0  0  0  0  0  0  0  0
   -1.5090   -0.1208   -2.6146 H   0  0  0  0  0  0  0  0  0  0  0  0
   -3.9329    0.0734   -2.2861 H   0  0  0  0  0  0  0  0  0  0  0  0
   -3.6958    1.1580   -0.8719 H   0  0  0  0  0  0  0  0  0  0  0  0
   -2.5328    3.9193   -2.9277 H   0  0  0  0  0  0  0  0  0  0  0  0
   -2.8837    3.3943   -1.2448 H   0  0  0  0  0  0  0  0  0  0  0  0
   -0.4578    3.4328   -1.5303 H   0  0  0  0  0  0  0  0  0  0  0  0
   -0.5763    2.4545   -3.0385 H   0  0  0  0  0  0  0  0  0  0  0  0
  1  2  1  0  0  0  0
  2  7  2  0  0  0  0
  2  3  1  0  0  0  0
  3  4  2  0  0  0  0
  4  5  1  0  0  0  0
  5  6  2  0  0  0  0
  5 20  1  0  0  0  0
  6  7  1  0  0  0  0
  7  8  1  0  0  0  0
  8  9  2  0  0  0  0
  8 10  1  0  0  0  0
 10 11  1  0  0  0  0
 11 12  1  0  0  0  0
 12 13  2  0  0  0  0
 12 14  1  0  0  0  0
 14 15  1  0  0  0  0
 15 16  1  0  0  0  0
 16 17  1  0  0  0  0
 17 18  1  0  0  0  0
 18 19  1  0  0  0  0
 20 21  2  0  0  0  0
 20 22  2  0  0  0  0
 20 23  1  0  0  0  0
 23 28  1  0  0  0  0
 23 24  1  0  0  0  0
 24 25  1  0  0  0  0
 25 26  1  0  0  0  0
 26 27  1  0  0  0  0
 27 28  1  0  0  0  0
  1 29  1  0  0  0  0
  1 30  1  0  0  0  0
  1 31  1  0  0  0  0
  3 32  1  0  0  0  0
  4 33  1  0  0  0  0
  6 34  1  0  0  0  0
 10 35  1  0  0  0  0
 11 36  1  0  0  0  0
 14 37  1  0  0  0  0
 15 38  1  0  0  0  0
 15 39  1  0  0  0  0
 16 40  1  0  0  0  0
 16 41  1  0  0  0  0
 17 42  1  0  0  0  0
 17 43  1  0  0  0  0
 19 44  1  0  0  0  0
 19 45  1  0  0  0  0
 19 46  1  0  0  0  0
 24 47  1  0  0  0  0
 24 48  1  0  0  0  0
 25 49  1  0  0  0  0
 25 50  1  0  0  0  0
 27 51  1  0  0  0  0
 27 52  1  0  0  0  0
 28 53  1  0  0  0  0
 28 54  1  0  0  0  0
M  END
> <Name>
ZINC15910386

> <reference>
BDB4946

> <quality>
0.736

> <status>
decoy

$$$$
ZINC29471577
  SciTegic06141217593D

 44 44  0  0  1  0            999 V2000
    3.7190    1.4277   -3.2928 C   0  0  0  0  0  0  0  0  0  0  0  0
    3.5763   -0.0363   -2.8718 C   0  0  0  0  0  0  0  0  0  0  0  0
    2.1383   -0.4990   -3.1149 C   0  0  1  0  0  0  0  0  0  0  0  0
    2.0257   -1.9945   -2.8120 C   0  0  0  0  0  0  0  0  0  0  0  0
    1.2308    0.2463   -2.2391 N   0  3  0  0  0  0  0  0  0  0  0  0
    0.2127    0.8845   -2.7463 C   0  0  0  0  0  0  0  0  0  0  0  0
    0.0543    0.9528   -4.1111 N   0  0  0  0  0  0  0  0  0  0  0  0
   -0.9598    1.6592   -1.6835 S   0  0  0  0  0  0  0  0  0  0  0  0
   -0.2472    1.2428   -0.0727 C   0  0  0  0  0  0  0  0  0  0  0  0
   -1.1081    1.8192    1.0217 C   0  0  0  0  0  0  0  0  0  0  0  0
   -2.1053    2.4495    0.7403 O   0  0  0  0  0  0  0  0  0  0  0  0
   -0.7699    1.6342    2.3132 N   0  0  0  0  0  0  0  0  0  0  0  0
    0.4347    0.8728    2.6531 C   0  0  0  0  0  0  0  0  0  0  0  0
   -1.6068    2.1946    3.3770 C   0  0  1  0  0  0  0  0  0  0  0  0
   -2.1307    1.0626    4.2763 C   0  0  0  0  0  0  0  0  0  0  0  0
   -2.7394    1.6552    5.5700 C   0  0  0  0  0  0  0  0  0  0  0  0
   -1.7961    3.2200    5.7803 S   0  0  0  0  0  0  0  0  0  0  0  0
   -2.6941    4.3173    5.6869 O   0  0  0  0  0  0  0  0  0  0  0  0
   -0.9523    3.1018    6.9175 O   0  0  0  0  0  0  0  0  0  0  0  0
   -0.7620    3.1598    4.2567 C   0  0  0  0  0  0  0  0  0  0  0  0
    3.0299    2.0491   -2.7020 H   0  0  0  0  0  0  0  0  0  0  0  0
    3.4780    1.5282   -4.3613 H   0  0  0  0  0  0  0  0  0  0  0  0
    4.7527    1.7610   -3.1183 H   0  0  0  0  0  0  0  0  0  0  0  0
    3.8174   -0.1369   -1.8033 H   0  0  0  0  0  0  0  0  0  0  0  0
    4.2655   -0.6569   -3.4632 H   0  0  0  0  0  0  0  0  0  0  0  0
    1.8669   -0.3161   -4.1651 H   0  0  0  0  0  0  0  0  0  0  0  0
    2.2967   -2.1784   -1.7619 H   0  0  0  0  0  0  0  0  0  0  0  0
    2.7066   -2.5551   -3.4694 H   0  0  0  0  0  0  0  0  0  0  0  0
    0.9921   -2.3279   -2.9866 H   0  0  0  0  0  0  0  0  0  0  0  0
    1.3968    0.2663   -1.2228 H   0  0  0  0  0  0  0  0  0  0  0  0
    0.7397    0.4999   -4.7324 H   0  0  0  0  0  0  0  0  0  0  0  0
   -0.7497    1.4568   -4.5117 H   0  0  0  0  0  0  0  0  0  0  0  0
    0.7670    1.6624    0.0003 H   0  0  0  0  0  0  0  0  0  0  0  0
   -0.2003    0.1492    0.0360 H   0  0  0  0  0  0  0  0  0  0  0  0
    1.2555    1.3871    2.1317 H   0  0  0  0  0  0  0  0  0  0  0  0
    0.3021   -0.1053    2.1676 H   0  0  0  0  0  0  0  0  0  0  0  0
    0.6151    0.7835    3.7345 H   0  0  0  0  0  0  0  0  0  0  0  0
   -2.4467    2.7353    2.9165 H   0  0  0  0  0  0  0  0  0  0  0  0
   -2.9027    0.4945    3.7367 H   0  0  0  0  0  0  0  0  0  0  0  0
   -1.3014    0.3892    4.5386 H   0  0  0  0  0  0  0  0  0  0  0  0
   -2.5535    0.9893    6.4256 H   0  0  0  0  0  0  0  0  0  0  0  0
   -3.8069    1.8788    5.4273 H   0  0  0  0  0  0  0  0  0  0  0  0
   -0.7074    4.1594    3.8008 H   0  0  0  0  0  0  0  0  0  0  0  0
    0.2200    2.7208    4.4868 H   0  0  0  0  0  0  0  0  0  0  0  0
  1  2  1  0  0  0  0
  2  3  1  0  0  0  0
  3  4  1  0  0  0  0
  3  5  1  0  0  0  0
  5  6  2  0  0  0  0
  6  7  1  0  0  0  0
  6  8  1  0  0  0  0
  8  9  1  0  0  0  0
  9 10  1  0  0  0  0
 10 11  2  0  0  0  0
 10 12  1  0  0  0  0
 12 13  1  0  0  0  0
 12 14  1  0  0  0  0
 14 20  1  0  0  0  0
 14 15  1  0  0  0  0
 15 16  1  0  0  0  0
 16 17  1  0  0  0  0
 17 18  2  0  0  0  0
 17 19  2  0  0  0  0
 17 20  1  0  0  0  0
  1 21  1  0  0  0  0
  1 22  1  0  0  0  0
  1 23  1  0  0  0  0
  2 24  1  0  0  0  0
  2 25  1  0  0  0  0
  3 26  1  0  0  0  0
  4 27  1  0  0  0  0
  4 28  1  0  0  0  0
  4 29  1  0  0  0  0
  5 30  1  0  0  0  0
  7 31  1  0  0  0  0
  7 32  1  0  0  0  0
  9 33  1  0  0  0  0
  9 34  1  0  0  0  0
 13 35  1  0  0  0  0
 13 36  1  0  0  0  0
 13 37  1  0  0  0  0
 14 38  1  0  0  0  0
 15 39  1  0  0  0  0
 15 40  1  0  0  0  0
 16 41  1  0  0  0  0
 16 42  1  0  0  0  0
 20 43  1  0  0  0  0
 20 44  1  0  0  0  0
M  CHG  1   5   1
M  END
> <Name>
ZINC29471577

> <reference>
BDB5198

> <quality>
0.748

> <status>
decoy

$$$$
ZINC12483756
  SciTegic06141217593D

 48 50  0  0  1  0            999 V2000
    0.6043    5.4059    1.3487 C   0  0  0  0  0  0  0  0  0  0  0  0
    0.7083    3.9850    1.2378 O   0  0  0  0  0  0  0  0  0  0  0  0
    1.2847    3.5386    0.0088 C   0  0  0  0  0  0  0  0  0  0  0  0
    1.3463    2.0098    0.0000 C   0  0  0  0  0  0  0  0  0  0  0  0
    0.0021   -0.0041    0.0020 C   0  0  2  0  0  0  0  0  0  0  0  0
   -1.3120   -0.5323   -0.5834 C   0  0  2  0  0  0  0  0  0  0  0  0
   -2.4595   -0.2177    0.3831 C   0  0  1  0  0  0  0  0  0  0  0  0
   -2.0761   -0.7314    1.7807 C   0  0  1  0  0  0  0  0  0  0  0  0
   -1.4863   -2.1514    1.6148 C   0  0  0  0  0  0  0  0  0  0  0  0
   -0.0741   -1.9470    1.4287 O   0  0  0  0  0  0  0  0  0  0  0  0
    0.1490   -0.5249    1.4401 C   0  0  2  0  0  0  0  0  0  0  0  0
   -0.9292    0.0384    2.2194 O   0  0  0  0  0  0  0  0  0  0  0  0
   -4.0507    1.5455    0.8541 C   0  0  0  0  0  0  0  0  0  0  0  0
   -4.2368    3.0404    0.8943 C   0  0  0  0  0  0  0  0  0  0  0  0
   -4.6508    3.8093   -0.1288 C   0  0  0  0  0  0  0  0  0  0  0  0
   -4.6851    5.1403    0.3469 C   0  0  0  0  0  0  0  0  0  0  0  0
   -4.2822    5.1061    1.6298 C   0  0  0  0  0  0  0  0  0  0  0  0
   -4.0120    3.8316    1.9560 O   0  0  0  0  0  0  0  0  0  0  0  0
   -4.1550    6.2961    2.5456 C   0  0  0  0  0  0  0  0  0  0  0  0
   -5.3913    6.5036    3.2316 O   0  0  0  0  0  0  0  0  0  0  0  0
   -1.2178   -1.9461   -0.7681 O   0  0  0  0  0  0  0  0  0  0  0  0
   -0.0267    1.4707    0.0102 N   0  3  0  0  0  0  0  0  0  0  0  0
   -2.6706    1.2414    0.4314 N   0  0  0  0  0  0  0  0  0  0  0  0
   -0.0060    5.7605    0.5051 H   0  0  0  0  0  0  0  0  0  0  0  0
    1.6173    5.8217    1.2442 H   0  0  0  0  0  0  0  0  0  0  0  0
    0.1563    5.7047    2.3079 H   0  0  0  0  0  0  0  0  0  0  0  0
    2.3015    3.9463   -0.0901 H   0  0  0  0  0  0  0  0  0  0  0  0
    0.6673    3.8850   -0.8331 H   0  0  0  0  0  0  0  0  0  0  0  0
    1.8681    1.6681   -0.9061 H   0  0  0  0  0  0  0  0  0  0  0  0
    1.8854    1.6575    0.8918 H   0  0  0  0  0  0  0  0  0  0  0  0
    0.8517   -0.3479   -0.6063 H   0  0  0  0  0  0  0  0  0  0  0  0
   -1.5040   -0.0498   -1.5531 H   0  0  0  0  0  0  0  0  0  0  0  0
   -3.3860   -0.7053    0.0458 H   0  0  0  0  0  0  0  0  0  0  0  0
   -2.9456   -0.6816    2.4526 H   0  0  0  0  0  0  0  0  0  0  0  0
   -1.6664   -2.7419    2.5252 H   0  0  0  0  0  0  0  0  0  0  0  0
   -1.9182   -2.6375    0.7276 H   0  0  0  0  0  0  0  0  0  0  0  0
    1.1400   -0.2674    1.8421 H   0  0  0  0  0  0  0  0  0  0  0  0
   -4.2289    1.1258    1.8552 H   0  0  0  0  0  0  0  0  0  0  0  0
   -4.7594    1.1050    0.1373 H   0  0  0  0  0  0  0  0  0  0  0  0
   -4.9125    3.4680   -1.1413 H   0  0  0  0  0  0  0  0  0  0  0  0
   -4.9839    6.0326   -0.2228 H   0  0  0  0  0  0  0  0  0  0  0  0
   -3.9100    7.1907    1.9543 H   0  0  0  0  0  0  0  0  0  0  0  0
   -3.3561    6.1110    3.2787 H   0  0  0  0  0  0  0  0  0  0  0  0
   -5.6127    5.6996    3.7652 H   0  0  0  0  0  0  0  0  0  0  0  0
   -1.0465   -2.3828    0.1037 H   0  0  0  0  0  0  0  0  0  0  0  0
   -0.5324    1.8061   -0.8221 H   0  0  0  0  0  0  0  0  0  0  0  0
   -0.5155    1.7973    0.8560 H   0  0  0  0  0  0  0  0  0  0  0  0
   -2.0091    1.6601    1.1007 H   0  0  0  0  0  0  0  0  0  0  0  0
  1  2  1  0  0  0  0
  2  3  1  0  0  0  0
  3  4  1  0  0  0  0
  4 22  1  0  0  0  0
  5 11  1  0  0  0  0
  5  6  1  0  0  0  0
  5 22  1  0  0  0  0
  6  7  1  0  0  0  0
  6 21  1  0  0  0  0
  7  8  1  0  0  0  0
  7 23  1  0  0  0  0
  8 12  1  0  0  0  0
  8  9  1  0  0  0  0
  9 10  1  0  0  0  0
 10 11  1  0  0  0  0
 11 12  1  0  0  0  0
 13 14  1  0  0  0  0
 13 23  1  0  0  0  0
 14 18  1  0  0  0  0
 14 15  2  0  0  0  0
 15 16  1  0  0  0  0
 16 17  2  0  0  0  0
 17 18  1  0  0  0  0
 17 19  1  0  0  0  0
 19 20  1  0  0  0  0
  1 24  1  0  0  0  0
  1 25  1  0  0  0  0
  1 26  1  0  0  0  0
  3 27  1  0  0  0  0
  3 28  1  0  0  0  0
  4 29  1  0  0  0  0
  4 30  1  0  0  0  0
  5 31  1  0  0  0  0
  6 32  1  0  0  0  0
  7 33  1  0  0  0  0
  8 34  1  0  0  0  0
  9 35  1  0  0  0  0
  9 36  1  0  0  0  0
 11 37  1  0  0  0  0
 13 38  1  0  0  0  0
 13 39  1  0  0  0  0
 15 40  1  0  0  0  0
 16 41  1  0  0  0  0
 19 42  1  0  0  0  0
 19 43  1  0  0  0  0
 20 44  1  0  0  0  0
 21 45  1  0  0  0  0
 22 46  1  0  0  0  0
 22 47  1  0  0  0  0
 23 48  1  0  0  0  0
M  CHG  1  22   1
M  END
> <Name>
ZINC12483756

> <reference>
BDB5023

> <quality>
0.670

> <status>
decoy

$$$$
ZINC06382444
  SciTegic06141217593D

 40 41  0  0  1  0            999 V2000
    0.7427   -0.8101    1.2565 C   0  0  0  0  0  0  0  0  0  0  0  0
    0.0574   -0.0863    0.0957 C   0  0  0  0  0  0  0  0  0  0  0  0
   -1.3227   -2.0350   -0.3049 C   0  0  0  0  0  0  0  0  0  0  0  0
   -0.6831   -2.3183   -1.6656 C   0  0  0  0  0  0  0  0  0  0  0  0
   -2.1272   -0.2551    1.1260 C   0  0  0  0  0  0  0  0  0  0  0  0
   -2.4965    1.2292    1.0882 C   0  0  2  0  0  0  0  0  0  0  0  0
   -3.3119    1.5837    2.3333 C   0  0  0  0  0  0  0  0  0  0  0  0
   -3.6655    3.0050    2.2970 N   0  0  0  0  0  0  0  0  0  0  0  0
   -4.3888    3.5455    3.2985 C   0  0  0  0  0  0  0  0  0  0  0  0
   -4.7965    2.8163    4.3217 N   0  0  0  0  0  0  0  0  0  0  0  0
   -5.4511    3.3070    5.3688 C   0  0  0  0  0  0  0  0  0  0  0  0
   -5.4967    4.6065    5.6390 N   0  0  0  0  0  0  0  0  0  0  0  0
   -4.8958    5.4026    4.7555 C   0  0  0  0  0  0  0  0  0  0  0  0
   -4.1811    6.4818    4.8808 N   0  0  0  0  0  0  0  0  0  0  0  0
   -3.4732    6.7310    3.7715 C   0  0  0  0  0  0  0  0  0  0  0  0
   -3.7207    5.8946    2.8031 N   0  0  0  0  0  0  0  0  0  0  0  0
   -4.7684    5.0023    3.2911 C   0  0  1  0  0  0  0  0  0  0  0  0
   -3.2722    1.4973   -0.0816 O   0  0  0  0  0  0  0  0  0  0  0  0
   -1.3271   -0.5749   -0.0749 N   0  3  0  0  0  0  0  0  0  0  0  0
    0.7580   -1.8900    1.0477 H   0  0  0  0  0  0  0  0  0  0  0  0
    0.1731   -0.6281    2.1798 H   0  0  0  0  0  0  0  0  0  0  0  0
    1.7716   -0.4396    1.3751 H   0  0  0  0  0  0  0  0  0  0  0  0
    0.0386    0.9943    0.3005 H   0  0  0  0  0  0  0  0  0  0  0  0
    0.6224   -0.2654   -0.8310 H   0  0  0  0  0  0  0  0  0  0  0  0
   -2.3562   -2.4116   -0.2982 H   0  0  0  0  0  0  0  0  0  0  0  0
   -0.7412   -2.5301    0.4867 H   0  0  0  0  0  0  0  0  0  0  0  0
    0.3510   -1.9435   -1.6768 H   0  0  0  0  0  0  0  0  0  0  0  0
   -1.2625   -1.8250   -2.4599 H   0  0  0  0  0  0  0  0  0  0  0  0
   -0.6763   -3.4037   -1.8438 H   0  0  0  0  0  0  0  0  0  0  0  0
   -3.0434   -0.8639    1.1306 H   0  0  0  0  0  0  0  0  0  0  0  0
   -1.5355   -0.4648    2.0293 H   0  0  0  0  0  0  0  0  0  0  0  0
   -1.5787    1.8351    1.0663 H   0  0  0  0  0  0  0  0  0  0  0  0
   -4.2301    0.9784    2.3550 H   0  0  0  0  0  0  0  0  0  0  0  0
   -2.7155    1.3779    3.2344 H   0  0  0  0  0  0  0  0  0  0  0  0
   -3.3616    3.5913    1.5066 H   0  0  0  0  0  0  0  0  0  0  0  0
   -5.9759    2.6094    6.0381 H   0  0  0  0  0  0  0  0  0  0  0  0
   -2.7544    7.5593    3.6862 H   0  0  0  0  0  0  0  0  0  0  0  0
   -5.6607    5.0968    2.6547 H   0  0  0  0  0  0  0  0  0  0  0  0
   -4.0987    0.9527   -0.0627 H   0  0  0  0  0  0  0  0  0  0  0  0
   -1.7482   -0.1089   -0.8913 H   0  0  0  0  0  0  0  0  0  0  0  0
  1  2  1  0  0  0  0
  2 19  1  0  0  0  0
  3  4  1  0  0  0  0
  3 19  1  0  0  0  0
  5  6  1  0  0  0  0
  5 19  1  0  0  0  0
  6  7  1  0  0  0  0
  6 18  1  0  0  0  0
  7  8  1  0  0  0  0
  8  9  1  0  0  0  0
  9 17  1  0  0  0  0
  9 10  2  0  0  0  0
 10 11  1  0  0  0  0
 11 12  2  0  0  0  0
 12 13  1  0  0  0  0
 13 17  1  0  0  0  0
 13 14  2  0  0  0  0
 14 15  1  0  0  0  0
 15 16  2  0  0  0  0
 16 17  1  0  0  0  0
  1 20  1  0  0  0  0
  1 21  1  0  0  0  0
  1 22  1  0  0  0  0
  2 23  1  0  0  0  0
  2 24  1  0  0  0  0
  3 25  1  0  0  0  0
  3 26  1  0  0  0  0
  4 27  1  0  0  0  0
  4 28  1  0  0  0  0
  4 29  1  0  0  0  0
  5 30  1  0  0  0  0
  5 31  1  0  0  0  0
  6 32  1  0  0  0  0
  7 33  1  0  0  0  0
  7 34  1  0  0  0  0
  8 35  1  0  0  0  0
 11 36  1  0  0  0  0
 15 37  1  0  0  0  0
 17 38  1  0  0  0  0
 18 39  1  0  0  0  0
 19 40  1  0  0  0  0
M  CHG  1  19   1
M  END
> <Name>
ZINC06382444

> <reference>
BDB5009

> <quality>
0.769

> <status>
decoy

$$$$
ZINC04748240
  SciTegic06141217593D

 32 31  0  0  0  0            999 V2000
    3.0343    3.7572    0.4231 C   0  0  0  0  0  0  0  0  0  0  0  0
    1.6509    3.3408    0.2771 O   0  0  0  0  0  0  0  0  0  0  0  0
    1.4090    2.0205    0.2743 C   0  0  0  0  0  0  0  0  0  0  0  0
    2.3228    1.2386    0.3900 O   0  0  0  0  0  0  0  0  0  0  0  0
   -0.0025    1.5135    0.1268 C   0  0  0  0  0  0  0  0  0  0  0  0
   -0.0004   -0.0163    0.1550 C   0  0  0  0  0  0  0  0  0  0  0  0
   -1.4119   -0.5233    0.0075 C   0  0  0  0  0  0  0  0  0  0  0  0
   -2.3800    0.3051   -0.1151 N   0  0  0  0  0  0  0  0  0  0  0  0
   -3.6776   -0.1647   -0.3569 N   0  0  0  0  0  0  0  0  0  0  0  0
   -4.6784    0.7082   -0.5868 C   0  0  0  0  0  0  0  0  0  0  0  0
   -5.8045    0.3005   -0.7967 O   0  0  0  0  0  0  0  0  0  0  0  0
   -4.4310    2.0331   -0.5839 N   0  0  0  0  0  0  0  0  0  0  0  0
   -1.6835   -2.0056    0.0044 C   0  0  0  0  0  0  0  0  0  0  0  0
   -2.0646   -2.4494    1.3932 C   0  0  0  0  0  0  0  0  0  0  0  0
   -2.0230   -1.6646    2.3110 O   0  0  0  0  0  0  0  0  0  0  0  0
   -2.4503   -3.7166    1.6107 O   0  0  0  0  0  0  0  0  0  0  0  0
   -2.8029   -4.0736    2.9733 C   0  0  0  0  0  0  0  0  0  0  0  0
    3.5887    3.2858   -0.4018 H   0  0  0  0  0  0  0  0  0  0  0  0
    3.3924    3.3180    1.3659 H   0  0  0  0  0  0  0  0  0  0  0  0
    3.1503    4.8510    0.4160 H   0  0  0  0  0  0  0  0  0  0  0  0
   -0.6175    1.8941    0.9556 H   0  0  0  0  0  0  0  0  0  0  0  0
   -0.4202    1.8613   -0.8296 H   0  0  0  0  0  0  0  0  0  0  0  0
    0.4160   -0.3660    1.1112 H   0  0  0  0  0  0  0  0  0  0  0  0
    0.6141   -0.3976   -0.6739 H   0  0  0  0  0  0  0  0  0  0  0  0
   -3.8667   -1.1772   -0.3590 H   0  0  0  0  0  0  0  0  0  0  0  0
   -3.4771    2.3785   -0.4060 H   0  0  0  0  0  0  0  0  0  0  0  0
   -5.1959    2.7002   -0.7596 H   0  0  0  0  0  0  0  0  0  0  0  0
   -2.5080   -2.2260   -0.6896 H   0  0  0  0  0  0  0  0  0  0  0  0
   -0.7799   -2.5444   -0.3169 H   0  0  0  0  0  0  0  0  0  0  0  0
   -3.6097   -3.3892    3.2742 H   0  0  0  0  0  0  0  0  0  0  0  0
   -1.9208   -3.8489    3.5908 H   0  0  0  0  0  0  0  0  0  0  0  0
   -3.1075   -5.1261    3.0700 H   0  0  0  0  0  0  0  0  0  0  0  0
  1  2  1  0  0  0  0
  2  3  1  0  0  0  0
  3  4  2  0  0  0  0
  3  5  1  0  0  0  0
  5  6  1  0  0  0  0
  6  7  1  0  0  0  0
  7  8  2  0  0  0  0
  7 13  1  0  0  0  0
  8  9  1  0  0  0  0
  9 10  1  0  0  0  0
 10 11  2  0  0  0  0
 10 12  1  0  0  0  0
 13 14  1  0  0  0  0
 14 15  2  0  0  0  0
 14 16  1  0  0  0  0
 16 17  1  0  0  0  0
  1 18  1  0  0  0  0
  1 19  1  0  0  0  0
  1 20  1  0  0  0  0
  5 21  1  0  0  0  0
  5 22  1  0  0  0  0
  6 23  1  0  0  0  0
  6 24  1  0  0  0  0
  9 25  1  0  0  0  0
 12 26  1  0  0  0  0
 12 27  1  0  0  0  0
 13 28  1  0  0  0  0
 13 29  1  0  0  0  0
 17 30  1  0  0  0  0
 17 31  1  0  0  0  0
 17 32  1  0  0  0  0
M  END
> <Name>
ZINC04748240

> <reference>
BDB4986

> <quality>
0.721

> <status>
decoy

$$$$
ZINC19844140
  SciTegic06141217593D

 46 47  0  0  0  0            999 V2000
    2.3335   -4.2063    8.9693 C   0  0  0  0  0  0  0  0  0  0  0  0
    1.6232   -3.8084    7.7949 O   0  0  0  0  0  0  0  0  0  0  0  0
    1.5844   -2.4784    7.5183 C   0  0  0  0  0  0  0  0  0  0  0  0
    2.2180   -1.5751    8.3607 C   0  0  0  0  0  0  0  0  0  0  0  0
    2.1803   -0.2226    8.0804 C   0  0  0  0  0  0  0  0  0  0  0  0
    1.5158    0.2349    6.9588 C   0  0  0  0  0  0  0  0  0  0  0  0
    0.8754   -0.6640    6.1150 C   0  0  0  0  0  0  0  0  0  0  0  0
    0.9128   -2.0233    6.3949 C   0  0  0  0  0  0  0  0  0  0  0  0
    0.1999   -0.2013    4.9835 N   0  0  0  0  0  0  0  0  0  0  0  0
    0.2864    1.2621    4.8801 C   0  0  0  0  0  0  0  0  0  0  0  0
   -0.5306    1.7349    3.6754 C   0  0  0  0  0  0  0  0  0  0  0  0
   -0.0184    1.0926    2.4569 N   0  3  0  0  0  0  0  0  0  0  0  0
   -0.1049   -0.3708    2.5603 C   0  0  0  0  0  0  0  0  0  0  0  0
    0.7121   -0.8436    3.7650 C   0  0  0  0  0  0  0  0  0  0  0  0
   -0.7288    1.5792    1.2668 C   0  0  0  0  0  0  0  0  0  0  0  0
   -0.0127    1.0858    0.0080 C   0  0  0  0  0  0  0  0  0  0  0  0
   -0.7527    1.5927   -1.2315 C   0  0  0  0  0  0  0  0  0  0  0  0
   -0.0473    1.1066   -2.4714 C   0  0  0  0  0  0  0  0  0  0  0  0
    1.0141    0.3777   -2.3669 N   0  0  0  0  0  0  0  0  0  0  0  0
    1.6769   -0.0790   -3.5319 O   0  0  0  0  0  0  0  0  0  0  0  0
   -0.5342    1.4396   -3.7159 N   0  0  0  0  0  0  0  0  0  0  0  0
    1.8671   -3.6706    9.8092 H   0  0  0  0  0  0  0  0  0  0  0  0
    3.3591   -3.8257    8.8543 H   0  0  0  0  0  0  0  0  0  0  0  0
    2.3206   -5.2950    9.1259 H   0  0  0  0  0  0  0  0  0  0  0  0
    2.7508   -1.9365    9.2526 H   0  0  0  0  0  0  0  0  0  0  0  0
    2.6803    0.4912    8.7515 H   0  0  0  0  0  0  0  0  0  0  0  0
    1.4938    1.3114    6.7338 H   0  0  0  0  0  0  0  0  0  0  0  0
    0.4103   -2.7377    5.7262 H   0  0  0  0  0  0  0  0  0  0  0  0
   -0.1145    1.7192    5.7968 H   0  0  0  0  0  0  0  0  0  0  0  0
    1.3371    1.5604    4.7498 H   0  0  0  0  0  0  0  0  0  0  0  0
   -0.4439    2.8271    3.5778 H   0  0  0  0  0  0  0  0  0  0  0  0
   -1.5865    1.4612    3.8178 H   0  0  0  0  0  0  0  0  0  0  0  0
    0.9749    1.3462    2.3573 H   0  0  0  0  0  0  0  0  0  0  0  0
    0.2955   -0.8289    1.6438 H   0  0  0  0  0  0  0  0  0  0  0  0
   -1.1559   -0.6681    2.6909 H   0  0  0  0  0  0  0  0  0  0  0  0
    0.6252   -1.9360    3.8604 H   0  0  0  0  0  0  0  0  0  0  0  0
    1.7679   -0.5700    3.6218 H   0  0  0  0  0  0  0  0  0  0  0  0
   -1.7606    1.1981    1.2742 H   0  0  0  0  0  0  0  0  0  0  0  0
   -0.7441    2.6791    1.2717 H   0  0  0  0  0  0  0  0  0  0  0  0
    1.0191    1.4669   -0.0002 H   0  0  0  0  0  0  0  0  0  0  0  0
    0.0025   -0.0141    0.0008 H   0  0  0  0  0  0  0  0  0  0  0  0
   -0.7679    2.6926   -1.2266 H   0  0  0  0  0  0  0  0  0  0  0  0
   -1.7846    1.2116   -1.2241 H   0  0  0  0  0  0  0  0  0  0  0  0
    1.8931    0.7395   -4.0451 H   0  0  0  0  0  0  0  0  0  0  0  0
   -1.3804    2.0209   -3.7993 H   0  0  0  0  0  0  0  0  0  0  0  0
   -0.0521    1.1074   -4.5633 H   0  0  0  0  0  0  0  0  0  0  0  0
  1  2  1  0  0  0  0
  2  3  1  0  0  0  0
  3  8  2  0  0  0  0
  3  4  1  0  0  0  0
  4  5  2  0  0  0  0
  5  6  1  0  0  0  0
  6  7  2  0  0  0  0
  7  8  1  0  0  0  0
  7  9  1  0  0  0  0
  9 14  1  0  0  0  0
  9 10  1  0  0  0  0
 10 11  1  0  0  0  0
 11 12  1  0  0  0  0
 12 13  1  0  0  0  0
 12 15  1  0  0  0  0
 13 14  1  0  0  0  0
 15 16  1  0  0  0  0
 16 17  1  0  0  0  0
 17 18  1  0  0  0  0
 18 19  2  0  0  0  0
 18 21  1  0  0  0  0
 19 20  1  0  0  0  0
  1 22  1  0  0  0  0
  1 23  1  0  0  0  0
  1 24  1  0  0  0  0
  4 25  1  0  0  0  0
  5 26  1  0  0  0  0
  6 27  1  0  0  0  0
  8 28  1  0  0  0  0
 10 29  1  0  0  0  0
 10 30  1  0  0  0  0
 11 31  1  0  0  0  0
 11 32  1  0  0  0  0
 12 33  1  0  0  0  0
 13 34  1  0  0  0  0
 13 35  1  0  0  0  0
 14 36  1  0  0  0  0
 14 37  1  0  0  0  0
 15 38  1  0  0  0  0
 15 39  1  0  0  0  0
 16 40  1  0  0  0  0
 16 41  1  0  0  0  0
 17 42  1  0  0  0  0
 17 43  1  0  0  0  0
 20 44  1  0  0  0  0
 21 45  1  0  0  0  0
 21 46  1  0  0  0  0
M  CHG  1  12   1
M  END
> <Name>
ZINC19844140

> <reference>
BDB5204

> <quality>
0.760

> <status>
decoy

$$$$
ZINC31392821
  SciTegic06141217593D

 50 52  0  0  1  0            999 V2000
   -4.0973    1.5665   -1.3956 C   0  0  0  0  0  0  0  0  0  0  0  0
   -5.1177    0.7095   -0.7772 N   0  3  0  0  0  0  0  0  0  0  0  0
   -6.3451    1.4680   -0.5010 C   0  0  0  0  0  0  0  0  0  0  0  0
   -6.9850    1.9011   -1.8215 C   0  0  0  0  0  0  0  0  0  0  0  0
   -8.2634    2.6910   -1.5338 C   0  0  0  0  0  0  0  0  0  0  0  0
   -8.8778    3.1068   -2.8017 N   0  0  0  0  0  0  0  0  0  0  0  0
  -10.0980    3.8618   -2.5665 N   0  0  0  0  0  0  0  0  0  0  0  0
   -4.6036    0.0768    0.4448 C   0  0  0  0  0  0  0  0  0  0  0  0
   -3.4816   -0.8978    0.0812 C   0  0  2  0  0  0  0  0  0  0  0  0
   -3.0205   -1.6589    1.3393 C   0  0  2  0  0  0  0  0  0  0  0  0
   -1.5131   -1.3250    1.4536 C   0  0  2  0  0  0  0  0  0  0  0  0
   -1.1670   -0.8869    0.0077 C   0  0  1  0  0  0  0  0  0  0  0  0
   -2.3464   -0.1715   -0.4189 O   0  0  0  0  0  0  0  0  0  0  0  0
    0.0021   -0.0041    0.0020 N   0  0  0  0  0  0  0  0  0  0  0  0
   -0.0164    1.3590    0.0095 C   0  0  0  0  0  0  0  0  0  0  0  0
    1.2005    1.8202    0.0004 N   0  0  0  0  0  0  0  0  0  0  0  0
    2.0748    0.7855   -0.0135 C   0  0  0  0  0  0  0  0  0  0  0  0
    1.3163   -0.3975   -0.0126 C   0  0  0  0  0  0  0  0  0  0  0  0
    1.9454   -1.5680   -0.0253 N   0  0  0  0  0  0  0  0  0  0  0  0
    3.2607   -1.6228   -0.0385 C   0  0  0  0  0  0  0  0  0  0  0  0
    4.0152   -0.5391   -0.0404 N   0  0  0  0  0  0  0  0  0  0  0  0
    3.4755    0.6754   -0.0284 C   0  0  0  0  0  0  0  0  0  0  0  0
    4.2745    1.8053   -0.0300 N   0  0  0  0  0  0  0  0  0  0  0  0
   -0.7619   -2.4808    1.8299 O   0  0  0  0  0  0  0  0  0  0  0  0
   -3.2098   -3.0652    1.1705 O   0  0  0  0  0  0  0  0  0  0  0  0
   -3.8694    2.3977   -0.7121 H   0  0  0  0  0  0  0  0  0  0  0  0
   -4.4971    1.9732   -2.3362 H   0  0  0  0  0  0  0  0  0  0  0  0
   -3.1849    0.9859   -1.5966 H   0  0  0  0  0  0  0  0  0  0  0  0
   -5.3513   -0.0379   -1.4463 H   0  0  0  0  0  0  0  0  0  0  0  0
   -7.0502    0.8343    0.0570 H   0  0  0  0  0  0  0  0  0  0  0  0
   -6.1005    2.3586    0.0965 H   0  0  0  0  0  0  0  0  0  0  0  0
   -6.2806    2.5352   -2.3798 H   0  0  0  0  0  0  0  0  0  0  0  0
   -7.2313    1.0116   -2.4200 H   0  0  0  0  0  0  0  0  0  0  0  0
   -8.9684    2.0573   -0.9758 H   0  0  0  0  0  0  0  0  0  0  0  0
   -8.0188    3.5816   -0.9363 H   0  0  0  0  0  0  0  0  0  0  0  0
   -9.0988    2.2720   -3.3631 H   0  0  0  0  0  0  0  0  0  0  0  0
   -9.8709    4.6948   -2.0049 H   0  0  0  0  0  0  0  0  0  0  0  0
  -10.7588    3.2713   -2.0415 H   0  0  0  0  0  0  0  0  0  0  0  0
   -5.4159   -0.4706    0.9452 H   0  0  0  0  0  0  0  0  0  0  0  0
   -4.2116    0.8504    1.1214 H   0  0  0  0  0  0  0  0  0  0  0  0
   -3.8642   -1.5953   -0.6785 H   0  0  0  0  0  0  0  0  0  0  0  0
   -3.5864   -1.3722    2.2380 H   0  0  0  0  0  0  0  0  0  0  0  0
   -1.2830   -0.5651    2.2150 H   0  0  0  0  0  0  0  0  0  0  0  0
   -0.9159   -1.7326   -0.6494 H   0  0  0  0  0  0  0  0  0  0  0  0
   -0.9258    1.9778    0.0215 H   0  0  0  0  0  0  0  0  0  0  0  0
    3.7495   -2.6082   -0.0483 H   0  0  0  0  0  0  0  0  0  0  0  0
    3.8344    2.7365   -0.0201 H   0  0  0  0  0  0  0  0  0  0  0  0
    5.3007    1.7178   -0.0410 H   0  0  0  0  0  0  0  0  0  0  0  0
   -0.8941   -3.1850    1.1467 H   0  0  0  0  0  0  0  0  0  0  0  0
   -2.6850   -3.3706    0.3886 H   0  0  0  0  0  0  0  0  0  0  0  0
  1  2  1  0  0  0  0
  2  3  1  0  0  0  0
  2  8  1  0  0  0  0
  3  4  1  0  0  0  0
  4  5  1  0  0  0  0
  5  6  1  0  0  0  0
  6  7  1  0  0  0  0
  8  9  1  0  0  0  0
  9 13  1  0  0  0  0
  9 10  1  0  0  0  0
 10 11  1  0  0  0  0
 10 25  1  0  0  0  0
 11 12  1  0  0  0  0
 11 24  1  0  0  0  0
 12 13  1  0  0  0  0
 12 14  1  0  0  0  0
 14 18  1  0  0  0  0
 14 15  1  0  0  0  0
 15 16  2  0  0  0  0
 16 17  1  0  0  0  0
 17 22  2  0  0  0  0
 17 18  1  0  0  0  0
 18 19  2  0  0  0  0
 19 20  1  0  0  0  0
 20 21  2  0  0  0  0
 21 22  1  0  0  0  0
 22 23  1  0  0  0  0
  1 26  1  0  0  0  0
  1 27  1  0  0  0  0
  1 28  1  0  0  0  0
  2 29  1  0  0  0  0
  3 30  1  0  0  0  0
  3 31  1  0  0  0  0
  4 32  1  0  0  0  0
  4 33  1  0  0  0  0
  5 34  1  0  0  0  0
  5 35  1  0  0  0  0
  6 36  1  0  0  0  0
  7 37  1  0  0  0  0
  7 38  1  0  0  0  0
  8 39  1  0  0  0  0
  8 40  1  0  0  0  0
  9 41  1  0  0  0  0
 10 42  1  0  0  0  0
 11 43  1  0  0  0  0
 12 44  1  0  0  0  0
 15 45  1  0  0  0  0
 20 46  1  0  0  0  0
 23 47  1  0  0  0  0
 23 48  1  0  0  0  0
 24 49  1  0  0  0  0
 25 50  1  0  0  0  0
M  CHG  1   2   1
M  END
> <Name>
ZINC31392821

> <reference>
BDB4942

> <quality>
0.783

> <status>
decoy

$$$$
ZINC27249941
  SciTegic06141217593D

 59 61  0  0  0  0            999 V2000
   -1.0452   -0.6180    2.5425 C   0  0  0  0  0  0  0  0  0  0  0  0
   -1.7954    0.5195    3.2384 C   0  0  0  0  0  0  0  0  0  0  0  0
   -0.8755    1.6331    3.4834 N   0  0  0  0  0  0  0  0  0  0  0  0
   -0.0979    1.8197    4.6087 C   0  0  0  0  0  0  0  0  0  0  0  0
    0.0822    1.1097    5.7881 C   0  0  0  0  0  0  0  0  0  0  0  0
    0.9546    1.5840    6.7442 C   0  0  0  0  0  0  0  0  0  0  0  0
    1.6525    2.7652    6.5354 C   0  0  0  0  0  0  0  0  0  0  0  0
    1.4883    3.4768    5.3810 C   0  0  0  0  0  0  0  0  0  0  0  0
    0.6092    3.0153    4.3976 C   0  0  0  0  0  0  0  0  0  0  0  0
    0.2390    3.4836    3.1781 N   0  0  0  0  0  0  0  0  0  0  0  0
   -0.6266    2.6732    2.6426 C   0  0  0  0  0  0  0  0  0  0  0  0
   -1.2652    2.8624    1.2908 C   0  0  0  0  0  0  0  0  0  0  0  0
   -0.4073    2.1825    0.2218 C   0  0  0  0  0  0  0  0  0  0  0  0
   -1.0459    2.3718   -1.1300 C   0  0  0  0  0  0  0  0  0  0  0  0
   -2.0849    2.9896   -1.2288 O   0  0  0  0  0  0  0  0  0  0  0  0
   -0.4624    1.8544   -2.2293 N   0  0  0  0  0  0  0  0  0  0  0  0
   -1.1081    1.9358   -3.4683 C   0  0  0  0  0  0  0  0  0  0  0  0
   -2.4808    2.1465   -3.5240 C   0  0  0  0  0  0  0  0  0  0  0  0
   -3.1233    2.2277   -4.7451 C   0  0  0  0  0  0  0  0  0  0  0  0
   -2.4059    2.1004   -5.9173 C   0  0  0  0  0  0  0  0  0  0  0  0
   -1.0270    1.8890   -5.8721 C   0  0  0  0  0  0  0  0  0  0  0  0
   -0.3779    1.8119   -4.6398 C   0  0  0  0  0  0  0  0  0  0  0  0
    1.1114    1.5891   -4.5823 C   0  0  0  0  0  0  0  0  0  0  0  0
   -0.2559    1.7527   -7.1264 C   0  0  0  0  0  0  0  0  0  0  0  0
    0.9191    1.4440   -7.0870 O   0  0  0  0  0  0  0  0  0  0  0  0
   -0.8559    1.9709   -8.3134 N   0  0  0  0  0  0  0  0  0  0  0  0
    2.7620    3.3528    7.7717 S   0  0  0  0  0  0  0  0  0  0  0  0
    2.8814    4.7553    7.5768 O   0  0  0  0  0  0  0  0  0  0  0  0
    2.3333    2.7886    9.0034 O   0  0  0  0  0  0  0  0  0  0  0  0
    4.2489    2.7012    7.4447 N   0  0  0  0  0  0  0  0  0  0  0  0
    5.1858    3.4148    6.5734 C   0  0  0  0  0  0  0  0  0  0  0  0
    4.6274    1.4112    8.0268 C   0  0  0  0  0  0  0  0  0  0  0  0
   -0.2192   -0.9599    3.1834 H   0  0  0  0  0  0  0  0  0  0  0  0
   -0.6409   -0.2597    1.5843 H   0  0  0  0  0  0  0  0  0  0  0  0
   -1.7353   -1.4545    2.3582 H   0  0  0  0  0  0  0  0  0  0  0  0
   -2.1998    0.1613    4.1966 H   0  0  0  0  0  0  0  0  0  0  0  0
   -2.6210    0.8610    2.5967 H   0  0  0  0  0  0  0  0  0  0  0  0
   -0.4687    0.1730    5.9588 H   0  0  0  0  0  0  0  0  0  0  0  0
    1.0986    1.0224    7.6790 H   0  0  0  0  0  0  0  0  0  0  0  0
    2.0471    4.4115    5.2257 H   0  0  0  0  0  0  0  0  0  0  0  0
   -2.2697    2.4142    1.2937 H   0  0  0  0  0  0  0  0  0  0  0  0
   -1.3437    3.9368    1.0682 H   0  0  0  0  0  0  0  0  0  0  0  0
   -0.3287    1.1077    0.4421 H   0  0  0  0  0  0  0  0  0  0  0  0
    0.5973    2.6305    0.2181 H   0  0  0  0  0  0  0  0  0  0  0  0
    0.4587    1.3991   -2.1575 H   0  0  0  0  0  0  0  0  0  0  0  0
   -3.0578    2.2490   -2.5931 H   0  0  0  0  0  0  0  0  0  0  0  0
   -4.2100    2.3943   -4.7828 H   0  0  0  0  0  0  0  0  0  0  0  0
   -2.9209    2.1655   -6.8871 H   0  0  0  0  0  0  0  0  0  0  0  0
    1.2404    0.6821   -3.9735 H   0  0  0  0  0  0  0  0  0  0  0  0
    1.5031    2.4326   -3.9949 H   0  0  0  0  0  0  0  0  0  0  0  0
    1.5885    1.5054   -5.5699 H   0  0  0  0  0  0  0  0  0  0  0  0
   -1.8515    2.2326   -8.3468 H   0  0  0  0  0  0  0  0  0  0  0  0
   -0.3188    1.8760   -9.1871 H   0  0  0  0  0  0  0  0  0  0  0  0
    5.2984    4.4036    7.0419 H   0  0  0  0  0  0  0  0  0  0  0  0
    4.6264    3.5738    5.6397 H   0  0  0  0  0  0  0  0  0  0  0  0
    6.1486    2.9078    6.4120 H   0  0  0  0  0  0  0  0  0  0  0  0
    3.8315    0.7218    7.7086 H   0  0  0  0  0  0  0  0  0  0  0  0
    4.5036    1.5516    9.1107 H   0  0  0  0  0  0  0  0  0  0  0  0
    5.6324    1.0558    7.7554 H   0  0  0  0  0  0  0  0  0  0  0  0
  1  2  1  0  0  0  0
  2  3  1  0  0  0  0
  3 11  1  0  0  0  0
  3  4  1  0  0  0  0
  4  9  1  0  0  0  0
  4  5  2  0  0  0  0
  5  6  1  0  0  0  0
  6  7  2  0  0  0  0
  7  8  1  0  0  0  0
  7 27  1  0  0  0  0
  8  9  2  0  0  0  0
  9 10  1  0  0  0  0
 10 11  2  0  0  0  0
 11 12  1  0  0  0  0
 12 13  1  0  0  0  0
 13 14  1  0  0  0  0
 14 15  2  0  0  0  0
 14 16  1  0  0  0  0
 16 17  1  0  0  0  0
 17 22  2  0  0  0  0
 17 18  1  0  0  0  0
 18 19  2  0  0  0  0
 19 20  1  0  0  0  0
 20 21  2  0  0  0  0
 21 22  1  0  0  0  0
 21 24  1  0  0  0  0
 22 23  1  0  0  0  0
 24 25  2  0  0  0  0
 24 26  1  0  0  0  0
 27 28  2  0  0  0  0
 27 29  2  0  0  0  0
 27 30  1  0  0  0  0
 30 31  1  0  0  0  0
 30 32  1  0  0  0  0
  1 33  1  0  0  0  0
  1 34  1  0  0  0  0
  1 35  1  0  0  0  0
  2 36  1  0  0  0  0
  2 37  1  0  0  0  0
  5 38  1  0  0  0  0
  6 39  1  0  0  0  0
  8 40  1  0  0  0  0
 12 41  1  0  0  0  0
 12 42  1  0  0  0  0
 13 43  1  0  0  0  0
 13 44  1  0  0  0  0
 16 45  1  0  0  0  0
 18 46  1  0  0  0  0
 19 47  1  0  0  0  0
 20 48  1  0  0  0  0
 23 49  1  0  0  0  0
 23 50  1  0  0  0  0
 23 51  1  0  0  0  0
 26 52  1  0  0  0  0
 26 53  1  0  0  0  0
 31 54  1  0  0  0  0
 31 55  1  0  0  0  0
 31 56  1  0  0  0  0
 32 57  1  0  0  0  0
 32 58  1  0  0  0  0
 32 59  1  0  0  0  0
M  END
> <Name>
ZINC27249941

> <reference>
BDB4968

> <quality>
0.739

> <status>
decoy

$$$$
ZINC17002242
  SciTegic06141217593D

 35 35  0  0  0  0            999 V2000
    2.8820   11.4423   -1.2192 C   0  0  0  0  0  0  0  0  0  0  0  0
    1.5001   12.7334    0.2928 C   0  0  0  0  0  0  0  0  0  0  0  0
    1.1278   10.3536    0.0458 C   0  0  0  0  0  0  0  0  0  0  0  0
    1.8368    8.9979    0.0317 C   0  0  0  0  0  0  0  0  0  0  0  0
    0.7949    7.8775    0.0361 C   0  0  0  0  0  0  0  0  0  0  0  0
    1.4737    6.5793    0.0226 N   0  0  0  0  0  0  0  0  0  0  0  0
    0.7232    5.3963    0.0238 N   0  0  0  0  0  0  0  0  0  0  0  0
    1.3209    4.2532    0.0119 N   0  0  0  0  0  0  0  0  0  0  0  0
    0.5885    3.0989    0.0131 C   0  0  0  0  0  0  0  0  0  0  0  0
    1.0922    1.8010    0.0013 C   0  0  0  0  0  0  0  0  0  0  0  0
   -0.0111    0.9658    0.0074 N   0  0  0  0  0  0  0  0  0  0  0  0
   -1.1056    1.7485    0.0161 C   0  0  0  0  0  0  0  0  0  0  0  0
   -0.7513    3.0051    0.0254 N   0  0  0  0  0  0  0  0  0  0  0  0
    2.4987    1.4021   -0.0147 C   0  0  0  0  0  0  0  0  0  0  0  0
    3.3721    2.2504   -0.0189 O   0  0  0  0  0  0  0  0  0  0  0  0
    2.8285    0.0953   -0.0248 N   0  0  0  0  0  0  0  0  0  0  0  0
    2.1467   11.4243    0.0629 N   0  3  0  0  0  0  0  0  0  0  0  0
    3.6496   12.2295   -1.1871 H   0  0  0  0  0  0  0  0  0  0  0  0
    2.1789   11.6526   -2.0386 H   0  0  0  0  0  0  0  0  0  0  0  0
    3.3615   10.4665   -1.3862 H   0  0  0  0  0  0  0  0  0  0  0  0
    0.7990   12.9419   -0.5288 H   0  0  0  0  0  0  0  0  0  0  0  0
    2.2697   13.5188    0.3228 H   0  0  0  0  0  0  0  0  0  0  0  0
    0.9542   12.7155    1.2476 H   0  0  0  0  0  0  0  0  0  0  0  0
    0.4976   10.4314    0.9440 H   0  0  0  0  0  0  0  0  0  0  0  0
    0.5049   10.4529   -0.8554 H   0  0  0  0  0  0  0  0  0  0  0  0
    2.4569    8.9177   -0.8733 H   0  0  0  0  0  0  0  0  0  0  0  0
    2.4752    8.9074    0.9229 H   0  0  0  0  0  0  0  0  0  0  0  0
    0.1747    7.9570    0.9411 H   0  0  0  0  0  0  0  0  0  0  0  0
    0.1562    7.9657   -0.8551 H   0  0  0  0  0  0  0  0  0  0  0  0
    2.5028    6.5363    0.0122 H   0  0  0  0  0  0  0  0  0  0  0  0
    0.0029   -0.0641    0.0056 H   0  0  0  0  0  0  0  0  0  0  0  0
   -2.1435    1.3842    0.0155 H   0  0  0  0  0  0  0  0  0  0  0  0
    2.0897   -0.6224   -0.0212 H   0  0  0  0  0  0  0  0  0  0  0  0
    3.8194   -0.1857   -0.0361 H   0  0  0  0  0  0  0  0  0  0  0  0
    2.8119   11.2409    0.8276 H   0  0  0  0  0  0  0  0  0  0  0  0
  1 17  1  0  0  0  0
  2 17  1  0  0  0  0
  3  4  1  0  0  0  0
  3 17  1  0  0  0  0
  4  5  1  0  0  0  0
  5  6  1  0  0  0  0
  6  7  1  0  0  0  0
  7  8  2  0  0  0  0
  8  9  1  0  0  0  0
  9 13  1  0  0  0  0
  9 10  2  0  0  0  0
 10 11  1  0  0  0  0
 10 14  1  0  0  0  0
 11 12  1  0  0  0  0
 12 13  2  0  0  0  0
 14 15  2  0  0  0  0
 14 16  1  0  0  0  0
  1 18  1  0  0  0  0
  1 19  1  0  0  0  0
  1 20  1  0  0  0  0
  2 21  1  0  0  0  0
  2 22  1  0  0  0  0
  2 23  1  0  0  0  0
  3 24  1  0  0  0  0
  3 25  1  0  0  0  0
  4 26  1  0  0  0  0
  4 27  1  0  0  0  0
  5 28  1  0  0  0  0
  5 29  1  0  0  0  0
  6 30  1  0  0  0  0
 11 31  1  0  0  0  0
 12 32  1  0  0  0  0
 16 33  1  0  0  0  0
 16 34  1  0  0  0  0
 17 35  1  0  0  0  0
M  CHG  1  17   1
M  END
> <Name>
ZINC17002242

> <reference>
BDB5021

> <quality>
0.654

> <status>
decoy

$$$$
ZINC31259784
  SciTegic06141217593D

 34 36  0  0  1  0            999 V2000
    1.7565    2.2148    1.4561 C   0  0  0  0  0  0  0  0  0  0  0  0
    0.6814    2.1961    2.1960 C   0  0  0  0  0  0  0  0  0  0  0  0
   -0.5532    1.9653    1.3559 C   0  0  2  0  0  0  0  0  0  0  0  0
   -0.0173    1.4248    0.0099 C   0  0  1  0  0  0  0  0  0  0  0  0
    1.4183    1.9995   -0.0007 C   0  0  2  0  0  0  0  0  0  0  0  0
    2.3498    1.0382   -0.6058 N   0  3  0  0  0  0  0  0  0  0  0  0
    3.5243    1.7225   -1.1628 C   0  0  0  0  0  0  0  0  0  0  0  0
    4.4550    0.7065   -1.7733 C   0  0  0  0  0  0  0  0  0  0  0  0
    4.5018    0.3279   -3.0751 C   0  0  0  0  0  0  0  0  0  0  0  0
    5.5782   -0.6884   -3.1745 C   0  0  0  0  0  0  0  0  0  0  0  0
    5.8202   -1.2098   -4.3493 N   0  0  0  0  0  0  0  0  0  0  0  0
    5.1207   -0.8389   -5.4477 C   0  0  0  0  0  0  0  0  0  0  0  0
    4.1590    0.0527   -5.4485 N   0  0  0  0  0  0  0  0  0  0  0  0
    3.7854    0.6864   -4.3125 C   0  0  0  0  0  0  0  0  0  0  0  0
    2.8926    1.5140   -4.3118 O   0  0  0  0  0  0  0  0  0  0  0  0
    5.4387   -1.4357   -6.6388 N   0  0  0  0  0  0  0  0  0  0  0  0
    6.0995   -0.8549   -1.9169 N   0  0  0  0  0  0  0  0  0  0  0  0
    5.4927   -0.0785   -1.0693 C   0  0  0  0  0  0  0  0  0  0  0  0
    0.0021   -0.0041    0.0020 O   0  0  0  0  0  0  0  0  0  0  0  0
   -1.2555    3.1935    1.1551 O   0  0  0  0  0  0  0  0  0  0  0  0
    2.7751    2.3673    1.8424 H   0  0  0  0  0  0  0  0  0  0  0  0
    0.6749    2.3307    3.2877 H   0  0  0  0  0  0  0  0  0  0  0  0
   -1.2588    1.2696    1.8336 H   0  0  0  0  0  0  0  0  0  0  0  0
   -0.6232    1.7084   -0.8633 H   0  0  0  0  0  0  0  0  0  0  0  0
    1.4922    2.9269   -0.5876 H   0  0  0  0  0  0  0  0  0  0  0  0
    2.6575    0.3658    0.1113 H   0  0  0  0  0  0  0  0  0  0  0  0
    1.8685    0.5247   -1.3578 H   0  0  0  0  0  0  0  0  0  0  0  0
    3.2013    2.4346   -1.9365 H   0  0  0  0  0  0  0  0  0  0  0  0
    4.0486    2.2642   -0.3618 H   0  0  0  0  0  0  0  0  0  0  0  0
    6.1836   -2.1439   -6.7059 H   0  0  0  0  0  0  0  0  0  0  0  0
    4.9175   -1.1665   -7.4854 H   0  0  0  0  0  0  0  0  0  0  0  0
    5.7163   -0.0149    0.0059 H   0  0  0  0  0  0  0  0  0  0  0  0
   -0.9186   -0.3367    0.1494 H   0  0  0  0  0  0  0  0  0  0  0  0
   -0.6591    3.8367    0.6960 H   0  0  0  0  0  0  0  0  0  0  0  0
  1  5  1  0  0  0  0
  1  2  2  0  0  0  0
  2  3  1  0  0  0  0
  3  4  1  0  0  0  0
  3 20  1  0  0  0  0
  4  5  1  0  0  0  0
  4 19  1  0  0  0  0
  5  6  1  0  0  0  0
  6  7  1  0  0  0  0
  7  8  1  0  0  0  0
  8 18  1  0  0  0  0
  8  9  2  0  0  0  0
  9 14  1  0  0  0  0
  9 10  1  0  0  0  0
 10 11  2  0  0  0  0
 10 17  1  0  0  0  0
 11 12  1  0  0  0  0
 12 13  2  0  0  0  0
 12 16  1  0  0  0  0
 13 14  1  0  0  0  0
 14 15  2  0  0  0  0
 17 18  2  0  0  0  0
  1 21  1  0  0  0  0
  2 22  1  0  0  0  0
  3 23  1  0  0  0  0
  4 24  1  0  0  0  0
  5 25  1  0  0  0  0
  6 26  1  0  0  0  0
  6 27  1  0  0  0  0
  7 28  1  0  0  0  0
  7 29  1  0  0  0  0
 16 30  1  0  0  0  0
 16 31  1  0  0  0  0
 18 32  1  0  0  0  0
 19 33  1  0  0  0  0
 20 34  1  0  0  0  0
M  CHG  1   6   1
M  END
> <Name>
ZINC31259784

> <reference>
BDB5008

> <quality>
0.737

> <status>
decoy

$$$$
ZINC04535649
  SciTegic06141217593D

 46 47  0  0  1  0            999 V2000
    3.5713    2.9962   -1.7841 C   0  0  0  0  0  0  0  0  0  0  0  0
    2.4607    3.9126   -2.2288 C   0  0  0  0  0  0  0  0  0  0  0  0
    2.5693    4.5409   -3.2616 O   0  0  0  0  0  0  0  0  0  0  0  0
    1.2913    4.0406   -1.4424 C   0  0  0  0  0  0  0  0  0  0  0  0
    0.2619    4.8969   -1.6568 C   0  0  0  0  0  0  0  0  0  0  0  0
   -0.7564    4.7040   -0.6009 C   0  0  0  0  0  0  0  0  0  0  0  0
   -1.7986    5.3224   -0.5160 O   0  0  0  0  0  0  0  0  0  0  0  0
   -0.3578    3.7420    0.2509 N   0  0  0  0  0  0  0  0  0  0  0  0
    0.9485    3.2496   -0.2016 C   0  0  1  0  0  0  0  0  0  0  0  0
    0.8630    1.7814   -0.5306 C   0  0  0  0  0  0  0  0  0  0  0  0
    1.8859    0.9294   -0.1610 C   0  0  0  0  0  0  0  0  0  0  0  0
    1.8079   -0.4176   -0.4621 C   0  0  0  0  0  0  0  0  0  0  0  0
    0.7062   -0.9158   -1.1332 C   0  0  0  0  0  0  0  0  0  0  0  0
   -0.3189   -0.0681   -1.5052 C   0  0  0  0  0  0  0  0  0  0  0  0
   -0.2428    1.2843   -1.2046 C   0  0  0  0  0  0  0  0  0  0  0  0
   -1.2498    2.1205   -1.5699 O   0  0  0  0  0  0  0  0  0  0  0  0
   -2.3572    1.5391   -2.2611 C   0  0  0  0  0  0  0  0  0  0  0  0
   -1.0979    3.2686    1.4232 C   0  0  0  0  0  0  0  0  0  0  0  0
   -0.6990    4.0964    2.6466 C   0  0  0  0  0  0  0  0  0  0  0  0
   -1.0829    4.3952    5.0185 C   0  0  0  0  0  0  0  0  0  0  0  0
   -1.8741    3.8729    6.2193 C   0  0  0  0  0  0  0  0  0  0  0  0
   -1.4765    2.5303    6.5042 O   0  0  0  0  0  0  0  0  0  0  0  0
    0.1797    5.7851   -2.6723 O   0  5  0  0  0  0  0  0  0  0  0  0
   -1.4482    3.6137    3.8220 N   0  3  0  0  0  0  0  0  0  0  0  0
    4.4677    3.6306   -1.7210 H   0  0  0  0  0  0  0  0  0  0  0  0
    3.7199    2.2906   -2.6148 H   0  0  0  0  0  0  0  0  0  0  0  0
    3.3564    2.4831   -0.8351 H   0  0  0  0  0  0  0  0  0  0  0  0
    1.7155    3.3723    0.5773 H   0  0  0  0  0  0  0  0  0  0  0  0
    2.7631    1.3232    0.3733 H   0  0  0  0  0  0  0  0  0  0  0  0
    2.6236   -1.0942   -0.1674 H   0  0  0  0  0  0  0  0  0  0  0  0
    0.6462   -1.9881   -1.3710 H   0  0  0  0  0  0  0  0  0  0  0  0
   -1.1949   -0.4648   -2.0393 H   0  0  0  0  0  0  0  0  0  0  0  0
   -2.7545    0.7526   -1.6026 H   0  0  0  0  0  0  0  0  0  0  0  0
   -1.9422    1.0522   -3.1559 H   0  0  0  0  0  0  0  0  0  0  0  0
   -3.1300    2.2768   -2.5229 H   0  0  0  0  0  0  0  0  0  0  0  0
   -2.1777    3.3773    1.2438 H   0  0  0  0  0  0  0  0  0  0  0  0
   -0.8611    2.2098    1.6048 H   0  0  0  0  0  0  0  0  0  0  0  0
    0.3802    3.9866    2.8288 H   0  0  0  0  0  0  0  0  0  0  0  0
   -0.9378    5.1554    2.4689 H   0  0  0  0  0  0  0  0  0  0  0  0
   -1.3243    5.4554    4.8522 H   0  0  0  0  0  0  0  0  0  0  0  0
   -0.0054    4.2876    5.2121 H   0  0  0  0  0  0  0  0  0  0  0  0
   -1.6736    4.5078    7.0949 H   0  0  0  0  0  0  0  0  0  0  0  0
   -2.9495    3.8950    5.9889 H   0  0  0  0  0  0  0  0  0  0  0  0
   -0.5090    2.5089    6.7128 H   0  0  0  0  0  0  0  0  0  0  0  0
   -2.4585    3.7112    3.6466 H   0  0  0  0  0  0  0  0  0  0  0  0
   -1.2285    2.6205    3.9838 H   0  0  0  0  0  0  0  0  0  0  0  0
  1  2  1  0  0  0  0
  2  3  2  0  0  0  0
  2  4  1  0  0  0  0
  4  9  1  0  0  0  0
  4  5  2  0  0  0  0
  5  6  1  0  0  0  0
  5 23  1  0  0  0  0
  6  7  2  0  0  0  0
  6  8  1  0  0  0  0
  8  9  1  0  0  0  0
  8 18  1  0  0  0  0
  9 10  1  0  0  0  0
 10 15  2  0  0  0  0
 10 11  1  0  0  0  0
 11 12  2  0  0  0  0
 12 13  1  0  0  0  0
 13 14  2  0  0  0  0
 14 15  1  0  0  0  0
 15 16  1  0  0  0  0
 16 17  1  0  0  0  0
 18 19  1  0  0  0  0
 19 24  1  0  0  0  0
 20 21  1  0  0  0  0
 20 24  1  0  0  0  0
 21 22  1  0  0  0  0
  1 25  1  0  0  0  0
  1 26  1  0  0  0  0
  1 27  1  0  0  0  0
  9 28  1  0  0  0  0
 11 29  1  0  0  0  0
 12 30  1  0  0  0  0
 13 31  1  0  0  0  0
 14 32  1  0  0  0  0
 17 33  1  0  0  0  0
 17 34  1  0  0  0  0
 17 35  1  0  0  0  0
 18 36  1  0  0  0  0
 18 37  1  0  0  0  0
 19 38  1  0  0  0  0
 19 39  1  0  0  0  0
 20 40  1  0  0  0  0
 20 41  1  0  0  0  0
 21 42  1  0  0  0  0
 21 43  1  0  0  0  0
 22 44  1  0  0  0  0
 24 45  1  0  0  0  0
 24 46  1  0  0  0  0
M  CHG  2  23  -1  24   1
M  END
> <Name>
ZINC04535649

> <reference>
BDB5013

> <quality>
0.764

> <status>
decoy

$$$$
ZINC01635054
  SciTegic06141217593D

 41 41  0  0  0  0            999 V2000
   -9.7065    7.4704    0.3686 C   0  0  0  0  0  0  0  0  0  0  0  0
   -8.4615    6.0451   -1.1418 C   0  0  0  0  0  0  0  0  0  0  0  0
   -7.3184    7.7743    0.1096 C   0  0  0  0  0  0  0  0  0  0  0  0
   -5.9832    7.0274    0.0933 C   0  0  0  0  0  0  0  0  0  0  0  0
   -4.8339    8.0374    0.0877 C   0  0  0  0  0  0  0  0  0  0  0  0
   -3.5554    7.3222    0.0721 N   0  0  0  0  0  0  0  0  0  0  0  0
   -2.3975    8.0119    0.0648 C   0  0  0  0  0  0  0  0  0  0  0  0
   -2.4140    9.2278    0.0710 O   0  0  0  0  0  0  0  0  0  0  0  0
   -1.2213    7.3540    0.0504 N   0  0  0  0  0  0  0  0  0  0  0  0
   -1.2023    5.9532    0.0432 N   0  0  0  0  0  0  0  0  0  0  0  0
   -0.0702    5.3199    0.0294 C   0  0  0  0  0  0  0  0  0  0  0  0
   -0.0502    3.8451    0.0218 C   0  0  0  0  0  0  0  0  0  0  0  0
   -1.2484    3.1269    0.0299 C   0  0  0  0  0  0  0  0  0  0  0  0
   -1.2222    1.7481    0.0173 C   0  0  0  0  0  0  0  0  0  0  0  0
   -0.0126    1.0758    0.0080 C   0  0  0  0  0  0  0  0  0  0  0  0
    1.1779    1.7805    0.0004 C   0  0  0  0  0  0  0  0  0  0  0  0
    1.1668    3.1600    0.0070 C   0  0  0  0  0  0  0  0  0  0  0  0
    2.4667    1.0526   -0.0153 N   0  0  0  0  0  0  0  0  0  0  0  0
    2.4782   -0.1653   -0.0216 O   0  0  0  0  0  0  0  0  0  0  0  0
    3.5157    1.6716   -0.0220 O   0  0  0  0  0  0  0  0  0  0  0  0
   -8.4171    6.7860    0.1364 N   0  3  0  0  0  0  0  0  0  0  0  0
  -10.5131    6.7234    0.4059 H   0  0  0  0  0  0  0  0  0  0  0  0
   -9.8988    8.1730   -0.4557 H   0  0  0  0  0  0  0  0  0  0  0  0
   -9.6690    8.0203    1.3205 H   0  0  0  0  0  0  0  0  0  0  0  0
   -8.6556    6.7497   -1.9639 H   0  0  0  0  0  0  0  0  0  0  0  0
   -9.2699    5.3001   -1.1024 H   0  0  0  0  0  0  0  0  0  0  0  0
   -7.5003    5.5375   -1.3105 H   0  0  0  0  0  0  0  0  0  0  0  0
   -7.4049    8.3958   -0.7938 H   0  0  0  0  0  0  0  0  0  0  0  0
   -7.3737    8.4103    1.0054 H   0  0  0  0  0  0  0  0  0  0  0  0
   -5.9076    6.3917    0.9878 H   0  0  0  0  0  0  0  0  0  0  0  0
   -5.9236    6.4002   -0.8084 H   0  0  0  0  0  0  0  0  0  0  0  0
   -4.9087    8.6732   -0.8068 H   0  0  0  0  0  0  0  0  0  0  0  0
   -4.8912    8.6648    0.9894 H   0  0  0  0  0  0  0  0  0  0  0  0
   -3.5414    6.2923    0.0667 H   0  0  0  0  0  0  0  0  0  0  0  0
   -0.3364    7.8811    0.0447 H   0  0  0  0  0  0  0  0  0  0  0  0
    0.8748    5.8828    0.0234 H   0  0  0  0  0  0  0  0  0  0  0  0
   -2.2105    3.6599    0.0463 H   0  0  0  0  0  0  0  0  0  0  0  0
   -2.1650    1.1814    0.0146 H   0  0  0  0  0  0  0  0  0  0  0  0
    0.0023   -0.0241    0.0066 H   0  0  0  0  0  0  0  0  0  0  0  0
    2.1141    3.7190    0.0006 H   0  0  0  0  0  0  0  0  0  0  0  0
   -8.2490    6.1196    0.9036 H   0  0  0  0  0  0  0  0  0  0  0  0
  1 21  1  0  0  0  0
  2 21  1  0  0  0  0
  3  4  1  0  0  0  0
  3 21  1  0  0  0  0
  4  5  1  0  0  0  0
  5  6  1  0  0  0  0
  6  7  1  0  0  0  0
  7  8  2  0  0  0  0
  7  9  1  0  0  0  0
  9 10  1  0  0  0  0
 10 11  2  0  0  0  0
 11 12  1  0  0  0  0
 12 17  2  0  0  0  0
 12 13  1  0  0  0  0
 13 14  2  0  0  0  0
 14 15  1  0  0  0  0
 15 16  2  0  0  0  0
 16 17  1  0  0  0  0
 16 18  1  0  0  0  0
 18 19  2  0  0  0  0
 18 20  2  0  0  0  0
  1 22  1  0  0  0  0
  1 23  1  0  0  0  0
  1 24  1  0  0  0  0
  2 25  1  0  0  0  0
  2 26  1  0  0  0  0
  2 27  1  0  0  0  0
  3 28  1  0  0  0  0
  3 29  1  0  0  0  0
  4 30  1  0  0  0  0
  4 31  1  0  0  0  0
  5 32  1  0  0  0  0
  5 33  1  0  0  0  0
  6 34  1  0  0  0  0
  9 35  1  0  0  0  0
 11 36  1  0  0  0  0
 13 37  1  0  0  0  0
 14 38  1  0  0  0  0
 15 39  1  0  0  0  0
 17 40  1  0  0  0  0
 21 41  1  0  0  0  0
M  CHG  1  21   1
M  END
> <Name>
ZINC01635054

> <reference>
BDB5222

> <quality>
0.757

> <status>
decoy

$$$$
ZINC02441083
  SciTegic06141217593D

 61 64  0  0  1  0            999 V2000
  -11.7540    0.2677    1.5568 C   0  0  0  0  0  0  0  0  0  0  0  0
  -11.2787    0.1305    0.1090 C   0  0  0  0  0  0  0  0  0  0  0  0
   -9.8344   -0.2993    0.0930 C   0  0  0  0  0  0  0  0  0  0  0  0
   -9.5147   -1.6444    0.0823 C   0  0  0  0  0  0  0  0  0  0  0  0
   -8.1915   -2.0410    0.0676 C   0  0  0  0  0  0  0  0  0  0  0  0
   -7.1831   -1.0883    0.0635 C   0  0  0  0  0  0  0  0  0  0  0  0
   -7.5064    0.2607    0.0800 C   0  0  0  0  0  0  0  0  0  0  0  0
   -8.8312    0.6522    0.0894 C   0  0  0  0  0  0  0  0  0  0  0  0
   -5.8806   -1.4759    0.0491 O   0  0  0  0  0  0  0  0  0  0  0  0
   -4.8956   -0.4406    0.0457 C   0  0  0  0  0  0  0  0  0  0  0  0
   -3.5201   -1.0559    0.0292 C   0  0  0  0  0  0  0  0  0  0  0  0
   -3.3845   -2.3688    0.0204 C   0  0  0  0  0  0  0  0  0  0  0  0
   -2.3948   -0.2414    0.0233 N   0  3  0  0  0  0  0  0  0  0  0  0
   -1.1160   -0.8134    0.0079 N   0  0  0  0  0  0  0  0  0  0  0  0
    0.0021   -0.0041    0.0020 C   0  0  0  0  0  0  0  0  0  0  0  0
   -0.0157    1.3056    0.0092 N   0  0  0  0  0  0  0  0  0  0  0  0
    1.2580    1.7734   -0.0004 C   0  0  0  0  0  0  0  0  0  0  0  0
    1.8373    3.0527    0.0010 C   0  0  0  0  0  0  0  0  0  0  0  0
    3.1628    3.1482   -0.0116 N   0  0  0  0  0  0  0  0  0  0  0  0
    3.9255    2.0702   -0.0250 C   0  0  0  0  0  0  0  0  0  0  0  0
    3.4262    0.8519   -0.0264 N   0  0  0  0  0  0  0  0  0  0  0  0
    2.1118    0.6587   -0.0146 C   0  0  0  0  0  0  0  0  0  0  0  0
    1.2953   -0.4489   -0.0127 N   0  0  0  0  0  0  0  0  0  0  0  0
    1.7312   -1.8475   -0.0248 C   0  0  2  0  0  0  0  0  0  0  0  0
    1.4184   -2.5048   -1.3932 C   0  0  2  0  0  0  0  0  0  0  0  0
    1.3331   -4.0050   -1.0204 C   0  0  2  0  0  0  0  0  0  0  0  0
    1.0624   -4.0023    0.4967 C   0  0  1  0  0  0  0  0  0  0  0  0
    0.9565   -2.6295    0.9095 O   0  0  0  0  0  0  0  0  0  0  0  0
   -0.2466   -4.7371    0.7929 C   0  0  0  0  0  0  0  0  0  0  0  0
   -0.4388   -4.8166    2.2066 O   0  0  0  0  0  0  0  0  0  0  0  0
    2.5675   -4.6653   -1.3070 O   0  0  0  0  0  0  0  0  0  0  0  0
    2.4759   -2.2703   -2.3252 O   0  0  0  0  0  0  0  0  0  0  0  0
    1.0450    4.1894    0.0151 N   0  0  0  0  0  0  0  0  0  0  0  0
  -11.1423    1.0210    2.0748 H   0  0  0  0  0  0  0  0  0  0  0  0
  -11.6546   -0.7003    2.0697 H   0  0  0  0  0  0  0  0  0  0  0  0
  -12.8082    0.5814    1.5692 H   0  0  0  0  0  0  0  0  0  0  0  0
  -11.8907   -0.6232   -0.4081 H   0  0  0  0  0  0  0  0  0  0  0  0
  -11.3781    1.0984   -0.4040 H   0  0  0  0  0  0  0  0  0  0  0  0
  -10.3147   -2.3994    0.0855 H   0  0  0  0  0  0  0  0  0  0  0  0
   -7.9377   -3.1113    0.0592 H   0  0  0  0  0  0  0  0  0  0  0  0
   -6.7086    1.0179    0.0856 H   0  0  0  0  0  0  0  0  0  0  0  0
   -9.0882    1.7218    0.0940 H   0  0  0  0  0  0  0  0  0  0  0  0
   -5.0090    0.1779    0.9483 H   0  0  0  0  0  0  0  0  0  0  0  0
   -5.0265    0.1873   -0.8479 H   0  0  0  0  0  0  0  0  0  0  0  0
   -4.2755   -3.0138    0.0251 H   0  0  0  0  0  0  0  0  0  0  0  0
   -2.3804   -2.8179    0.0084 H   0  0  0  0  0  0  0  0  0  0  0  0
   -2.4669    0.3859   -0.7904 H   0  0  0  0  0  0  0  0  0  0  0  0
   -2.4509    0.3772    0.8450 H   0  0  0  0  0  0  0  0  0  0  0  0
   -1.0102   -1.8379    0.0010 H   0  0  0  0  0  0  0  0  0  0  0  0
    5.0184    2.1947   -0.0354 H   0  0  0  0  0  0  0  0  0  0  0  0
    2.8055   -1.8361    0.2111 H   0  0  0  0  0  0  0  0  0  0  0  0
    0.5102   -2.1148   -1.8760 H   0  0  0  0  0  0  0  0  0  0  0  0
    0.5557   -4.5370   -1.5884 H   0  0  0  0  0  0  0  0  0  0  0  0
    1.8731   -4.5113    1.0386 H   0  0  0  0  0  0  0  0  0  0  0  0
   -0.2018   -5.7524    0.3720 H   0  0  0  0  0  0  0  0  0  0  0  0
   -1.0856   -4.1889    0.3396 H   0  0  0  0  0  0  0  0  0  0  0  0
   -0.4804   -3.9035    2.5868 H   0  0  0  0  0  0  0  0  0  0  0  0
    3.2915   -4.2358   -0.7861 H   0  0  0  0  0  0  0  0  0  0  0  0
    3.3145   -2.6491   -1.9600 H   0  0  0  0  0  0  0  0  0  0  0  0
    0.0197    4.0918    0.0246 H   0  0  0  0  0  0  0  0  0  0  0  0
    1.4760    5.1249    0.0161 H   0  0  0  0  0  0  0  0  0  0  0  0
  1  2  1  0  0  0  0
  2  3  1  0  0  0  0
  3  8  2  0  0  0  0
  3  4  1  0  0  0  0
  4  5  2  0  0  0  0
  5  6  1  0  0  0  0
  6  7  2  0  0  0  0
  6  9  1  0  0  0  0
  7  8  1  0  0  0  0
  9 10  1  0  0  0  0
 10 11  1  0  0  0  0
 11 12  2  0  0  0  0
 11 13  1  0  0  0  0
 13 14  1  0  0  0  0
 14 15  1  0  0  0  0
 15 23  1  0  0  0  0
 15 16  2  0  0  0  0
 16 17  1  0  0  0  0
 17 22  1  0  0  0  0
 17 18  2  0  0  0  0
 18 19  1  0  0  0  0
 18 33  1  0  0  0  0
 19 20  2  0  0  0  0
 20 21  1  0  0  0  0
 21 22  2  0  0  0  0
 22 23  1  0  0  0  0
 23 24  1  0  0  0  0
 24 28  1  0  0  0  0
 24 25  1  0  0  0  0
 25 26  1  0  0  0  0
 25 32  1  0  0  0  0
 26 27  1  0  0  0  0
 26 31  1  0  0  0  0
 27 28  1  0  0  0  0
 27 29  1  0  0  0  0
 29 30  1  0  0  0  0
  1 34  1  0  0  0  0
  1 35  1  0  0  0  0
  1 36  1  0  0  0  0
  2 37  1  0  0  0  0
  2 38  1  0  0  0  0
  4 39  1  0  0  0  0
  5 40  1  0  0  0  0
  7 41  1  0  0  0  0
  8 42  1  0  0  0  0
 10 43  1  0  0  0  0
 10 44  1  0  0  0  0
 12 45  1  0  0  0  0
 12 46  1  0  0  0  0
 13 47  1  0  0  0  0
 13 48  1  0  0  0  0
 14 49  1  0  0  0  0
 20 50  1  0  0  0  0
 24 51  1  0  0  0  0
 25 52  1  0  0  0  0
 26 53  1  0  0  0  0
 27 54  1  0  0  0  0
 29 55  1  0  0  0  0
 29 56  1  0  0  0  0
 30 57  1  0  0  0  0
 31 58  1  0  0  0  0
 32 59  1  0  0  0  0
 33 60  1  0  0  0  0
 33 61  1  0  0  0  0
M  CHG  1  13   1
M  END
> <Name>
ZINC02441083

> <reference>
BDB4972

> <quality>
0.685

> <status>
decoy

$$$$
ZINC14116594
  SciTegic06141217593D

 42 43  0  0  1  0            999 V2000
   -0.7527    1.5927   -1.2315 C   0  0  0  0  0  0  0  0  0  0  0  0
   -0.0127    1.0858    0.0080 C   0  0  0  0  0  0  0  0  0  0  0  0
   -0.7181    1.5718    1.2479 C   0  0  0  0  0  0  0  0  0  0  0  0
   -1.1845    0.7948    2.2721 N   0  0  0  0  0  0  0  0  0  0  0  0
   -1.7428    1.6605    3.1684 C   0  0  0  0  0  0  0  0  0  0  0  0
   -1.6065    2.8684    2.6724 N   0  0  0  0  0  0  0  0  0  0  0  0
   -1.0015    2.8096    1.5399 N   0  0  0  0  0  0  0  0  0  0  0  0
   -2.5073    1.2361    4.6981 S   0  0  0  0  0  0  0  0  0  0  0  0
   -2.9849    2.8828    5.2782 C   0  0  0  0  0  0  0  0  0  0  0  0
   -3.6773    2.7644    6.6114 C   0  0  0  0  0  0  0  0  0  0  0  0
   -3.8327    1.6741    7.1194 O   0  0  0  0  0  0  0  0  0  0  0  0
   -4.1240    3.8702    7.2393 N   0  0  0  0  0  0  0  0  0  0  0  0
   -4.7677    3.7601    8.4788 N   0  0  0  0  0  0  0  0  0  0  0  0
   -5.2144    4.8659    9.1067 C   0  0  0  0  0  0  0  0  0  0  0  0
   -5.0591    5.9562    8.5988 O   0  0  0  0  0  0  0  0  0  0  0  0
   -5.9069    4.7475   10.4399 C   0  0  0  0  0  0  0  0  0  0  0  0
   -6.3105    6.1394   10.9303 C   0  0  2  0  0  0  0  0  0  0  0  0
   -5.0515    6.9686   11.2336 C   0  0  0  0  0  0  0  0  0  0  0  0
   -5.4364    8.2428   12.0233 C   0  0  0  0  0  0  0  0  0  0  0  0
   -6.9568    7.7204   12.9167 S   0  0  0  0  0  0  0  0  0  0  0  0
   -8.0498    8.5113   12.4707 O   0  0  0  0  0  0  0  0  0  0  0  0
   -6.6728    7.6406   14.3068 O   0  0  0  0  0  0  0  0  0  0  0  0
   -7.1362    6.0151   12.2426 C   0  0  0  0  0  0  0  0  0  0  0  0
   -0.7679    2.6926   -1.2265 H   0  0  0  0  0  0  0  0  0  0  0  0
   -1.7848    1.2123   -1.2248 H   0  0  0  0  0  0  0  0  0  0  0  0
   -0.2383    1.2383   -2.1369 H   0  0  0  0  0  0  0  0  0  0  0  0
    0.0018   -0.0141    0.0023 H   0  0  0  0  0  0  0  0  0  0  0  0
    1.0194    1.4662    0.0013 H   0  0  0  0  0  0  0  0  0  0  0  0
   -1.1266   -0.2305    2.3510 H   0  0  0  0  0  0  0  0  0  0  0  0
   -3.6683    3.3451    4.5507 H   0  0  0  0  0  0  0  0  0  0  0  0
   -2.0866    3.5084    5.3864 H   0  0  0  0  0  0  0  0  0  0  0  0
   -3.9921    4.7962    6.8079 H   0  0  0  0  0  0  0  0  0  0  0  0
   -4.8996    2.8341    8.9102 H   0  0  0  0  0  0  0  0  0  0  0  0
   -5.2246    4.2862   11.1691 H   0  0  0  0  0  0  0  0  0  0  0  0
   -6.8056    4.1224   10.3322 H   0  0  0  0  0  0  0  0  0  0  0  0
   -6.9095    6.6285   10.1481 H   0  0  0  0  0  0  0  0  0  0  0  0
   -4.5664    7.2572   10.2895 H   0  0  0  0  0  0  0  0  0  0  0  0
   -4.3520    6.3660   11.8316 H   0  0  0  0  0  0  0  0  0  0  0  0
   -4.6487    8.5018   12.7461 H   0  0  0  0  0  0  0  0  0  0  0  0
   -5.6725    9.0680   11.3354 H   0  0  0  0  0  0  0  0  0  0  0  0
   -8.1937    5.8084   12.0213 H   0  0  0  0  0  0  0  0  0  0  0  0
   -6.6747    5.2900   12.9291 H   0  0  0  0  0  0  0  0  0  0  0  0
  1  2  1  0  0  0  0
  2  3  1  0  0  0  0
  3  7  2  0  0  0  0
  3  4  1  0  0  0  0
  4  5  1  0  0  0  0
  5  6  2  0  0  0  0
  5  8  1  0  0  0  0
  6  7  1  0  0  0  0
  8  9  1  0  0  0  0
  9 10  1  0  0  0  0
 10 11  2  0  0  0  0
 10 12  1  0  0  0  0
 12 13  1  0  0  0  0
 13 14  1  0  0  0  0
 14 15  2  0  0  0  0
 14 16  1  0  0  0  0
 16 17  1  0  0  0  0
 17 23  1  0  0  0  0
 17 18  1  0  0  0  0
 18 19  1  0  0  0  0
 19 20  1  0  0  0  0
 20 21  2  0  0  0  0
 20 22  2  0  0  0  0
 20 23  1  0  0  0  0
  1 24  1  0  0  0  0
  1 25  1  0  0  0  0
  1 26  1  0  0  0  0
  2 27  1  0  0  0  0
  2 28  1  0  0  0  0
  4 29  1  0  0  0  0
  9 30  1  0  0  0  0
  9 31  1  0  0  0  0
 12 32  1  0  0  0  0
 13 33  1  0  0  0  0
 16 34  1  0  0  0  0
 16 35  1  0  0  0  0
 17 36  1  0  0  0  0
 18 37  1  0  0  0  0
 18 38  1  0  0  0  0
 19 39  1  0  0  0  0
 19 40  1  0  0  0  0
 23 41  1  0  0  0  0
 23 42  1  0  0  0  0
M  END
> <Name>
ZINC14116594

> <reference>
BDB4942

> <quality>
0.630

> <status>
decoy

$$$$
ZINC06041659
  SciTegic06141217593D

 37 38  0  0  0  0            999 V2000
    3.0967   -4.1564   -5.8473 C   0  0  0  0  0  0  0  0  0  0  0  0
    3.2307   -3.3166   -4.6704 O   0  0  0  0  0  0  0  0  0  0  0  0
    2.2857   -3.4374   -3.7248 C   0  0  0  0  0  0  0  0  0  0  0  0
    1.3766   -4.2189   -3.8756 O   0  0  0  0  0  0  0  0  0  0  0  0
    2.3585   -2.5981   -2.4752 C   0  0  0  0  0  0  0  0  0  0  0  0
    1.2207   -2.9137   -1.6081 N   0  0  0  0  0  0  0  0  0  0  0  0
    1.2291   -2.4332   -0.0233 S   0  0  0  0  0  0  0  0  0  0  0  0
    2.4848   -2.8261    0.5135 O   0  0  0  0  0  0  0  0  0  0  0  0
   -0.0056   -2.8588    0.5367 O   0  0  0  0  0  0  0  0  0  0  0  0
    1.2061   -0.6714   -0.0131 C   0  0  0  0  0  0  0  0  0  0  0  0
    2.4013    0.0327   -0.0207 C   0  0  0  0  0  0  0  0  0  0  0  0
    2.3999    1.4120   -0.0133 C   0  0  0  0  0  0  0  0  0  0  0  0
    1.1963    2.1010    0.0019 C   0  0  0  0  0  0  0  0  0  0  0  0
   -0.0169    1.3931    0.0097 C   0  0  0  0  0  0  0  0  0  0  0  0
    0.0021   -0.0041    0.0020 C   0  0  0  0  0  0  0  0  0  0  0  0
   -1.0163    2.3133    0.0187 N   0  0  0  0  0  0  0  0  0  0  0  0
   -0.5046    3.5177    0.0250 C   0  0  0  0  0  0  0  0  0  0  0  0
    0.8583    3.4435    0.0119 N   0  0  0  0  0  0  0  0  0  0  0  0
   -1.2368    4.6926    0.0374 N   0  0  0  0  0  0  0  0  0  0  0  0
   -0.6027    5.8819    0.0371 C   0  0  0  0  0  0  0  0  0  0  0  0
    0.6115    5.9229    0.0259 O   0  0  0  0  0  0  0  0  0  0  0  0
   -1.3147    7.0244    0.0492 O   0  0  0  0  0  0  0  0  0  0  0  0
   -0.5654    8.2681    0.0480 C   0  0  0  0  0  0  0  0  0  0  0  0
    2.1129   -3.9261   -6.2822 H   0  0  0  0  0  0  0  0  0  0  0  0
    3.0719   -5.1950   -5.4858 H   0  0  0  0  0  0  0  0  0  0  0  0
    3.9075   -3.9996   -6.5740 H   0  0  0  0  0  0  0  0  0  0  0  0
    2.3279   -1.5323   -2.7457 H   0  0  0  0  0  0  0  0  0  0  0  0
    3.2961   -2.8144   -1.9422 H   0  0  0  0  0  0  0  0  0  0  0  0
    0.4155   -3.4344   -1.9841 H   0  0  0  0  0  0  0  0  0  0  0  0
    3.3566   -0.5126   -0.0327 H   0  0  0  0  0  0  0  0  0  0  0  0
    3.3512    1.9643   -0.0194 H   0  0  0  0  0  0  0  0  0  0  0  0
   -0.9418   -0.5689    0.0080 H   0  0  0  0  0  0  0  0  0  0  0  0
    1.5133    4.2384    0.0098 H   0  0  0  0  0  0  0  0  0  0  0  0
   -2.2662    4.6578    0.0469 H   0  0  0  0  0  0  0  0  0  0  0  0
    0.0729    8.2445   -0.8475 H   0  0  0  0  0  0  0  0  0  0  0  0
    0.0897    8.2361    0.9311 H   0  0  0  0  0  0  0  0  0  0  0  0
   -1.2162    9.1549    0.0583 H   0  0  0  0  0  0  0  0  0  0  0  0
  1  2  1  0  0  0  0
  2  3  1  0  0  0  0
  3  4  2  0  0  0  0
  3  5  1  0  0  0  0
  5  6  1  0  0  0  0
  6  7  1  0  0  0  0
  7  8  2  0  0  0  0
  7  9  2  0  0  0  0
  7 10  1  0  0  0  0
 10 15  1  0  0  0  0
 10 11  2  0  0  0  0
 11 12  1  0  0  0  0
 12 13  2  0  0  0  0
 13 18  1  0  0  0  0
 13 14  1  0  0  0  0
 14 15  2  0  0  0  0
 14 16  1  0  0  0  0
 16 17  2  0  0  0  0
 17 18  1  0  0  0  0
 17 19  1  0  0  0  0
 19 20  1  0  0  0  0
 20 21  2  0  0  0  0
 20 22  1  0  0  0  0
 22 23  1  0  0  0  0
  1 24  1  0  0  0  0
  1 25  1  0  0  0  0
  1 26  1  0  0  0  0
  5 27  1  0  0  0  0
  5 28  1  0  0  0  0
  6 29  1  0  0  0  0
 11 30  1  0  0  0  0
 12 31  1  0  0  0  0
 15 32  1  0  0  0  0
 18 33  1  0  0  0  0
 19 34  1  0  0  0  0
 23 35  1  0  0  0  0
 23 36  1  0  0  0  0
 23 37  1  0  0  0  0
M  END
> <Name>
ZINC06041659

> <reference>
BDB4942

> <quality>
0.611

> <status>
decoy

$$$$
ZINC19483528
  SciTegic06141217593D

 35 35  0  0  1  0            999 V2000
   -2.2261    4.1707    5.1750 C   0  0  0  0  0  0  0  0  0  0  0  0
   -2.6458    2.9117    4.6451 O   0  0  0  0  0  0  0  0  0  0  0  0
   -2.0109    2.4701    3.5265 C   0  0  0  0  0  0  0  0  0  0  0  0
   -1.0065    3.2321    2.9516 C   0  0  0  0  0  0  0  0  0  0  0  0
   -0.3586    2.7792    1.8174 C   0  0  0  0  0  0  0  0  0  0  0  0
   -0.7181    1.5718    1.2479 C   0  0  0  0  0  0  0  0  0  0  0  0
   -1.7193    0.8067    1.8165 C   0  0  0  0  0  0  0  0  0  0  0  0
   -2.3688    1.2521    2.9565 C   0  0  0  0  0  0  0  0  0  0  0  0
   -3.3542    0.5008    3.5169 O   0  0  0  0  0  0  0  0  0  0  0  0
   -3.6688   -0.7378    2.8775 C   0  0  0  0  0  0  0  0  0  0  0  0
   -0.0127    1.0858    0.0080 C   0  0  0  0  0  0  0  0  0  0  0  0
   -0.8901    1.6867   -1.4616 S   0  0  0  0  0  0  0  0  0  0  0  0
    0.0725    1.0239   -2.8490 C   0  0  0  0  0  0  0  0  0  0  0  0
   -0.5668    1.4614   -4.1683 C   0  0  1  0  0  0  0  0  0  0  0  0
    0.2329    0.9108   -5.3209 C   0  0  0  0  0  0  0  0  0  0  0  0
   -0.1446   -0.0808   -5.8990 O   0  0  0  0  0  0  0  0  0  0  0  0
    1.3645    1.5219   -5.7053 O   0  5  0  0  0  0  0  0  0  0  0  0
   -1.9425    0.9512   -4.2388 N   0  3  0  0  0  0  0  0  0  0  0  0
   -2.3550    4.9051    4.3662 H   0  0  0  0  0  0  0  0  0  0  0  0
   -1.1489    4.0774    5.3775 H   0  0  0  0  0  0  0  0  0  0  0  0
   -2.7844    4.4599    6.0776 H   0  0  0  0  0  0  0  0  0  0  0  0
   -0.7247    4.1973    3.3976 H   0  0  0  0  0  0  0  0  0  0  0  0
    0.4447    3.3808    1.3671 H   0  0  0  0  0  0  0  0  0  0  0  0
   -2.0003   -0.1557    1.3639 H   0  0  0  0  0  0  0  0  0  0  0  0
   -2.7349   -1.3184    2.8516 H   0  0  0  0  0  0  0  0  0  0  0  0
   -3.9411   -0.4903    1.8409 H   0  0  0  0  0  0  0  0  0  0  0  0
   -4.4736   -1.2876    3.3875 H   0  0  0  0  0  0  0  0  0  0  0  0
    1.0191    1.4670   -0.0003 H   0  0  0  0  0  0  0  0  0  0  0  0
    0.0026   -0.0141    0.0007 H   0  0  0  0  0  0  0  0  0  0  0  0
    1.1025    1.4064   -2.7967 H   0  0  0  0  0  0  0  0  0  0  0  0
    0.0861   -0.0747   -2.7955 H   0  0  0  0  0  0  0  0  0  0  0  0
   -0.5800    2.5600   -4.2228 H   0  0  0  0  0  0  0  0  0  0  0  0
   -2.4899    1.3272   -3.4515 H   0  0  0  0  0  0  0  0  0  0  0  0
   -1.9312   -0.0775   -4.1881 H   0  0  0  0  0  0  0  0  0  0  0  0
   -2.3734    1.2454   -5.1268 H   0  0  0  0  0  0  0  0  0  0  0  0
  1  2  1  0  0  0  0
  2  3  1  0  0  0  0
  3  8  2  0  0  0  0
  3  4  1  0  0  0  0
  4  5  2  0  0  0  0
  5  6  1  0  0  0  0
  6  7  2  0  0  0  0
  6 11  1  0  0  0  0
  7  8  1  0  0  0  0
  8  9  1  0  0  0  0
  9 10  1  0  0  0  0
 11 12  1  0  0  0  0
 12 13  1  0  0  0  0
 13 14  1  0  0  0  0
 14 15  1  0  0  0  0
 14 18  1  0  0  0  0
 15 16  2  0  0  0  0
 15 17  1  0  0  0  0
  1 19  1  0  0  0  0
  1 20  1  0  0  0  0
  1 21  1  0  0  0  0
  4 22  1  0  0  0  0
  5 23  1  0  0  0  0
  7 24  1  0  0  0  0
 10 25  1  0  0  0  0
 10 26  1  0  0  0  0
 10 27  1  0  0  0  0
 11 28  1  0  0  0  0
 11 29  1  0  0  0  0
 13 30  1  0  0  0  0
 13 31  1  0  0  0  0
 14 32  1  0  0  0  0
 18 33  1  0  0  0  0
 18 34  1  0  0  0  0
 18 35  1  0  0  0  0
M  CHG  2  17  -1  18   1
M  END
> <Name>
ZINC19483528

> <reference>
BDB5195

> <quality>
0.758

> <status>
decoy

$$$$
ZINC06315906
  SciTegic06141217593D

 33 35  0  0  1  0            999 V2000
    1.2065   -7.1045    3.9662 C   0  0  0  0  0  0  0  0  0  0  0  0
    1.4708   -6.1799    4.9660 C   0  0  0  0  0  0  0  0  0  0  0  0
    1.3806   -4.8302    4.7112 C   0  0  0  0  0  0  0  0  0  0  0  0
    1.0198   -4.3869    3.4352 C   0  0  0  0  0  0  0  0  0  0  0  0
    0.7532   -5.3282    2.4263 C   0  0  0  0  0  0  0  0  0  0  0  0
    0.8493   -6.6841    2.7017 C   0  0  0  0  0  0  0  0  0  0  0  0
    0.4230   -4.6009    1.2956 N   0  0  0  0  0  0  0  0  0  0  0  0
    0.5024   -3.2744    1.6300 C   0  0  0  0  0  0  0  0  0  0  0  0
    0.8509   -3.1555    2.8911 N   0  0  0  0  0  0  0  0  0  0  0  0
    0.2319   -2.1524    0.7161 C   0  0  0  0  0  0  0  0  0  0  0  0
    0.3072   -0.8041    1.0573 C   0  0  0  0  0  0  0  0  0  0  0  0
    0.0021   -0.0041    0.0020 N   0  0  0  0  0  0  0  0  0  0  0  0
   -0.3106   -0.8652   -1.1468 C   0  5  0  0  0  0  0  0  0  0  0  0
   -0.1416   -2.2794   -0.6336 C   0  0  0  0  0  0  0  0  0  0  0  0
   -0.2997   -3.3107   -1.2576 O   0  0  0  0  0  0  0  0  0  0  0  0
   -0.0169    1.3968    0.0097 N   0  0  0  0  0  0  0  0  0  0  0  0
    1.1410    2.0865    0.0024 C   0  0  0  0  0  0  0  0  0  0  0  0
    2.2000    1.4941   -0.0109 O   0  0  0  0  0  0  0  0  0  0  0  0
    1.1207    3.5808    0.0106 C   0  0  0  0  0  0  0  0  0  0  0  0
    0.0617    4.1732    0.0239 O   0  0  0  0  0  0  0  0  0  0  0  0
    2.2786    4.2705    0.0032 N   0  0  0  0  0  0  0  0  0  0  0  0
    0.6452   -0.3443    2.2953 N   0  0  0  0  0  0  0  0  0  0  0  0
    1.2822   -8.1802    4.1831 H   0  0  0  0  0  0  0  0  0  0  0  0
    1.7546   -6.5280    5.9701 H   0  0  0  0  0  0  0  0  0  0  0  0
    1.5917   -4.1028    5.5089 H   0  0  0  0  0  0  0  0  0  0  0  0
    0.6412   -7.4227    1.9136 H   0  0  0  0  0  0  0  0  0  0  0  0
    0.1658   -4.9850    0.3752 H   0  0  0  0  0  0  0  0  0  0  0  0
    0.3981   -0.6757   -1.9665 H   0  0  0  0  0  0  0  0  0  0  0  0
   -0.9158    1.8996    0.0209 H   0  0  0  0  0  0  0  0  0  0  0  0
    3.1775    3.7677   -0.0081 H   0  0  0  0  0  0  0  0  0  0  0  0
    2.2646    5.3004    0.0089 H   0  0  0  0  0  0  0  0  0  0  0  0
    0.8557   -1.0514    3.0140 H   0  0  0  0  0  0  0  0  0  0  0  0
    0.6912    0.6613    2.5132 H   0  0  0  0  0  0  0  0  0  0  0  0
  1  6  1  0  0  0  0
  1  2  2  0  0  0  0
  2  3  1  0  0  0  0
  3  4  2  0  0  0  0
  4  9  1  0  0  0  0
  4  5  1  0  0  0  0
  5  6  2  0  0  0  0
  5  7  1  0  0  0  0
  7  8  1  0  0  0  0
  8  9  2  0  0  0  0
  8 10  1  0  0  0  0
 10 14  1  0  0  0  0
 10 11  2  0  0  0  0
 11 12  1  0  0  0  0
 11 22  1  0  0  0  0
 12 13  1  0  0  0  0
 12 16  1  0  0  0  0
 13 14  1  0  0  0  0
 14 15  2  0  0  0  0
 16 17  1  0  0  0  0
 17 18  2  0  0  0  0
 17 19  1  0  0  0  0
 19 20  2  0  0  0  0
 19 21  1  0  0  0  0
  1 23  1  0  0  0  0
  2 24  1  0  0  0  0
  3 25  1  0  0  0  0
  6 26  1  0  0  0  0
  7 27  1  0  0  0  0
 13 28  1  0  0  0  0
 16 29  1  0  0  0  0
 21 30  1  0  0  0  0
 21 31  1  0  0  0  0
 22 32  1  0  0  0  0
 22 33  1  0  0  0  0
M  CHG  1  13  -1
M  END
> <Name>
ZINC06315906

> <reference>
BDB5257

> <quality>
0.817

> <status>
decoy

$$$$
ZINC26140662
  SciTegic06141217593D

 39 41  0  0  0  0            999 V2000
    1.2026    1.7910    0.0002 C   0  0  0  0  0  0  0  0  0  0  0  0
   -0.0126    1.0758    0.0080 C   0  0  0  0  0  0  0  0  0  0  0  0
   -1.1894    1.7260    0.0171 C   0  0  0  0  0  0  0  0  0  0  0  0
   -1.2315    3.1000    0.0296 N   0  0  0  0  0  0  0  0  0  0  0  0
   -0.0557    3.8271    0.0222 C   0  0  0  0  0  0  0  0  0  0  0  0
    1.1879    3.1461    0.0072 C   0  0  0  0  0  0  0  0  0  0  0  0
   -0.3577    5.1046    0.0315 N   0  0  0  0  0  0  0  0  0  0  0  0
   -1.7548    5.2165    0.0451 N   0  0  0  0  0  0  0  0  0  0  0  0
   -2.2636    3.9674    0.0436 C   0  0  0  0  0  0  0  0  0  0  0  0
   -3.4468    3.6746    0.0532 O   0  0  0  0  0  0  0  0  0  0  0  0
   -2.5230    6.4639    0.0590 C   0  0  0  0  0  0  0  0  0  0  0  0
   -2.7726    6.8842    1.4845 C   0  0  0  0  0  0  0  0  0  0  0  0
   -2.3504    6.2084    2.3988 O   0  0  0  0  0  0  0  0  0  0  0  0
   -3.4650    8.0112    1.7433 N   0  0  0  0  0  0  0  0  0  0  0  0
   -3.7077    8.4198    3.1291 C   0  0  0  0  0  0  0  0  0  0  0  0
   -4.5099    9.7226    3.1436 C   0  0  0  0  0  0  0  0  0  0  0  0
   -4.7526   10.1312    4.5294 N   0  0  0  0  0  0  0  0  0  0  0  0
   -5.4450   11.2582    4.7882 C   0  0  0  0  0  0  0  0  0  0  0  0
   -5.8687   11.9363    3.8708 O   0  0  0  0  0  0  0  0  0  0  0  0
   -5.6880   11.6672    6.1755 C   0  0  0  0  0  0  0  0  0  0  0  0
   -6.3706   12.7799    6.5761 C   0  0  0  0  0  0  0  0  0  0  0  0
   -6.3599   12.7763    7.9797 C   0  0  0  0  0  0  0  0  0  0  0  0
   -5.6798   11.6756    8.3694 C   0  0  0  0  0  0  0  0  0  0  0  0
   -5.2811   11.0071    7.2795 O   0  0  0  0  0  0  0  0  0  0  0  0
    2.1604    1.2502   -0.0115 H   0  0  0  0  0  0  0  0  0  0  0  0
    0.0023   -0.0241    0.0066 H   0  0  0  0  0  0  0  0  0  0  0  0
   -2.1281    1.1526    0.0145 H   0  0  0  0  0  0  0  0  0  0  0  0
    2.1312    3.7120    0.0013 H   0  0  0  0  0  0  0  0  0  0  0  0
   -3.4854    6.3089   -0.4506 H   0  0  0  0  0  0  0  0  0  0  0  0
   -1.9554    7.2500   -0.4605 H   0  0  0  0  0  0  0  0  0  0  0  0
   -3.8235    8.5852    0.9668 H   0  0  0  0  0  0  0  0  0  0  0  0
   -4.2757    7.6343    3.6490 H   0  0  0  0  0  0  0  0  0  0  0  0
   -2.7463    8.5764    3.6401 H   0  0  0  0  0  0  0  0  0  0  0  0
   -3.9422   10.5087    2.6242 H   0  0  0  0  0  0  0  0  0  0  0  0
   -5.4723    9.5676    2.6339 H   0  0  0  0  0  0  0  0  0  0  0  0
   -4.3941    9.5572    5.3059 H   0  0  0  0  0  0  0  0  0  0  0  0
   -6.8383   13.5331    5.9250 H   0  0  0  0  0  0  0  0  0  0  0  0
   -6.8189   13.5281    8.6386 H   0  0  0  0  0  0  0  0  0  0  0  0
   -5.4856   11.3777    9.4103 H   0  0  0  0  0  0  0  0  0  0  0  0
  1  6  2  0  0  0  0
  1  2  1  0  0  0  0
  2  3  2  0  0  0  0
  3  4  1  0  0  0  0
  4  9  1  0  0  0  0
  4  5  1  0  0  0  0
  5  6  1  0  0  0  0
  5  7  2  0  0  0  0
  7  8  1  0  0  0  0
  8  9  1  0  0  0  0
  8 11  1  0  0  0  0
  9 10  2  0  0  0  0
 11 12  1  0  0  0  0
 12 13  2  0  0  0  0
 12 14  1  0  0  0  0
 14 15  1  0  0  0  0
 15 16  1  0  0  0  0
 16 17  1  0  0  0  0
 17 18  1  0  0  0  0
 18 19  2  0  0  0  0
 18 20  1  0  0  0  0
 20 24  1  0  0  0  0
 20 21  2  0  0  0  0
 21 22  1  0  0  0  0
 22 23  2  0  0  0  0
 23 24  1  0  0  0  0
  1 25  1  0  0  0  0
  2 26  1  0  0  0  0
  3 27  1  0  0  0  0
  6 28  1  0  0  0  0
 11 29  1  0  0  0  0
 11 30  1  0  0  0  0
 14 31  1  0  0  0  0
 15 32  1  0  0  0  0
 15 33  1  0  0  0  0
 16 34  1  0  0  0  0
 16 35  1  0  0  0  0
 17 36  1  0  0  0  0
 21 37  1  0  0  0  0
 22 38  1  0  0  0  0
 23 39  1  0  0  0  0
M  END
> <Name>
ZINC26140662

> <reference>
BDB5228

> <quality>
0.682

> <status>
decoy

$$$$
ZINC20185343
  SciTegic06141217593D

 38 39  0  0  1  0            999 V2000
   -1.2195    1.4226   -4.5114 C   0  0  0  0  0  0  0  0  0  0  0  0
   -0.4442    0.5567   -3.5163 C   0  0  0  0  0  0  0  0  0  0  0  0
    0.0520    1.3953   -2.4223 N   0  0  0  0  0  0  0  0  0  0  0  0
    1.2987    1.9934   -2.5181 C   0  0  0  0  0  0  0  0  0  0  0  0
    2.1783    1.9240   -3.4991 N   0  0  0  0  0  0  0  0  0  0  0  0
    3.3296    2.5658   -3.4305 C   0  0  0  0  0  0  0  0  0  0  0  0
    3.5980    3.2939   -2.3205 C   0  0  0  0  0  0  0  0  0  0  0  0
    2.1071    3.0200   -1.3745 S   0  0  0  0  0  0  0  0  0  0  0  0
    4.3255    2.4850   -4.5586 C   0  0  0  0  0  0  0  0  0  0  0  0
    5.3408    1.3789   -4.2644 C   0  0  0  0  0  0  0  0  0  0  0  0
    6.3116    1.3001   -5.3641 N   0  3  0  0  0  0  0  0  0  0  0  0
   -0.7696    1.6017   -1.2271 C   0  0  1  0  0  0  0  0  0  0  0  0
   -0.0127    1.0858    0.0080 C   0  0  0  0  0  0  0  0  0  0  0  0
   -0.7543    1.5942    1.2773 C   0  0  0  0  0  0  0  0  0  0  0  0
   -1.1726    3.3117    0.7583 S   0  0  0  0  0  0  0  0  0  0  0  0
   -0.1383    4.1884    1.1835 O   0  0  0  0  0  0  0  0  0  0  0  0
   -2.5181    3.5901    1.1207 O   0  0  0  0  0  0  0  0  0  0  0  0
   -1.0740    3.1108   -1.0672 C   0  0  0  0  0  0  0  0  0  0  0  0
   -0.5554    2.1995   -4.9181 H   0  0  0  0  0  0  0  0  0  0  0  0
   -2.0696    1.8984   -4.0005 H   0  0  0  0  0  0  0  0  0  0  0  0
   -1.5924    0.7935   -5.3331 H   0  0  0  0  0  0  0  0  0  0  0  0
   -1.1091   -0.2197   -3.1099 H   0  0  0  0  0  0  0  0  0  0  0  0
    0.4059    0.0809   -4.0272 H   0  0  0  0  0  0  0  0  0  0  0  0
    4.4883    3.8896   -2.0703 H   0  0  0  0  0  0  0  0  0  0  0  0
    3.7988    2.2583   -5.4973 H   0  0  0  0  0  0  0  0  0  0  0  0
    4.8502    3.4469   -4.6556 H   0  0  0  0  0  0  0  0  0  0  0  0
    5.8682    1.6052   -3.3260 H   0  0  0  0  0  0  0  0  0  0  0  0
    4.8180    0.4159   -4.1681 H   0  0  0  0  0  0  0  0  0  0  0  0
    6.8029    2.2008   -5.4549 H   0  0  0  0  0  0  0  0  0  0  0  0
    5.8191    1.0881   -6.2436 H   0  0  0  0  0  0  0  0  0  0  0  0
    6.9954    0.5556   -5.1666 H   0  0  0  0  0  0  0  0  0  0  0  0
   -1.7163    1.0505   -1.3273 H   0  0  0  0  0  0  0  0  0  0  0  0
   -0.0016   -0.0141    0.0025 H   0  0  0  0  0  0  0  0  0  0  0  0
    1.0165    1.4741    0.0015 H   0  0  0  0  0  0  0  0  0  0  0  0
   -1.6761    1.0189    1.4485 H   0  0  0  0  0  0  0  0  0  0  0  0
   -0.0770    1.6187    2.1437 H   0  0  0  0  0  0  0  0  0  0  0  0
   -2.0433    3.3606   -1.5233 H   0  0  0  0  0  0  0  0  0  0  0  0
   -0.2463    3.7160   -1.4655 H   0  0  0  0  0  0  0  0  0  0  0  0
  1  2  1  0  0  0  0
  2  3  1  0  0  0  0
  3  4  1  0  0  0  0
  3 12  1  0  0  0  0
  4  8  1  0  0  0  0
  4  5  2  0  0  0  0
  5  6  1  0  0  0  0
  6  7  2  0  0  0  0
  6  9  1  0  0  0  0
  7  8  1  0  0  0  0
  9 10  1  0  0  0  0
 10 11  1  0  0  0  0
 12 18  1  0  0  0  0
 12 13  1  0  0  0  0
 13 14  1  0  0  0  0
 14 15  1  0  0  0  0
 15 16  2  0  0  0  0
 15 17  2  0  0  0  0
 15 18  1  0  0  0  0
  1 19  1  0  0  0  0
  1 20  1  0  0  0  0
  1 21  1  0  0  0  0
  2 22  1  0  0  0  0
  2 23  1  0  0  0  0
  7 24  1  0  0  0  0
  9 25  1  0  0  0  0
  9 26  1  0  0  0  0
 10 27  1  0  0  0  0
 10 28  1  0  0  0  0
 11 29  1  0  0  0  0
 11 30  1  0  0  0  0
 11 31  1  0  0  0  0
 12 32  1  0  0  0  0
 13 33  1  0  0  0  0
 13 34  1  0  0  0  0
 14 35  1  0  0  0  0
 14 36  1  0  0  0  0
 18 37  1  0  0  0  0
 18 38  1  0  0  0  0
M  CHG  1  11   1
M  END
> <Name>
ZINC20185343

> <reference>
BDB5233

> <quality>
0.724

> <status>
decoy

$$$$
ZINC04372269
  SciTegic06141217593D

 36 37  0  0  1  0            999 V2000
    0.9549    3.4931    0.6055 C   0  0  0  0  0  0  0  0  0  0  0  0
    1.0153    2.1091    0.6208 C   0  0  0  0  0  0  0  0  0  0  0  0
   -0.0163    1.3953    0.0165 C   0  0  0  0  0  0  0  0  0  0  0  0
   -1.0666    2.0923   -0.5665 C   0  0  0  0  0  0  0  0  0  0  0  0
   -1.0875    3.4100   -0.5544 N   0  0  0  0  0  0  0  0  0  0  0  0
   -0.1237    4.1152    0.0051 C   0  0  0  0  0  0  0  0  0  0  0  0
    0.0021   -0.0041    0.0020 N   0  0  0  0  0  0  0  0  0  0  0  0
    1.1728   -0.6615   -0.1144 C   0  0  0  0  0  0  0  0  0  0  0  0
    2.2169   -0.0443   -0.1213 O   0  0  0  0  0  0  0  0  0  0  0  0
    1.1847   -2.1635   -0.2361 C   0  0  0  0  0  0  0  0  0  0  0  0
    2.6291   -2.6543   -0.3540 C   0  0  1  0  0  0  0  0  0  0  0  0
    2.6494   -4.1611   -0.3521 C   0  0  0  0  0  0  0  0  0  0  0  0
    3.1045   -4.7603   -1.2975 O   0  0  0  0  0  0  0  0  0  0  0  0
    4.6774   -2.0756   -1.5081 C   0  0  0  0  0  0  0  0  0  0  0  0
    5.2406   -1.5641   -2.8089 C   0  0  0  0  0  0  0  0  0  0  0  0
    5.4520   -0.2729   -3.1210 C   0  0  0  0  0  0  0  0  0  0  0  0
    5.9865   -0.2500   -4.4297 C   0  0  0  0  0  0  0  0  0  0  0  0
    6.0698   -1.5286   -4.8391 C   0  0  0  0  0  0  0  0  0  0  0  0
    5.6220   -2.3205   -3.8511 O   0  0  0  0  0  0  0  0  0  0  0  0
    2.1618   -4.8376    0.6997 O   0  5  0  0  0  0  0  0  0  0  0  0
    3.2084   -2.1555   -1.6155 N   0  3  0  0  0  0  0  0  0  0  0  0
    1.7560    4.0901    1.0658 H   0  0  0  0  0  0  0  0  0  0  0  0
    1.8574    1.5870    1.0985 H   0  0  0  0  0  0  0  0  0  0  0  0
   -1.8892    1.5390   -1.0431 H   0  0  0  0  0  0  0  0  0  0  0  0
   -0.1789    5.2138   -0.0062 H   0  0  0  0  0  0  0  0  0  0  0  0
   -0.8791   -0.5315    0.0803 H   0  0  0  0  0  0  0  0  0  0  0  0
    0.6217   -2.4644   -1.1320 H   0  0  0  0  0  0  0  0  0  0  0  0
    0.7188   -2.6075    0.6560 H   0  0  0  0  0  0  0  0  0  0  0  0
    3.2180   -2.2809    0.4967 H   0  0  0  0  0  0  0  0  0  0  0  0
    5.0850   -3.0756   -1.2990 H   0  0  0  0  0  0  0  0  0  0  0  0
    4.9488   -1.3882   -0.6933 H   0  0  0  0  0  0  0  0  0  0  0  0
    5.2481    0.5981   -2.4808 H   0  0  0  0  0  0  0  0  0  0  0  0
    6.2783    0.6422   -5.0031 H   0  0  0  0  0  0  0  0  0  0  0  0
    6.4416   -1.8680   -5.8171 H   0  0  0  0  0  0  0  0  0  0  0  0
    2.9571   -2.7949   -2.3829 H   0  0  0  0  0  0  0  0  0  0  0  0
    2.8304   -1.2193   -1.8192 H   0  0  0  0  0  0  0  0  0  0  0  0
  1  6  2  0  0  0  0
  1  2  1  0  0  0  0
  2  3  2  0  0  0  0
  3  4  1  0  0  0  0
  3  7  1  0  0  0  0
  4  5  2  0  0  0  0
  5  6  1  0  0  0  0
  7  8  1  0  0  0  0
  8  9  2  0  0  0  0
  8 10  1  0  0  0  0
 10 11  1  0  0  0  0
 11 12  1  0  0  0  0
 11 21  1  0  0  0  0
 12 13  2  0  0  0  0
 12 20  1  0  0  0  0
 14 15  1  0  0  0  0
 14 21  1  0  0  0  0
 15 19  1  0  0  0  0
 15 16  2  0  0  0  0
 16 17  1  0  0  0  0
 17 18  2  0  0  0  0
 18 19  1  0  0  0  0
  1 22  1  0  0  0  0
  2 23  1  0  0  0  0
  4 24  1  0  0  0  0
  6 25  1  0  0  0  0
  7 26  1  0  0  0  0
 10 27  1  0  0  0  0
 10 28  1  0  0  0  0
 11 29  1  0  0  0  0
 14 30  1  0  0  0  0
 14 31  1  0  0  0  0
 16 32  1  0  0  0  0
 17 33  1  0  0  0  0
 18 34  1  0  0  0  0
 21 35  1  0  0  0  0
 21 36  1  0  0  0  0
M  CHG  2  20  -1  21   1
M  END
> <Name>
ZINC04372269

> <reference>
BDB4995

> <quality>
0.784

> <status>
decoy

$$$$
ZINC04642048
  SciTegic06141217593D

 52 53  0  0  1  0            999 V2000
   -0.9315    2.5810   -7.3044 C   0  0  0  0  0  0  0  0  0  0  0  0
   -1.9148    3.7436   -7.1540 C   0  0  0  0  0  0  0  0  0  0  0  0
   -3.3712    2.4304   -5.7338 C   0  0  0  0  0  0  0  0  0  0  0  0
   -4.6128    2.5451   -6.6205 C   0  0  0  0  0  0  0  0  0  0  0  0
   -1.5953    3.7527   -4.7539 C   0  0  0  0  0  0  0  0  0  0  0  0
   -0.9622    5.1456   -4.7541 C   0  0  0  0  0  0  0  0  0  0  0  0
    0.7225    6.4166   -3.4668 C   0  0  0  0  0  0  0  0  0  0  0  0
    0.5144    7.4532   -4.2568 C   0  0  0  0  0  0  0  0  0  0  0  0
    1.7277    6.5117   -2.3480 C   0  5  0  0  0  0  0  0  0  0  0  0
    2.8750    5.5706   -2.6631 C   0  0  0  0  0  0  0  0  0  0  0  0
    3.5179    5.6830   -3.6847 O   0  0  0  0  0  0  0  0  0  0  0  0
    3.1539    4.6036   -1.7633 N   0  0  0  0  0  0  0  0  0  0  0  0
    2.4578    4.4698   -0.6286 C   0  0  0  0  0  0  0  0  0  0  0  0
    2.7798    3.5749    0.1273 O   0  0  0  0  0  0  0  0  0  0  0  0
    1.4292    5.2458   -0.2683 N   0  0  0  0  0  0  0  0  0  0  0  0
    1.0012    6.2684   -1.0387 C   0  0  0  0  0  0  0  0  0  0  0  0
    0.0705    6.9661   -0.6971 O   0  0  0  0  0  0  0  0  0  0  0  0
    0.7509    4.9816    1.0030 C   0  0  0  0  0  0  0  0  0  0  0  0
   -0.3825    4.0147    0.7763 C   0  0  0  0  0  0  0  0  0  0  0  0
   -0.1608    2.6540    0.8772 C   0  0  0  0  0  0  0  0  0  0  0  0
   -1.2007    1.7670    0.6701 C   0  0  0  0  0  0  0  0  0  0  0  0
   -2.4609    2.2406    0.3563 C   0  0  0  0  0  0  0  0  0  0  0  0
   -2.6835    3.6015    0.2592 C   0  0  0  0  0  0  0  0  0  0  0  0
   -1.6439    4.4884    0.4677 C   0  0  0  0  0  0  0  0  0  0  0  0
   -2.5930    3.6823   -5.8421 N   0  0  0  0  0  0  0  0  0  0  0  0
    0.0272    5.1808   -3.6220 N   0  3  0  0  0  0  0  0  0  0  0  0
   -1.4814    1.6321   -7.2198 H   0  0  0  0  0  0  0  0  0  0  0  0
   -0.1822    2.6380   -6.5011 H   0  0  0  0  0  0  0  0  0  0  0  0
   -0.4324    2.6356   -8.2831 H   0  0  0  0  0  0  0  0  0  0  0  0
   -1.3692    4.6952   -7.2368 H   0  0  0  0  0  0  0  0  0  0  0  0
   -2.6674    3.6914   -7.9545 H   0  0  0  0  0  0  0  0  0  0  0  0
   -3.6777    2.2768   -4.6886 H   0  0  0  0  0  0  0  0  0  0  0  0
   -2.7544    1.5837   -6.0694 H   0  0  0  0  0  0  0  0  0  0  0  0
   -4.3113    2.6985   -7.6672 H   0  0  0  0  0  0  0  0  0  0  0  0
   -5.2327    3.3906   -6.2875 H   0  0  0  0  0  0  0  0  0  0  0  0
   -5.1979    1.6166   -6.5455 H   0  0  0  0  0  0  0  0  0  0  0  0
   -2.0909    3.5724   -3.7885 H   0  0  0  0  0  0  0  0  0  0  0  0
   -0.8162    2.9940   -4.9195 H   0  0  0  0  0  0  0  0  0  0  0  0
   -0.4424    5.3182   -5.7081 H   0  0  0  0  0  0  0  0  0  0  0  0
   -1.7383    5.9085   -4.5936 H   0  0  0  0  0  0  0  0  0  0  0  0
    1.0746    8.3865   -4.0986 H   0  0  0  0  0  0  0  0  0  0  0  0
   -0.2193    7.3838   -5.0734 H   0  0  0  0  0  0  0  0  0  0  0  0
    3.9256    3.9493   -1.9561 H   0  0  0  0  0  0  0  0  0  0  0  0
    1.4660    4.5466    1.7168 H   0  0  0  0  0  0  0  0  0  0  0  0
    0.3530    5.9228    1.4101 H   0  0  0  0  0  0  0  0  0  0  0  0
    0.8431    2.2770    1.1223 H   0  0  0  0  0  0  0  0  0  0  0  0
   -1.0254    0.6844    0.7550 H   0  0  0  0  0  0  0  0  0  0  0  0
   -3.2866    1.5346    0.1839 H   0  0  0  0  0  0  0  0  0  0  0  0
   -3.6878    3.9786    0.0160 H   0  0  0  0  0  0  0  0  0  0  0  0
   -1.8204    5.5712    0.3880 H   0  0  0  0  0  0  0  0  0  0  0  0
    0.7198    4.4317   -3.7639 H   0  0  0  0  0  0  0  0  0  0  0  0
   -0.4684    4.9718   -2.7436 H   0  0  0  0  0  0  0  0  0  0  0  0
  1  2  1  0  0  0  0
  2 25  1  0  0  0  0
  3  4  1  0  0  0  0
  3 25  1  0  0  0  0
  5  6  1  0  0  0  0
  5 25  1  0  0  0  0
  6 26  1  0  0  0  0
  7  8  2  0  0  0  0
  7  9  1  0  0  0  0
  7 26  1  0  0  0  0
  9 16  1  0  0  0  0
  9 10  1  0  0  0  0
 10 11  2  0  0  0  0
 10 12  1  0  0  0  0
 12 13  1  0  0  0  0
 13 14  2  0  0  0  0
 13 15  1  0  0  0  0
 15 16  1  0  0  0  0
 15 18  1  0  0  0  0
 16 17  2  0  0  0  0
 18 19  1  0  0  0  0
 19 24  2  0  0  0  0
 19 20  1  0  0  0  0
 20 21  2  0  0  0  0
 21 22  1  0  0  0  0
 22 23  2  0  0  0  0
 23 24  1  0  0  0  0
  1 27  1  0  0  0  0
  1 28  1  0  0  0  0
  1 29  1  0  0  0  0
  2 30  1  0  0  0  0
  2 31  1  0  0  0  0
  3 32  1  0  0  0  0
  3 33  1  0  0  0  0
  4 34  1  0  0  0  0
  4 35  1  0  0  0  0
  4 36  1  0  0  0  0
  5 37  1  0  0  0  0
  5 38  1  0  0  0  0
  6 39  1  0  0  0  0
  6 40  1  0  0  0  0
  8 41  1  0  0  0  0
  8 42  1  0  0  0  0
 12 43  1  0  0  0  0
 18 44  1  0  0  0  0
 18 45  1  0  0  0  0
 20 46  1  0  0  0  0
 21 47  1  0  0  0  0
 22 48  1  0  0  0  0
 23 49  1  0  0  0  0
 24 50  1  0  0  0  0
 26 51  1  0  0  0  0
 26 52  1  0  0  0  0
M  CHG  2   9  -1  26   1
M  END
> <Name>
ZINC04642048

> <reference>
BDB4997

> <quality>
0.808

> <status>
decoy

$$$$
ZINC10329109
  SciTegic06141217593D

 42 44  0  0  0  0            999 V2000
    4.0216   -1.0339   -1.4837 C   0  0  0  0  0  0  0  0  0  0  0  0
    3.5998   -0.7754   -0.0359 C   0  0  0  0  0  0  0  0  0  0  0  0
    2.3500   -0.0112   -0.0204 N   0  0  0  0  0  0  0  0  0  0  0  0
    2.3961    1.3365   -0.0134 C   0  0  0  0  0  0  0  0  0  0  0  0
    3.4689    1.9146   -0.0201 O   0  0  0  0  0  0  0  0  0  0  0  0
    1.1951    2.0696    0.0018 C   0  0  0  0  0  0  0  0  0  0  0  0
   -0.0167    1.3809    0.0096 C   0  0  0  0  0  0  0  0  0  0  0  0
   -0.9999    2.2865    0.0186 N   0  0  0  0  0  0  0  0  0  0  0  0
   -0.4926    3.4919    0.0235 C   0  0  0  0  0  0  0  0  0  0  0  0
    0.8734    3.4101    0.0129 N   0  0  0  0  0  0  0  0  0  0  0  0
    1.7428    4.5849    0.0173 C   0  0  0  0  0  0  0  0  0  0  0  0
    0.9262    5.8176   -0.2585 C   0  0  0  0  0  0  0  0  0  0  0  0
   -0.3428    5.8491   -0.2435 N   0  0  0  0  0  0  0  0  0  0  0  0
   -1.1301    4.7180    0.0281 N   0  0  0  0  0  0  0  0  0  0  0  0
   -2.5643    4.8331    0.3038 C   0  0  0  0  0  0  0  0  0  0  0  0
   -2.7784    5.0123    1.7847 C   0  0  0  0  0  0  0  0  0  0  0  0
   -1.8266    5.0410    2.5359 O   0  0  0  0  0  0  0  0  0  0  0  0
   -4.0275    5.1406    2.2744 N   0  0  0  0  0  0  0  0  0  0  0  0
   -4.2215    5.3030    3.6167 N   0  0  0  0  0  0  0  0  0  0  0  0
    1.6606    7.0956   -0.5719 C   0  0  0  0  0  0  0  0  0  0  0  0
    0.0021   -0.0041    0.0020 N   0  0  0  0  0  0  0  0  0  0  0  0
    1.1752   -0.6643   -0.0131 C   0  0  0  0  0  0  0  0  0  0  0  0
    1.1720   -1.8803   -0.0198 O   0  0  0  0  0  0  0  0  0  0  0  0
   -1.2575   -0.7521    0.0099 C   0  0  0  0  0  0  0  0  0  0  0  0
    4.1731   -0.0742   -1.9995 H   0  0  0  0  0  0  0  0  0  0  0  0
    3.2362   -1.6064   -1.9989 H   0  0  0  0  0  0  0  0  0  0  0  0
    4.9600   -1.6077   -1.4961 H   0  0  0  0  0  0  0  0  0  0  0  0
    4.3852   -0.2029    0.4793 H   0  0  0  0  0  0  0  0  0  0  0  0
    3.4483   -1.7356    0.4790 H   0  0  0  0  0  0  0  0  0  0  0  0
    2.5130    4.4750   -0.7603 H   0  0  0  0  0  0  0  0  0  0  0  0
    2.2267    4.6791    1.0007 H   0  0  0  0  0  0  0  0  0  0  0  0
   -3.0779    3.9203   -0.0323 H   0  0  0  0  0  0  0  0  0  0  0  0
   -2.9724    5.7022   -0.2329 H   0  0  0  0  0  0  0  0  0  0  0  0
   -4.8358    5.1162    1.6365 H   0  0  0  0  0  0  0  0  0  0  0  0
   -3.4132    5.3274    4.2547 H   0  0  0  0  0  0  0  0  0  0  0  0
   -5.1761    5.4010    3.9909 H   0  0  0  0  0  0  0  0  0  0  0  0
    2.2963    6.8688   -1.4405 H   0  0  0  0  0  0  0  0  0  0  0  0
    2.3263    7.2748    0.2853 H   0  0  0  0  0  0  0  0  0  0  0  0
    0.9914    7.9480   -0.7608 H   0  0  0  0  0  0  0  0  0  0  0  0
   -1.8113   -0.3883   -0.8682 H   0  0  0  0  0  0  0  0  0  0  0  0
   -1.7946   -0.3978    0.9021 H   0  0  0  0  0  0  0  0  0  0  0  0
   -1.1293   -1.8446    0.0028 H   0  0  0  0  0  0  0  0  0  0  0  0
  1  2  1  0  0  0  0
  2  3  1  0  0  0  0
  3 22  1  0  0  0  0
  3  4  1  0  0  0  0
  4  5  2  0  0  0  0
  4  6  1  0  0  0  0
  6 10  1  0  0  0  0
  6  7  2  0  0  0  0
  7  8  1  0  0  0  0
  7 21  1  0  0  0  0
  8  9  2  0  0  0  0
  9 14  1  0  0  0  0
  9 10  1  0  0  0  0
 10 11  1  0  0  0  0
 11 12  1  0  0  0  0
 12 13  2  0  0  0  0
 12 20  1  0  0  0  0
 13 14  1  0  0  0  0
 14 15  1  0  0  0  0
 15 16  1  0  0  0  0
 16 17  2  0  0  0  0
 16 18  1  0  0  0  0
 18 19  1  0  0  0  0
 21 22  1  0  0  0  0
 21 24  1  0  0  0  0
 22 23  2  0  0  0  0
  1 25  1  0  0  0  0
  1 26  1  0  0  0  0
  1 27  1  0  0  0  0
  2 28  1  0  0  0  0
  2 29  1  0  0  0  0
 11 30  1  0  0  0  0
 11 31  1  0  0  0  0
 15 32  1  0  0  0  0
 15 33  1  0  0  0  0
 18 34  1  0  0  0  0
 19 35  1  0  0  0  0
 19 36  1  0  0  0  0
 20 37  1  0  0  0  0
 20 38  1  0  0  0  0
 20 39  1  0  0  0  0
 24 40  1  0  0  0  0
 24 41  1  0  0  0  0
 24 42  1  0  0  0  0
M  END
> <Name>
ZINC10329109

> <reference>
BDB4977

> <quality>
0.673

> <status>
decoy

$$$$
ZINC05499507
  SciTegic06141217593D

 41 42  0  0  1  0            999 V2000
    3.8161   -6.3268   -2.6543 C   0  0  0  0  0  0  0  0  0  0  0  0
    5.1359   -5.6433   -3.0177 C   0  0  0  0  0  0  0  0  0  0  0  0
    6.0052   -3.5065   -3.7531 C   0  0  0  0  0  0  0  0  0  0  0  0
    5.8417   -3.8496   -5.2351 C   0  0  0  0  0  0  0  0  0  0  0  0
    4.6060   -3.3152   -5.7143 O   0  0  0  0  0  0  0  0  0  0  0  0
    4.9355   -3.6985   -1.5894 C   0  0  0  0  0  0  0  0  0  0  0  0
    4.2641   -2.3245   -1.5436 C   0  0  2  0  0  0  0  0  0  0  0  0
    4.2502   -1.8114   -0.1023 C   0  0  0  0  0  0  0  0  0  0  0  0
    3.7164   -0.4473   -0.0746 N   0  0  0  0  0  0  0  0  0  0  0  0
    4.4451    0.7046   -0.0970 C   0  0  0  0  0  0  0  0  0  0  0  0
    3.6501    1.7343   -0.0614 N   0  0  0  0  0  0  0  0  0  0  0  0
    2.3644    1.3100   -0.0141 C   0  0  0  0  0  0  0  0  0  0  0  0
    2.3915   -0.0950   -0.0220 C   0  0  0  0  0  0  0  0  0  0  0  0
    1.2436   -0.7634    0.0188 N   0  0  0  0  0  0  0  0  0  0  0  0
    0.0950   -0.1219    0.0660 C   0  0  0  0  0  0  0  0  0  0  0  0
    0.0193    1.1963    0.0754 N   0  0  0  0  0  0  0  0  0  0  0  0
    1.1141    1.9490    0.0371 C   0  0  0  0  0  0  0  0  0  0  0  0
    1.0246    3.3300    0.0478 N   0  0  0  0  0  0  0  0  0  0  0  0
    2.9224   -2.4338   -2.0232 O   0  0  0  0  0  0  0  0  0  0  0  0
    4.9350   -4.1793   -2.9871 N   0  3  0  0  0  0  0  0  0  0  0  0
    3.0387   -6.0495   -3.3815 H   0  0  0  0  0  0  0  0  0  0  0  0
    3.5027   -6.0221   -1.6449 H   0  0  0  0  0  0  0  0  0  0  0  0
    3.9566   -7.4176   -2.6746 H   0  0  0  0  0  0  0  0  0  0  0  0
    5.9096   -5.9241   -2.2880 H   0  0  0  0  0  0  0  0  0  0  0  0
    5.4459   -5.9512   -4.0272 H   0  0  0  0  0  0  0  0  0  0  0  0
    5.9273   -2.4180   -3.6153 H   0  0  0  0  0  0  0  0  0  0  0  0
    6.9863   -3.8569   -3.4000 H   0  0  0  0  0  0  0  0  0  0  0  0
    6.6749   -3.4144   -5.8064 H   0  0  0  0  0  0  0  0  0  0  0  0
    5.8415   -4.9423   -5.3618 H   0  0  0  0  0  0  0  0  0  0  0  0
    4.6051   -2.3316   -5.6019 H   0  0  0  0  0  0  0  0  0  0  0  0
    5.9715   -3.6147   -1.2292 H   0  0  0  0  0  0  0  0  0  0  0  0
    4.3766   -4.4042   -0.9573 H   0  0  0  0  0  0  0  0  0  0  0  0
    4.8241   -1.6214   -2.1777 H   0  0  0  0  0  0  0  0  0  0  0  0
    5.2748   -1.8116    0.2980 H   0  0  0  0  0  0  0  0  0  0  0  0
    3.6157   -2.4655    0.5138 H   0  0  0  0  0  0  0  0  0  0  0  0
    5.5431    0.7561   -0.1390 H   0  0  0  0  0  0  0  0  0  0  0  0
   -0.8366   -0.7059    0.0988 H   0  0  0  0  0  0  0  0  0  0  0  0
    1.8864    3.8933    0.0178 H   0  0  0  0  0  0  0  0  0  0  0  0
    0.1050    3.7923    0.0854 H   0  0  0  0  0  0  0  0  0  0  0  0
    2.4175   -3.0662   -1.4529 H   0  0  0  0  0  0  0  0  0  0  0  0
    4.0257   -3.9573   -3.4169 H   0  0  0  0  0  0  0  0  0  0  0  0
  1  2  1  0  0  0  0
  2 20  1  0  0  0  0
  3  4  1  0  0  0  0
  3 20  1  0  0  0  0
  4  5  1  0  0  0  0
  6  7  1  0  0  0  0
  6 20  1  0  0  0  0
  7  8  1  0  0  0  0
  7 19  1  0  0  0  0
  8  9  1  0  0  0  0
  9 13  1  0  0  0  0
  9 10  1  0  0  0  0
 10 11  2  0  0  0  0
 11 12  1  0  0  0  0
 12 17  2  0  0  0  0
 12 13  1  0  0  0  0
 13 14  2  0  0  0  0
 14 15  1  0  0  0  0
 15 16  2  0  0  0  0
 16 17  1  0  0  0  0
 17 18  1  0  0  0  0
  1 21  1  0  0  0  0
  1 22  1  0  0  0  0
  1 23  1  0  0  0  0
  2 24  1  0  0  0  0
  2 25  1  0  0  0  0
  3 26  1  0  0  0  0
  3 27  1  0  0  0  0
  4 28  1  0  0  0  0
  4 29  1  0  0  0  0
  5 30  1  0  0  0  0
  6 31  1  0  0  0  0
  6 32  1  0  0  0  0
  7 33  1  0  0  0  0
  8 34  1  0  0  0  0
  8 35  1  0  0  0  0
 10 36  1  0  0  0  0
 15 37  1  0  0  0  0
 18 38  1  0  0  0  0
 18 39  1  0  0  0  0
 19 40  1  0  0  0  0
 20 41  1  0  0  0  0
M  CHG  1  20   1
M  END
> <Name>
ZINC05499507

> <reference>
BDB5222

> <quality>
0.793

> <status>
decoy

$$$$
ZINC03888603
  SciTegic06141217593D

 43 44  0  0  0  0            999 V2000
   -4.4325    6.0995    8.4756 C   0  0  0  0  0  0  0  0  0  0  0  0
   -3.5266    5.9288    7.2546 C   0  0  0  0  0  0  0  0  0  0  0  0
   -3.7578    4.5483    6.6369 C   0  0  0  0  0  0  0  0  0  0  0  0
   -2.8519    4.3776    5.4158 C   0  0  0  0  0  0  0  0  0  0  0  0
   -3.0733    3.0557    4.8244 N   0  0  0  0  0  0  0  0  0  0  0  0
   -2.3528    2.6674    3.6883 C   0  0  0  0  0  0  0  0  0  0  0  0
   -1.4294    3.5326    3.1213 C   0  0  0  0  0  0  0  0  0  0  0  0
   -0.7155    3.1452    2.0023 C   0  0  0  0  0  0  0  0  0  0  0  0
   -0.9267    1.9002    1.4394 C   0  0  0  0  0  0  0  0  0  0  0  0
   -1.8455    1.0312    1.9984 C   0  0  0  0  0  0  0  0  0  0  0  0
   -2.5620    1.4094    3.1236 C   0  0  0  0  0  0  0  0  0  0  0  0
   -3.4932    0.5311    3.6911 N   0  0  0  0  0  0  0  0  0  0  0  0
   -0.0172    1.4168    0.0098 S   0  0  0  0  0  0  0  0  0  0  0  0
    0.0021   -0.0041    0.0020 O   0  0  0  0  0  0  0  0  0  0  0  0
    1.1718    2.1948    0.0027 O   0  0  0  0  0  0  0  0  0  0  0  0
   -0.8975    1.8855   -1.3122 N   0  0  0  0  0  0  0  0  0  0  0  0
   -1.9095    1.0708   -2.0004 C   0  0  0  0  0  0  0  0  0  0  0  0
   -2.4438    1.9063   -3.1828 C   0  0  0  0  0  0  0  0  0  0  0  0
   -1.2951    2.9176   -3.4380 C   0  0  0  0  0  0  0  0  0  0  0  0
   -0.7916    3.1863   -1.9978 C   0  0  0  0  0  0  0  0  0  0  0  0
   -4.1988    5.3225    9.2183 H   0  0  0  0  0  0  0  0  0  0  0  0
   -5.4847    6.0076    8.1684 H   0  0  0  0  0  0  0  0  0  0  0  0
   -4.2667    7.0919    8.9202 H   0  0  0  0  0  0  0  0  0  0  0  0
   -3.7612    6.7060    6.5123 H   0  0  0  0  0  0  0  0  0  0  0  0
   -2.4743    6.0207    7.5616 H   0  0  0  0  0  0  0  0  0  0  0  0
   -3.5230    3.7706    7.3786 H   0  0  0  0  0  0  0  0  0  0  0  0
   -4.8095    4.4550    6.3282 H   0  0  0  0  0  0  0  0  0  0  0  0
   -3.0865    5.1547    4.6735 H   0  0  0  0  0  0  0  0  0  0  0  0
   -1.7996    4.4695    5.7228 H   0  0  0  0  0  0  0  0  0  0  0  0
   -3.7590    2.4119    5.2443 H   0  0  0  0  0  0  0  0  0  0  0  0
   -1.2648    4.5271    3.5617 H   0  0  0  0  0  0  0  0  0  0  0  0
    0.0226    3.8296    1.5587 H   0  0  0  0  0  0  0  0  0  0  0  0
   -2.0080    0.0398    1.5504 H   0  0  0  0  0  0  0  0  0  0  0  0
   -4.0243    0.8148    4.5268 H   0  0  0  0  0  0  0  0  0  0  0  0
   -3.6471   -0.3978    3.2735 H   0  0  0  0  0  0  0  0  0  0  0  0
   -2.7332    0.8365   -1.3100 H   0  0  0  0  0  0  0  0  0  0  0  0
   -1.4494    0.1457   -2.3779 H   0  0  0  0  0  0  0  0  0  0  0  0
   -2.5909    1.2670   -4.0658 H   0  0  0  0  0  0  0  0  0  0  0  0
   -3.3611    2.4386   -2.8911 H   0  0  0  0  0  0  0  0  0  0  0  0
   -1.6893    3.8424   -3.8844 H   0  0  0  0  0  0  0  0  0  0  0  0
   -0.5012    2.4521   -4.0406 H   0  0  0  0  0  0  0  0  0  0  0  0
    0.2568    3.5183   -2.0223 H   0  0  0  0  0  0  0  0  0  0  0  0
   -1.4386    3.9275   -1.5058 H   0  0  0  0  0  0  0  0  0  0  0  0
  1  2  1  0  0  0  0
  2  3  1  0  0  0  0
  3  4  1  0  0  0  0
  4  5  1  0  0  0  0
  5  6  1  0  0  0  0
  6 11  2  0  0  0  0
  6  7  1  0  0  0  0
  7  8  2  0  0  0  0
  8  9  1  0  0  0  0
  9 10  2  0  0  0  0
  9 13  1  0  0  0  0
 10 11  1  0  0  0  0
 11 12  1  0  0  0  0
 13 14  2  0  0  0  0
 13 15  2  0  0  0  0
 13 16  1  0  0  0  0
 16 20  1  0  0  0  0
 16 17  1  0  0  0  0
 17 18  1  0  0  0  0
 18 19  1  0  0  0  0
 19 20  1  0  0  0  0
  1 21  1  0  0  0  0
  1 22  1  0  0  0  0
  1 23  1  0  0  0  0
  2 24  1  0  0  0  0
  2 25  1  0  0  0  0
  3 26  1  0  0  0  0
  3 27  1  0  0  0  0
  4 28  1  0  0  0  0
  4 29  1  0  0  0  0
  5 30  1  0  0  0  0
  7 31  1  0  0  0  0
  8 32  1  0  0  0  0
 10 33  1  0  0  0  0
 12 34  1  0  0  0  0
 12 35  1  0  0  0  0
 17 36  1  0  0  0  0
 17 37  1  0  0  0  0
 18 38  1  0  0  0  0
 18 39  1  0  0  0  0
 19 40  1  0  0  0  0
 19 41  1  0  0  0  0
 20 42  1  0  0  0  0
 20 43  1  0  0  0  0
M  END
> <Name>
ZINC03888603

> <reference>
BDB5204

> <quality>
0.748

> <status>
decoy

$$$$
ZINC04998060
  SciTegic06141217593D

 43 44  0  0  0  0            999 V2000
    2.9997   -8.7610    1.1871 C   0  0  0  0  0  0  0  0  0  0  0  0
    2.7752   -8.1063   -0.0631 O   0  0  0  0  0  0  0  0  0  0  0  0
    2.7932   -6.7474   -0.0600 C   0  0  0  0  0  0  0  0  0  0  0  0
    3.0224   -6.0586    1.1230 C   0  0  0  0  0  0  0  0  0  0  0  0
    3.0399   -4.6772    1.1270 C   0  0  0  0  0  0  0  0  0  0  0  0
    2.8298   -3.9778   -0.0463 C   0  0  0  0  0  0  0  0  0  0  0  0
    2.5951   -4.6617   -1.2305 C   0  0  0  0  0  0  0  0  0  0  0  0
    2.5822   -6.0482   -1.2381 C   0  0  0  0  0  0  0  0  0  0  0  0
    2.3831   -3.9734   -2.3829 O   0  0  0  0  0  0  0  0  0  0  0  0
    2.1480   -4.7424   -3.5641 C   0  0  0  0  0  0  0  0  0  0  0  0
    2.8496   -2.4709   -0.0384 C   0  0  0  0  0  0  0  0  0  0  0  0
    1.4513   -0.4944   -0.0145 C   0  0  0  0  0  0  0  0  0  0  0  0
    0.0021   -0.0041    0.0020 C   0  0  0  0  0  0  0  0  0  0  0  0
   -0.0178    1.4608    0.0101 N   0  0  0  0  0  0  0  0  0  0  0  0
   -1.1940    2.1187    0.0192 C   0  0  0  0  0  0  0  0  0  0  0  0
   -2.2380    1.4969    0.0208 O   0  0  0  0  0  0  0  0  0  0  0  0
   -1.2141    3.5998    0.0274 C   0  0  0  0  0  0  0  0  0  0  0  0
   -2.3814    4.5106    0.0379 C   0  0  0  0  0  0  0  0  0  0  0  0
   -1.8178    5.6967    0.0416 N   0  0  0  0  0  0  0  0  0  0  0  0
   -0.6159    5.5714    0.0352 O   0  0  0  0  0  0  0  0  0  0  0  0
   -0.1994    4.4368    0.0329 N   0  0  0  0  0  0  0  0  0  0  0  0
   -3.7322    4.1910    0.0429 N   0  0  0  0  0  0  0  0  0  0  0  0
    1.4625   -1.9694   -0.0224 N   0  3  0  0  0  0  0  0  0  0  0  0
    2.2283   -8.3857    1.8756 H   0  0  0  0  0  0  0  0  0  0  0  0
    3.9763   -8.4081    1.5500 H   0  0  0  0  0  0  0  0  0  0  0  0
    2.9703   -9.8575    1.1045 H   0  0  0  0  0  0  0  0  0  0  0  0
    3.1902   -6.6131    2.0581 H   0  0  0  0  0  0  0  0  0  0  0  0
    3.2214   -4.1331    2.0656 H   0  0  0  0  0  0  0  0  0  0  0  0
    2.4048   -6.5924   -2.1775 H   0  0  0  0  0  0  0  0  0  0  0  0
    1.2758   -5.3778   -3.3509 H   0  0  0  0  0  0  0  0  0  0  0  0
    3.0223   -5.3989   -3.6848 H   0  0  0  0  0  0  0  0  0  0  0  0
    1.9854   -4.1165   -4.4540 H   0  0  0  0  0  0  0  0  0  0  0  0
    3.3790   -2.1149    0.8577 H   0  0  0  0  0  0  0  0  0  0  0  0
    3.3618   -2.1043   -0.9402 H   0  0  0  0  0  0  0  0  0  0  0  0
    1.9562   -0.1187   -0.9166 H   0  0  0  0  0  0  0  0  0  0  0  0
    1.9744   -0.1284    0.8812 H   0  0  0  0  0  0  0  0  0  0  0  0
   -0.5037   -0.3819    0.9028 H   0  0  0  0  0  0  0  0  0  0  0  0
   -0.5199   -0.3724   -0.8934 H   0  0  0  0  0  0  0  0  0  0  0  0
    0.8671    1.9879    0.0088 H   0  0  0  0  0  0  0  0  0  0  0  0
   -3.9146    3.1773    0.0385 H   0  0  0  0  0  0  0  0  0  0  0  0
   -4.4982    4.8796    0.0503 H   0  0  0  0  0  0  0  0  0  0  0  0
    0.9668   -2.3095   -0.8588 H   0  0  0  0  0  0  0  0  0  0  0  0
    0.9821   -2.3182    0.8193 H   0  0  0  0  0  0  0  0  0  0  0  0
  1  2  1  0  0  0  0
  2  3  1  0  0  0  0
  3  8  2  0  0  0  0
  3  4  1  0  0  0  0
  4  5  2  0  0  0  0
  5  6  1  0  0  0  0
  6  7  2  0  0  0  0
  6 11  1  0  0  0  0
  7  8  1  0  0  0  0
  7  9  1  0  0  0  0
  9 10  1  0  0  0  0
 11 23  1  0  0  0  0
 12 13  1  0  0  0  0
 12 23  1  0  0  0  0
 13 14  1  0  0  0  0
 14 15  1  0  0  0  0
 15 16  2  0  0  0  0
 15 17  1  0  0  0  0
 17 21  2  0  0  0  0
 17 18  1  0  0  0  0
 18 19  2  0  0  0  0
 18 22  1  0  0  0  0
 19 20  1  0  0  0  0
 20 21  1  0  0  0  0
  1 24  1  0  0  0  0
  1 25  1  0  0  0  0
  1 26  1  0  0  0  0
  4 27  1  0  0  0  0
  5 28  1  0  0  0  0
  8 29  1  0  0  0  0
 10 30  1  0  0  0  0
 10 31  1  0  0  0  0
 10 32  1  0  0  0  0
 11 33  1  0  0  0  0
 11 34  1  0  0  0  0
 12 35  1  0  0  0  0
 12 36  1  0  0  0  0
 13 37  1  0  0  0  0
 13 38  1  0  0  0  0
 14 39  1  0  0  0  0
 22 40  1  0  0  0  0
 22 41  1  0  0  0  0
 23 42  1  0  0  0  0
 23 43  1  0  0  0  0
M  CHG  1  23   1
M  END
> <Name>
ZINC04998060

> <reference>
BDB5023

> <quality>
0.730

> <status>
decoy

$$$$
ZINC04650528
  SciTegic06141217593D

 44 45  0  0  1  0            999 V2000
    2.5285    4.8871   -1.2525 C   0  0  0  0  0  0  0  0  0  0  0  0
    1.1741    4.2269   -1.2249 C   0  0  0  0  0  0  0  0  0  0  0  0
    0.4575    4.2782   -2.1955 O   0  0  0  0  0  0  0  0  0  0  0  0
    0.7141    3.5027    0.0141 C   0  0  0  0  0  0  0  0  0  0  0  0
   -0.8182    3.3816    0.0281 C   0  0  1  0  0  0  0  0  0  0  0  0
    0.8624    1.1121    0.2658 N   0  0  0  0  0  0  0  0  0  0  0  0
    1.8869    1.6256    0.9578 C   0  0  0  0  0  0  0  0  0  0  0  0
    2.7007    0.9661    1.5710 O   0  0  0  0  0  0  0  0  0  0  0  0
    1.9007    3.1130    0.8711 C   0  0  0  0  0  0  0  0  0  0  0  0
    2.6997    3.8602    1.3832 O   0  0  0  0  0  0  0  0  0  0  0  0
    0.5797   -0.3208    0.1513 C   0  0  0  0  0  0  0  0  0  0  0  0
   -0.3494   -0.7500    1.2886 C   0  0  0  0  0  0  0  0  0  0  0  0
   -1.5240   -2.6355    2.2517 C   0  0  0  0  0  0  0  0  0  0  0  0
   -1.7956   -4.1334    2.0988 C   0  0  0  0  0  0  0  0  0  0  0  0
   -0.5794   -4.8597    2.2869 O   0  0  0  0  0  0  0  0  0  0  0  0
   -1.3749    4.0257    1.2715 C   0  0  0  0  0  0  0  0  0  0  0  0
   -1.3557    3.3398    2.4719 C   0  0  0  0  0  0  0  0  0  0  0  0
   -1.8602    3.9302    3.6143 C   0  0  0  0  0  0  0  0  0  0  0  0
   -2.3967    5.2082    3.5542 C   0  0  0  0  0  0  0  0  0  0  0  0
   -2.4199    5.8922    2.3475 C   0  0  0  0  0  0  0  0  0  0  0  0
   -1.9090    5.2995    1.2090 C   0  0  0  0  0  0  0  0  0  0  0  0
   -2.8983    5.7893    4.6757 O   0  0  0  0  0  0  0  0  0  0  0  0
   -0.6288   -2.1931    1.1660 N   0  3  0  0  0  0  0  0  0  0  0  0
    3.2379    4.0833   -1.0060 H   0  0  0  0  0  0  0  0  0  0  0  0
    2.5210    5.5794   -0.3977 H   0  0  0  0  0  0  0  0  0  0  0  0
    2.7689    5.3883   -2.2017 H   0  0  0  0  0  0  0  0  0  0  0  0
    1.0046    3.9005   -2.9291 H   0  0  0  0  0  0  0  0  0  0  0  0
   -1.6873    3.5914   -0.6127 H   0  0  0  0  0  0  0  0  0  0  0  0
    0.0936   -0.5227   -0.8146 H   0  0  0  0  0  0  0  0  0  0  0  0
    1.5205   -0.8874    0.2138 H   0  0  0  0  0  0  0  0  0  0  0  0
    0.1365   -0.5510    2.2552 H   0  0  0  0  0  0  0  0  0  0  0  0
   -1.2925   -0.1872    1.2264 H   0  0  0  0  0  0  0  0  0  0  0  0
   -2.4729   -2.0821    2.1935 H   0  0  0  0  0  0  0  0  0  0  0  0
   -1.0443   -2.4452    3.2231 H   0  0  0  0  0  0  0  0  0  0  0  0
   -2.5321   -4.4513    2.8515 H   0  0  0  0  0  0  0  0  0  0  0  0
   -2.1901   -4.3347    1.0919 H   0  0  0  0  0  0  0  0  0  0  0  0
   -0.2236   -4.6804    3.1932 H   0  0  0  0  0  0  0  0  0  0  0  0
   -0.9383    2.3231    2.5172 H   0  0  0  0  0  0  0  0  0  0  0  0
   -1.8366    3.3875    4.5708 H   0  0  0  0  0  0  0  0  0  0  0  0
   -2.8447    6.9056    2.2972 H   0  0  0  0  0  0  0  0  0  0  0  0
   -1.9271    5.8414    0.2519 H   0  0  0  0  0  0  0  0  0  0  0  0
   -2.1523    5.7729    5.3264 H   0  0  0  0  0  0  0  0  0  0  0  0
   -1.0776   -2.3780    0.2576 H   0  0  0  0  0  0  0  0  0  0  0  0
    0.2555   -2.7187    1.2182 H   0  0  0  0  0  0  0  0  0  0  0  0
  1  2  1  0  0  0  0
  2  4  2  0  0  0  0
  2  3  1  0  0  0  0
  4  5  1  0  0  0  0
  4  9  1  0  0  0  0
  5  6  1  0  0  0  0
  5 16  1  0  0  0  0
  6  7  1  0  0  0  0
  6 11  1  0  0  0  0
  7  8  2  0  0  0  0
  7  9  1  0  0  0  0
  9 10  2  0  0  0  0
 11 12  1  0  0  0  0
 12 23  1  0  0  0  0
 13 14  1  0  0  0  0
 13 23  1  0  0  0  0
 14 15  1  0  0  0  0
 16 21  2  0  0  0  0
 16 17  1  0  0  0  0
 17 18  2  0  0  0  0
 18 19  1  0  0  0  0
 19 20  2  0  0  0  0
 19 22  1  0  0  0  0
 20 21  1  0  0  0  0
  1 24  1  0  0  0  0
  1 25  1  0  0  0  0
  1 26  1  0  0  0  0
  3 27  1  0  0  0  0
  5 28  1  0  0  0  0
 11 29  1  0  0  0  0
 11 30  1  0  0  0  0
 12 31  1  0  0  0  0
 12 32  1  0  0  0  0
 13 33  1  0  0  0  0
 13 34  1  0  0  0  0
 14 35  1  0  0  0  0
 14 36  1  0  0  0  0
 15 37  1  0  0  0  0
 17 38  1  0  0  0  0
 18 39  1  0  0  0  0
 20 40  1  0  0  0  0
 21 41  1  0  0  0  0
 22 42  1  0  0  0  0
 23 43  1  0  0  0  0
 23 44  1  0  0  0  0
M  CHG  1  23   1
M  END
> <Name>
ZINC04650528

> <reference>
BDB5200

> <quality>
0.817

> <status>
decoy

$$$$
ZINC00016244
  SciTegic06141217593D

 44 45  0  0  1  0            999 V2000
   -0.6952    1.3151    0.3370 C   0  0  0  0  0  0  0  0  0  0  0  0
   -1.2593    1.8317    1.5865 N   0  0  0  0  0  0  0  0  0  0  0  0
   -0.3949    2.0349    2.7516 C   0  0  0  0  0  0  0  0  0  0  0  0
    0.1762    3.4540    2.7217 C   0  0  2  0  0  0  0  0  0  0  0  0
    1.1600    3.6234    3.8506 C   0  0  0  0  0  0  0  0  0  0  0  0
    0.7037    3.8762    5.1313 C   0  0  0  0  0  0  0  0  0  0  0  0
    1.6023    4.0264    6.1692 C   0  0  0  0  0  0  0  0  0  0  0  0
    2.9664    3.9346    5.9234 C   0  0  0  0  0  0  0  0  0  0  0  0
    3.4216    3.6863    4.6347 C   0  0  0  0  0  0  0  0  0  0  0  0
    2.5173    3.5315    3.6025 C   0  0  0  0  0  0  0  0  0  0  0  0
    3.8783    4.0912    6.9698 N   0  0  0  0  0  0  0  0  0  0  0  0
    4.7438    5.4960    7.1106 S   0  0  0  0  0  0  0  0  0  0  0  0
    5.5590    5.3061    8.2588 O   0  0  0  0  0  0  0  0  0  0  0  0
    5.3293    5.6909    5.8306 O   0  0  0  0  0  0  0  0  0  0  0  0
    3.5018    6.7786    7.4313 C   0  0  0  0  0  0  0  0  0  0  0  0
   -0.8861    4.3982    2.8699 O   0  0  0  0  0  0  0  0  0  0  0  0
   -2.6151    2.1291    1.6664 C   0  0  0  0  0  0  0  0  0  0  0  0
   -3.4461    1.8422    0.5920 C   0  0  0  0  0  0  0  0  0  0  0  0
   -4.8016    2.1400    0.6891 C   0  0  0  0  0  0  0  0  0  0  0  0
   -5.2686    2.7292    1.8665 C   0  0  0  0  0  0  0  0  0  0  0  0
   -4.3807    2.9890    2.8868 C   0  0  0  0  0  0  0  0  0  0  0  0
   -5.6699    1.8634   -0.3631 N   0  0  0  0  0  0  0  0  0  0  0  0
   -3.0504    2.7048    2.8263 N   0  3  0  0  0  0  0  0  0  0  0  0
   -0.2181    0.3638    0.6152 H   0  0  0  0  0  0  0  0  0  0  0  0
    0.1129    2.0163    0.0815 H   0  0  0  0  0  0  0  0  0  0  0  0
   -1.4264    1.1988   -0.4765 H   0  0  0  0  0  0  0  0  0  0  0  0
   -0.9810    1.8954    3.6720 H   0  0  0  0  0  0  0  0  0  0  0  0
    0.4303    1.3079    2.7286 H   0  0  0  0  0  0  0  0  0  0  0  0
    0.6864    3.6238    1.7621 H   0  0  0  0  0  0  0  0  0  0  0  0
   -0.3763    3.9578    5.3236 H   0  0  0  0  0  0  0  0  0  0  0  0
    1.2383    4.2185    7.1893 H   0  0  0  0  0  0  0  0  0  0  0  0
    4.5011    3.6131    4.4366 H   0  0  0  0  0  0  0  0  0  0  0  0
    2.8771    3.3349    2.5818 H   0  0  0  0  0  0  0  0  0  0  0  0
    4.0124    3.3329    7.6538 H   0  0  0  0  0  0  0  0  0  0  0  0
    2.9619    6.5937    8.3717 H   0  0  0  0  0  0  0  0  0  0  0  0
    2.7939    6.8753    6.5949 H   0  0  0  0  0  0  0  0  0  0  0  0
    4.0293    7.7384    7.5335 H   0  0  0  0  0  0  0  0  0  0  0  0
   -1.3458    4.2463    3.7335 H   0  0  0  0  0  0  0  0  0  0  0  0
   -3.0389    1.3862   -0.3225 H   0  0  0  0  0  0  0  0  0  0  0  0
   -6.3332    2.9827    1.9774 H   0  0  0  0  0  0  0  0  0  0  0  0
   -4.7693    3.4536    3.8050 H   0  0  0  0  0  0  0  0  0  0  0  0
   -5.3011    1.4328   -1.2230 H   0  0  0  0  0  0  0  0  0  0  0  0
   -6.6723    2.0865   -0.2844 H   0  0  0  0  0  0  0  0  0  0  0  0
   -2.4114    2.9113    3.6073 H   0  0  0  0  0  0  0  0  0  0  0  0
  1  2  1  0  0  0  0
  2  3  1  0  0  0  0
  2 17  1  0  0  0  0
  3  4  1  0  0  0  0
  4  5  1  0  0  0  0
  4 16  1  0  0  0  0
  5 10  2  0  0  0  0
  5  6  1  0  0  0  0
  6  7  2  0  0  0  0
  7  8  1  0  0  0  0
  8  9  2  0  0  0  0
  8 11  1  0  0  0  0
  9 10  1  0  0  0  0
 11 12  1  0  0  0  0
 12 13  2  0  0  0  0
 12 14  2  0  0  0  0
 12 15  1  0  0  0  0
 17 18  2  0  0  0  0
 17 23  1  0  0  0  0
 18 19  1  0  0  0  0
 19 20  2  0  0  0  0
 19 22  1  0  0  0  0
 20 21  1  0  0  0  0
 21 23  2  0  0  0  0
  1 24  1  0  0  0  0
  1 25  1  0  0  0  0
  1 26  1  0  0  0  0
  3 27  1  0  0  0  0
  3 28  1  0  0  0  0
  4 29  1  0  0  0  0
  6 30  1  0  0  0  0
  7 31  1  0  0  0  0
  9 32  1  0  0  0  0
 10 33  1  0  0  0  0
 11 34  1  0  0  0  0
 15 35  1  0  0  0  0
 15 36  1  0  0  0  0
 15 37  1  0  0  0  0
 16 38  1  0  0  0  0
 18 39  1  0  0  0  0
 20 40  1  0  0  0  0
 21 41  1  0  0  0  0
 22 42  1  0  0  0  0
 22 43  1  0  0  0  0
 23 44  1  0  0  0  0
M  CHG  1  23   1
M  END
> <Name>
ZINC00016244

> <reference>
BDB5200

> <quality>
0.766

> <status>
decoy

$$$$
ZINC22450082
  SciTegic06141217593D

 37 38  0  0  1  0            999 V2000
   -1.2239    9.7041   -2.8892 C   0  0  0  0  0  0  0  0  0  0  0  0
   -0.1527    8.9277   -3.1929 C   0  0  0  0  0  0  0  0  0  0  0  0
   -0.5091    8.5289   -4.8980 S   0  0  0  0  0  0  0  0  0  0  0  0
   -1.9969    9.4150   -5.0293 C   0  0  0  0  0  0  0  0  0  0  0  0
   -2.1191    9.9303   -3.8279 N   0  0  0  0  0  0  0  0  0  0  0  0
    1.0107    8.5120   -2.3298 C   0  0  0  0  0  0  0  0  0  0  0  0
    0.6858    7.2596   -1.6425 N   0  0  0  0  0  0  0  0  0  0  0  0
    0.9267    5.9937   -2.1042 C   0  0  0  0  0  0  0  0  0  0  0  0
    0.4729    5.1432   -1.1638 C   0  0  0  0  0  0  0  0  0  0  0  0
   -0.0357    5.8699   -0.1577 N   0  0  0  0  0  0  0  0  0  0  0  0
    0.0929    7.1385   -0.4353 C   0  0  0  0  0  0  0  0  0  0  0  0
    0.5222    3.6385   -1.2327 C   0  0  0  0  0  0  0  0  0  0  0  0
    1.2350    3.0943    0.0069 C   0  0  1  0  0  0  0  0  0  0  0  0
    1.1765    1.5884   -0.0006 C   0  0  0  0  0  0  0  0  0  0  0  0
    2.1986    0.9442   -0.0139 O   0  0  0  0  0  0  0  0  0  0  0  0
   -0.0110    0.9628    0.0073 O   0  5  0  0  0  0  0  0  0  0  0  0
    2.6378    3.5299   -0.0042 N   0  3  0  0  0  0  0  0  0  0  0  0
    3.1891    3.5646    1.3570 C   0  0  0  0  0  0  0  0  0  0  0  0
    4.6482    4.0217    1.3049 C   0  0  0  0  0  0  0  0  0  0  0  0
    5.1995    4.0564    2.6661 N   0  0  0  0  0  0  0  0  0  0  0  0
   -1.3412   10.1338   -1.8834 H   0  0  0  0  0  0  0  0  0  0  0  0
   -2.6655    9.5181   -5.8967 H   0  0  0  0  0  0  0  0  0  0  0  0
    1.9002    8.3639   -2.9597 H   0  0  0  0  0  0  0  0  0  0  0  0
    1.2149    9.2957   -1.5854 H   0  0  0  0  0  0  0  0  0  0  0  0
    1.3999    5.7231   -3.0596 H   0  0  0  0  0  0  0  0  0  0  0  0
   -0.2284    7.9712    0.2076 H   0  0  0  0  0  0  0  0  0  0  0  0
    1.0701    3.3294   -2.1351 H   0  0  0  0  0  0  0  0  0  0  0  0
   -0.5021    3.2393   -1.2708 H   0  0  0  0  0  0  0  0  0  0  0  0
    0.7397    3.4760    0.9119 H   0  0  0  0  0  0  0  0  0  0  0  0
    3.1915    2.8777   -0.5778 H   0  0  0  0  0  0  0  0  0  0  0  0
    2.6990    4.4708   -0.4187 H   0  0  0  0  0  0  0  0  0  0  0  0
    2.6069    4.2677    1.9707 H   0  0  0  0  0  0  0  0  0  0  0  0
    3.1362    2.5596    1.8010 H   0  0  0  0  0  0  0  0  0  0  0  0
    4.7030    5.0272    0.8622 H   0  0  0  0  0  0  0  0  0  0  0  0
    5.2311    3.3188    0.6916 H   0  0  0  0  0  0  0  0  0  0  0  0
    5.1499    3.1153    3.0817 H   0  0  0  0  0  0  0  0  0  0  0  0
    4.6547    4.7144    3.2415 H   0  0  0  0  0  0  0  0  0  0  0  0
  1  5  1  0  0  0  0
  1  2  2  0  0  0  0
  2  3  1  0  0  0  0
  2  6  1  0  0  0  0
  3  4  1  0  0  0  0
  4  5  2  0  0  0  0
  6  7  1  0  0  0  0
  7 11  1  0  0  0  0
  7  8  1  0  0  0  0
  8  9  2  0  0  0  0
  9 10  1  0  0  0  0
  9 12  1  0  0  0  0
 10 11  2  0  0  0  0
 12 13  1  0  0  0  0
 13 14  1  0  0  0  0
 13 17  1  0  0  0  0
 14 15  2  0  0  0  0
 14 16  1  0  0  0  0
 17 18  1  0  0  0  0
 18 19  1  0  0  0  0
 19 20  1  0  0  0  0
  1 21  1  0  0  0  0
  4 22  1  0  0  0  0
  6 23  1  0  0  0  0
  6 24  1  0  0  0  0
  8 25  1  0  0  0  0
 11 26  1  0  0  0  0
 12 27  1  0  0  0  0
 12 28  1  0  0  0  0
 13 29  1  0  0  0  0
 17 30  1  0  0  0  0
 17 31  1  0  0  0  0
 18 32  1  0  0  0  0
 18 33  1  0  0  0  0
 19 34  1  0  0  0  0
 19 35  1  0  0  0  0
 20 36  1  0  0  0  0
 20 37  1  0  0  0  0
M  CHG  2  16  -1  17   1
M  END
> <Name>
ZINC22450082

> <reference>
BDB5021

> <quality>
0.714

> <status>
decoy

$$$$
ZINC29574719
  SciTegic06141217593D

 45 45  0  0  1  0            999 V2000
    4.3514    5.8000   10.2714 C   0  0  0  0  0  0  0  0  0  0  0  0
    2.8386    5.7176   10.0580 C   0  0  2  0  0  0  0  0  0  0  0  0
    2.2145    7.0944   10.2942 C   0  0  0  0  0  0  0  0  0  0  0  0
    2.2390    4.7103   11.0412 C   0  0  0  0  0  0  0  0  0  0  0  0
    2.5540    5.2724    8.6467 C   0  0  0  0  0  0  0  0  0  0  0  0
    3.4708    5.0436    7.8864 O   0  0  0  0  0  0  0  0  0  0  0  0
    1.2806    5.1285    8.2293 N   0  0  0  0  0  0  0  0  0  0  0  0
    1.0038    4.6958    6.8573 C   0  0  0  0  0  0  0  0  0  0  0  0
   -0.4862    4.6145    6.6471 C   0  0  0  0  0  0  0  0  0  0  0  0
   -1.2425    4.8909    7.5540 O   0  0  0  0  0  0  0  0  0  0  0  0
   -0.9783    4.2348    5.4512 N   0  0  0  0  0  0  0  0  0  0  0  0
   -2.3636    4.1593    5.2558 N   0  0  0  0  0  0  0  0  0  0  0  0
   -2.8557    3.7795    4.0600 C   0  0  0  0  0  0  0  0  0  0  0  0
   -4.5485    3.6872    3.8211 S   0  0  0  0  0  0  0  0  0  0  0  0
   -2.0152    3.4723    3.0521 N   0  0  0  0  0  0  0  0  0  0  0  0
   -2.5502    3.0595    1.7523 C   0  0  0  0  0  0  0  0  0  0  0  0
   -1.3936    2.7709    0.7932 C   0  0  2  0  0  0  0  0  0  0  0  0
   -1.9281    2.4530   -0.6265 C   0  0  0  0  0  0  0  0  0  0  0  0
   -0.7781    1.6063   -1.2241 C   0  0  0  0  0  0  0  0  0  0  0  0
   -0.0127    1.0858    0.0080 C   0  0  0  0  0  0  0  0  0  0  0  0
   -0.7045    1.5588    1.1759 O   0  0  0  0  0  0  0  0  0  0  0  0
    4.5603    6.1246   11.3014 H   0  0  0  0  0  0  0  0  0  0  0  0
    4.7836    6.5238    9.5647 H   0  0  0  0  0  0  0  0  0  0  0  0
    4.8008    4.8104   10.1017 H   0  0  0  0  0  0  0  0  0  0  0  0
    2.6448    7.8193    9.5875 H   0  0  0  0  0  0  0  0  0  0  0  0
    2.4215    7.4202   11.3243 H   0  0  0  0  0  0  0  0  0  0  0  0
    1.1268    7.0359   10.1409 H   0  0  0  0  0  0  0  0  0  0  0  0
    2.4461    5.0344   12.0718 H   0  0  0  0  0  0  0  0  0  0  0  0
    2.6869    3.7200   10.8720 H   0  0  0  0  0  0  0  0  0  0  0  0
    1.1513    4.6506   10.8883 H   0  0  0  0  0  0  0  0  0  0  0  0
    0.5020    5.3228    8.8750 H   0  0  0  0  0  0  0  0  0  0  0  0
    1.4520    3.7059    6.6864 H   0  0  0  0  0  0  0  0  0  0  0  0
    1.4343    5.4203    6.1503 H   0  0  0  0  0  0  0  0  0  0  0  0
   -0.3360    4.0001    4.6810 H   0  0  0  0  0  0  0  0  0  0  0  0
   -3.0059    4.3941    6.0260 H   0  0  0  0  0  0  0  0  0  0  0  0
   -0.9968    3.5278    3.1958 H   0  0  0  0  0  0  0  0  0  0  0  0
   -3.1757    3.8647    1.3395 H   0  0  0  0  0  0  0  0  0  0  0  0
   -3.1575    2.1509    1.8774 H   0  0  0  0  0  0  0  0  0  0  0  0
   -0.7451    3.6590    0.8186 H   0  0  0  0  0  0  0  0  0  0  0  0
   -2.0591    3.3803   -1.2035 H   0  0  0  0  0  0  0  0  0  0  0  0
   -2.8495    1.8555   -0.5634 H   0  0  0  0  0  0  0  0  0  0  0  0
   -0.1203    2.2392   -1.8380 H   0  0  0  0  0  0  0  0  0  0  0  0
   -1.1883    0.7626   -1.7986 H   0  0  0  0  0  0  0  0  0  0  0  0
   -0.0030   -0.0141    0.0015 H   0  0  0  0  0  0  0  0  0  0  0  0
    1.0150    1.4778    0.0005 H   0  0  0  0  0  0  0  0  0  0  0  0
  1  2  1  0  0  0  0
  2  3  1  0  0  0  0
  2  4  1  0  0  0  0
  2  5  1  0  0  0  0
  5  6  2  0  0  0  0
  5  7  1  0  0  0  0
  7  8  1  0  0  0  0
  8  9  1  0  0  0  0
  9 10  2  0  0  0  0
  9 11  1  0  0  0  0
 11 12  1  0  0  0  0
 12 13  1  0  0  0  0
 13 14  2  0  0  0  0
 13 15  1  0  0  0  0
 15 16  1  0  0  0  0
 16 17  1  0  0  0  0
 17 21  1  0  0  0  0
 17 18  1  0  0  0  0
 18 19  1  0  0  0  0
 19 20  1  0  0  0  0
 20 21  1  0  0  0  0
  1 22  1  0  0  0  0
  1 23  1  0  0  0  0
  1 24  1  0  0  0  0
  3 25  1  0  0  0  0
  3 26  1  0  0  0  0
  3 27  1  0  0  0  0
  4 28  1  0  0  0  0
  4 29  1  0  0  0  0
  4 30  1  0  0  0  0
  7 31  1  0  0  0  0
  8 32  1  0  0  0  0
  8 33  1  0  0  0  0
 11 34  1  0  0  0  0
 12 35  1  0  0  0  0
 15 36  1  0  0  0  0
 16 37  1  0  0  0  0
 16 38  1  0  0  0  0
 17 39  1  0  0  0  0
 18 40  1  0  0  0  0
 18 41  1  0  0  0  0
 19 42  1  0  0  0  0
 19 43  1  0  0  0  0
 20 44  1  0  0  0  0
 20 45  1  0  0  0  0
M  END
> <Name>
ZINC29574719

> <reference>
BDB5025

> <quality>
0.725

> <status>
decoy

$$$$
ZINC06413685
  SciTegic06141217593D

 35 36  0  0  0  0            999 V2000
   -1.5779    4.8069    2.7114 C   0  0  0  0  0  0  0  0  0  0  0  0
   -1.4537    3.3601    2.5172 N   0  0  0  0  0  0  0  0  0  0  0  0
   -1.9763    2.4877    3.4586 C   0  0  0  0  0  0  0  0  0  0  0  0
   -1.8440    1.1188    3.2498 C   0  0  0  0  0  0  0  0  0  0  0  0
   -1.1868    0.6611    2.0946 C   0  0  0  0  0  0  0  0  0  0  0  0
   -1.0591   -0.5338    1.8914 O   0  0  0  0  0  0  0  0  0  0  0  0
   -0.6984    1.5583    1.2133 N   0  0  0  0  0  0  0  0  0  0  0  0
   -0.8266    2.8791    1.4271 C   0  0  0  0  0  0  0  0  0  0  0  0
   -0.3692    3.6588    0.6137 O   0  0  0  0  0  0  0  0  0  0  0  0
   -0.0127    1.0858    0.0080 C   0  0  0  0  0  0  0  0  0  0  0  0
   -2.4495    0.4974    4.3341 N   0  5  0  0  0  0  0  0  0  0  0  0
   -2.9159    1.4875    5.1422 C   0  0  0  0  0  0  0  0  0  0  0  0
   -2.6277    2.6586    4.6096 N   0  0  0  0  0  0  0  0  0  0  0  0
   -3.7712    1.2429    6.6632 S   0  0  0  0  0  0  0  0  0  0  0  0
   -4.0584    2.9644    7.1426 C   0  0  0  0  0  0  0  0  0  0  0  0
   -4.7987    3.0036    8.4547 C   0  0  0  0  0  0  0  0  0  0  0  0
   -5.1021    1.9695    9.0109 O   0  0  0  0  0  0  0  0  0  0  0  0
   -5.1235    4.1879    9.0100 N   0  0  0  0  0  0  0  0  0  0  0  0
   -5.8431    4.2261   10.2855 C   0  0  0  0  0  0  0  0  0  0  0  0
   -6.0859    5.6813   10.6908 C   0  0  0  0  0  0  0  0  0  0  0  0
   -6.9604    6.2996    9.7448 O   0  0  0  0  0  0  0  0  0  0  0  0
   -2.0849    5.1752    1.8074 H   0  0  0  0  0  0  0  0  0  0  0  0
   -0.5468    5.1894    2.6860 H   0  0  0  0  0  0  0  0  0  0  0  0
   -2.1073    5.0886    3.6336 H   0  0  0  0  0  0  0  0  0  0  0  0
   -0.7365    0.4320   -0.5006 H   0  0  0  0  0  0  0  0  0  0  0  0
    0.8068    0.4481    0.3711 H   0  0  0  0  0  0  0  0  0  0  0  0
    0.3464    1.8967   -0.6428 H   0  0  0  0  0  0  0  0  0  0  0  0
   -4.6580    3.4664    6.3690 H   0  0  0  0  0  0  0  0  0  0  0  0
   -3.0932    3.4808    7.2512 H   0  0  0  0  0  0  0  0  0  0  0  0
   -4.8658    5.0661    8.5376 H   0  0  0  0  0  0  0  0  0  0  0  0
   -5.2444    3.7254   11.0607 H   0  0  0  0  0  0  0  0  0  0  0  0
   -6.8086    3.7102   10.1776 H   0  0  0  0  0  0  0  0  0  0  0  0
   -6.5461    5.7120   11.6894 H   0  0  0  0  0  0  0  0  0  0  0  0
   -5.1282    6.2220   10.7116 H   0  0  0  0  0  0  0  0  0  0  0  0
   -7.8233    5.8147    9.7256 H   0  0  0  0  0  0  0  0  0  0  0  0
  1  2  1  0  0  0  0
  2  8  1  0  0  0  0
  2  3  1  0  0  0  0
  3 13  1  0  0  0  0
  3  4  2  0  0  0  0
  4  5  1  0  0  0  0
  4 11  1  0  0  0  0
  5  6  2  0  0  0  0
  5  7  1  0  0  0  0
  7  8  1  0  0  0  0
  7 10  1  0  0  0  0
  8  9  2  0  0  0  0
 11 12  1  0  0  0  0
 12 13  2  0  0  0  0
 12 14  1  0  0  0  0
 14 15  1  0  0  0  0
 15 16  1  0  0  0  0
 16 17  2  0  0  0  0
 16 18  1  0  0  0  0
 18 19  1  0  0  0  0
 19 20  1  0  0  0  0
 20 21  1  0  0  0  0
  1 22  1  0  0  0  0
  1 23  1  0  0  0  0
  1 24  1  0  0  0  0
 10 25  1  0  0  0  0
 10 26  1  0  0  0  0
 10 27  1  0  0  0  0
 15 28  1  0  0  0  0
 15 29  1  0  0  0  0
 18 30  1  0  0  0  0
 19 31  1  0  0  0  0
 19 32  1  0  0  0  0
 20 33  1  0  0  0  0
 20 34  1  0  0  0  0
 21 35  1  0  0  0  0
M  CHG  1  11  -1
M  END
> <Name>
ZINC06413685

> <reference>
BDB4932

> <quality>
0.694

> <status>
decoy

$$$$
ZINC04340004
  SciTegic06141217593D

 41 42  0  0  1  0            999 V2000
    1.4448    0.5050    7.2521 C   0  0  0  0  0  0  0  0  0  0  0  0
    1.7615   -0.3844    8.4574 C   0  0  0  0  0  0  0  0  0  0  0  0
    3.0458   -0.0323    8.9789 O   0  0  0  0  0  0  0  0  0  0  0  0
    4.1077   -0.1613    8.0297 C   0  0  0  0  0  0  0  0  0  0  0  0
    3.8148    0.7304    6.8201 C   0  0  0  0  0  0  0  0  0  0  0  0
    2.2166    1.1566    5.0506 C   0  0  0  0  0  0  0  0  0  0  0  0
    0.9855    0.5820    4.3470 C   0  0  0  0  0  0  0  0  0  0  0  0
    0.6789    1.4104    3.0977 C   0  0  0  0  0  0  0  0  0  0  0  0
   -0.8280    1.6307    1.2154 C   0  0  1  0  0  0  0  0  0  0  0  0
   -0.0127    1.0858    0.0080 C   0  0  0  0  0  0  0  0  0  0  0  0
   -1.0056    1.7465   -1.3965 S   0  0  0  0  0  0  0  0  0  0  0  0
   -0.4740    3.0052   -1.7866 O   0  0  0  0  0  0  0  0  0  0  0  0
   -1.1672    0.7238   -2.3697 O   0  0  0  0  0  0  0  0  0  0  0  0
   -2.6090    2.0146   -0.5366 C   0  0  0  0  0  0  0  0  0  0  0  0
   -2.3242    1.4810    0.8880 C   0  0  1  0  0  0  0  0  0  0  0  0
   -2.6896    0.1013    0.9597 O   0  0  0  0  0  0  0  0  0  0  0  0
    2.5121    0.3348    6.2442 N   0  0  0  0  0  0  0  0  0  0  0  0
   -0.5087    0.8502    2.4257 N   0  3  0  0  0  0  0  0  0  0  0  0
    0.4784    0.2080    6.8187 H   0  0  0  0  0  0  0  0  0  0  0  0
    1.4033    1.5572    7.5700 H   0  0  0  0  0  0  0  0  0  0  0  0
    0.9970   -0.2361    9.2342 H   0  0  0  0  0  0  0  0  0  0  0  0
    1.7694   -1.4390    8.1449 H   0  0  0  0  0  0  0  0  0  0  0  0
    5.0552    0.1500    8.4938 H   0  0  0  0  0  0  0  0  0  0  0  0
    4.1843   -1.2088    7.7027 H   0  0  0  0  0  0  0  0  0  0  0  0
    4.6050    0.6013    6.0658 H   0  0  0  0  0  0  0  0  0  0  0  0
    3.7721    1.7822    7.1393 H   0  0  0  0  0  0  0  0  0  0  0  0
    3.0769    1.1328    4.3655 H   0  0  0  0  0  0  0  0  0  0  0  0
    2.0155    2.1932    5.3587 H   0  0  0  0  0  0  0  0  0  0  0  0
    1.1825   -0.4603    4.0559 H   0  0  0  0  0  0  0  0  0  0  0  0
    0.1231    0.6155    5.0290 H   0  0  0  0  0  0  0  0  0  0  0  0
    0.4792    2.4526    3.3876 H   0  0  0  0  0  0  0  0  0  0  0  0
    1.5386    1.3758    2.4124 H   0  0  0  0  0  0  0  0  0  0  0  0
   -0.5777    2.6862    1.3975 H   0  0  0  0  0  0  0  0  0  0  0  0
   -0.0248   -0.0140   -0.0089 H   0  0  0  0  0  0  0  0  0  0  0  0
    0.9977    1.5203   -0.0097 H   0  0  0  0  0  0  0  0  0  0  0  0
   -3.3981    1.4200   -1.0201 H   0  0  0  0  0  0  0  0  0  0  0  0
   -2.8424    3.0891   -0.5062 H   0  0  0  0  0  0  0  0  0  0  0  0
   -2.9130    2.0597    1.6150 H   0  0  0  0  0  0  0  0  0  0  0  0
   -2.5165   -0.2406    1.8725 H   0  0  0  0  0  0  0  0  0  0  0  0
   -0.3219   -0.1276    2.1612 H   0  0  0  0  0  0  0  0  0  0  0  0
   -1.3116    0.8776    3.0703 H   0  0  0  0  0  0  0  0  0  0  0  0
  1  2  1  0  0  0  0
  1 17  1  0  0  0  0
  2  3  1  0  0  0  0
  3  4  1  0  0  0  0
  4  5  1  0  0  0  0
  5 17  1  0  0  0  0
  6  7  1  0  0  0  0
  6 17  1  0  0  0  0
  7  8  1  0  0  0  0
  8 18  1  0  0  0  0
  9 15  1  0  0  0  0
  9 10  1  0  0  0  0
  9 18  1  0  0  0  0
 10 11  1  0  0  0  0
 11 12  2  0  0  0  0
 11 13  2  0  0  0  0
 11 14  1  0  0  0  0
 14 15  1  0  0  0  0
 15 16  1  0  0  0  0
  1 19  1  0  0  0  0
  1 20  1  0  0  0  0
  2 21  1  0  0  0  0
  2 22  1  0  0  0  0
  4 23  1  0  0  0  0
  4 24  1  0  0  0  0
  5 25  1  0  0  0  0
  5 26  1  0  0  0  0
  6 27  1  0  0  0  0
  6 28  1  0  0  0  0
  7 29  1  0  0  0  0
  7 30  1  0  0  0  0
  8 31  1  0  0  0  0
  8 32  1  0  0  0  0
  9 33  1  0  0  0  0
 10 34  1  0  0  0  0
 10 35  1  0  0  0  0
 14 36  1  0  0  0  0
 14 37  1  0  0  0  0
 15 38  1  0  0  0  0
 16 39  1  0  0  0  0
 18 40  1  0  0  0  0
 18 41  1  0  0  0  0
M  CHG  1  18   1
M  END
> <Name>
ZINC04340004

> <reference>
BDB4983

> <quality>
0.803

> <status>
decoy

$$$$
ZINC24983928
  SciTegic06141217593D

 39 40  0  0  0  0            999 V2000
    7.0698    9.9649    2.4216 C   0  0  0  0  0  0  0  0  0  0  0  0
    7.4533   11.0898    1.5649 N   0  0  0  0  0  0  0  0  0  0  0  0
    6.9497   11.1390   -0.0119 S   0  0  0  0  0  0  0  0  0  0  0  0
    7.2433    9.8664   -0.5719 O   0  0  0  0  0  0  0  0  0  0  0  0
    7.4545   12.3481   -0.5619 O   0  0  0  0  0  0  0  0  0  0  0  0
    5.1942   11.2883    0.0063 C   0  0  0  0  0  0  0  0  0  0  0  0
    4.5032   12.4496    0.0184 C   0  0  0  0  0  0  0  0  0  0  0  0
    3.1392   12.1186    0.0254 C   0  0  0  0  0  0  0  0  0  0  0  0
    3.0661   10.7551    0.0252 C   0  0  0  0  0  0  0  0  0  0  0  0
    4.3248   10.2696    0.0105 O   0  0  0  0  0  0  0  0  0  0  0  0
    1.8350    9.9581    0.0331 C   0  0  0  0  0  0  0  0  0  0  0  0
    0.7516   10.5121    0.0460 O   0  0  0  0  0  0  0  0  0  0  0  0
    1.9036    8.6121    0.0262 N   0  0  0  0  0  0  0  0  0  0  0  0
    0.6739    7.8159    0.0342 C   0  0  0  0  0  0  0  0  0  0  0  0
    1.0296    6.3279    0.0238 C   0  0  0  0  0  0  0  0  0  0  0  0
   -0.2001    5.5317    0.0318 N   0  0  0  0  0  0  0  0  0  0  0  0
   -0.1296    4.1477    0.0246 C   0  0  0  0  0  0  0  0  0  0  0  0
    1.1163    3.5234    0.0098 C   0  0  0  0  0  0  0  0  0  0  0  0
    1.1824    2.1561    0.0023 C   0  0  0  0  0  0  0  0  0  0  0  0
   -0.0173    1.4278    0.0099 C   0  0  0  0  0  0  0  0  0  0  0  0
   -1.2297    2.1194    0.0193 C   0  0  0  0  0  0  0  0  0  0  0  0
   -1.2482    3.4363    0.0315 N   0  0  0  0  0  0  0  0  0  0  0  0
    0.0021   -0.0041    0.0020 C   0  0  0  0  0  0  0  0  0  0  0  0
    0.0175   -1.1399   -0.0042 N   0  0  0  0  0  0  0  0  0  0  0  0
    7.4236    9.0745    1.8812 H   0  0  0  0  0  0  0  0  0  0  0  0
    5.9711    9.9437    2.3722 H   0  0  0  0  0  0  0  0  0  0  0  0
    7.4489   10.0158    3.4529 H   0  0  0  0  0  0  0  0  0  0  0  0
    8.0361   11.8500    1.9433 H   0  0  0  0  0  0  0  0  0  0  0  0
    4.9295   13.4636    0.0221 H   0  0  0  0  0  0  0  0  0  0  0  0
    2.2930   12.8215    0.0301 H   0  0  0  0  0  0  0  0  0  0  0  0
    2.8206    8.1432    0.0153 H   0  0  0  0  0  0  0  0  0  0  0  0
    0.0931    8.0472    0.9393 H   0  0  0  0  0  0  0  0  0  0  0  0
    0.0750    8.0552   -0.8569 H   0  0  0  0  0  0  0  0  0  0  0  0
    1.6101    6.0959   -0.8813 H   0  0  0  0  0  0  0  0  0  0  0  0
    1.6276    6.0865    0.9149 H   0  0  0  0  0  0  0  0  0  0  0  0
   -1.1171    6.0006    0.0428 H   0  0  0  0  0  0  0  0  0  0  0  0
    2.0380    4.1238    0.0042 H   0  0  0  0  0  0  0  0  0  0  0  0
    2.1537    1.6400   -0.0094 H   0  0  0  0  0  0  0  0  0  0  0  0
   -2.1770    1.5603    0.0165 H   0  0  0  0  0  0  0  0  0  0  0  0
  1  2  1  0  0  0  0
  2  3  1  0  0  0  0
  3  4  2  0  0  0  0
  3  5  2  0  0  0  0
  3  6  1  0  0  0  0
  6 10  1  0  0  0  0
  6  7  2  0  0  0  0
  7  8  1  0  0  0  0
  8  9  2  0  0  0  0
  9 10  1  0  0  0  0
  9 11  1  0  0  0  0
 11 12  2  0  0  0  0
 11 13  1  0  0  0  0
 13 14  1  0  0  0  0
 14 15  1  0  0  0  0
 15 16  1  0  0  0  0
 16 17  1  0  0  0  0
 17 22  2  0  0  0  0
 17 18  1  0  0  0  0
 18 19  2  0  0  0  0
 19 20  1  0  0  0  0
 20 21  2  0  0  0  0
 20 23  1  0  0  0  0
 21 22  1  0  0  0  0
 23 24  3  0  0  0  0
  1 25  1  0  0  0  0
  1 26  1  0  0  0  0
  1 27  1  0  0  0  0
  2 28  1  0  0  0  0
  7 29  1  0  0  0  0
  8 30  1  0  0  0  0
 13 31  1  0  0  0  0
 14 32  1  0  0  0  0
 14 33  1  0  0  0  0
 15 34  1  0  0  0  0
 15 35  1  0  0  0  0
 16 36  1  0  0  0  0
 18 37  1  0  0  0  0
 19 38  1  0  0  0  0
 21 39  1  0  0  0  0
M  END
> <Name>
ZINC24983928

> <reference>
BDB4942

> <quality>
0.626

> <status>
decoy

$$$$
ZINC25133930
  SciTegic06141217593D

 49 50  0  0  0  0            999 V2000
    3.9237    2.3736    1.7021 C   0  0  0  0  0  0  0  0  0  0  0  0
    3.4622    3.7356    1.4220 N   0  0  0  0  0  0  0  0  0  0  0  0
    2.6867    4.0706   -0.0023 S   0  0  0  0  0  0  0  0  0  0  0  0
    3.4813    3.5106   -1.0388 O   0  0  0  0  0  0  0  0  0  0  0  0
    2.3457    5.4496    0.0356 O   0  0  0  0  0  0  0  0  0  0  0  0
    1.1688    3.1760    0.0080 C   0  0  0  0  0  0  0  0  0  0  0  0
   -0.0294    3.8547    0.0230 C   0  0  0  0  0  0  0  0  0  0  0  0
   -1.2325    3.1444    0.0307 C   0  0  0  0  0  0  0  0  0  0  0  0
   -1.2147    1.7470    0.0173 C   0  0  0  0  0  0  0  0  0  0  0  0
   -0.0126    1.0758    0.0080 C   0  0  0  0  0  0  0  0  0  0  0  0
    1.1823    1.7863    0.0004 C   0  0  0  0  0  0  0  0  0  0  0  0
    2.3651    1.1211   -0.0150 O   0  0  0  0  0  0  0  0  0  0  0  0
    2.3064   -0.3067   -0.0225 C   0  0  0  0  0  0  0  0  0  0  0  0
   -2.5189    3.8679    0.0469 C   0  0  0  0  0  0  0  0  0  0  0  0
   -2.5326    5.0836    0.0536 O   0  0  0  0  0  0  0  0  0  0  0  0
   -3.6784    3.1809    0.0543 N   0  0  0  0  0  0  0  0  0  0  0  0
   -4.9552    3.8990    0.0704 C   0  0  0  0  0  0  0  0  0  0  0  0
   -6.1068    2.8917    0.0759 C   0  0  0  0  0  0  0  0  0  0  0  0
   -7.3837    3.6098    0.0920 N   0  0  0  0  0  0  0  0  0  0  0  0
   -8.7879    2.8102   -0.2701 S   0  0  0  0  0  0  0  0  0  0  0  0
   -9.8391    3.7580   -0.1436 O   0  0  0  0  0  0  0  0  0  0  0  0
   -8.5487    2.0940   -1.4738 O   0  0  0  0  0  0  0  0  0  0  0  0
   -9.0415    1.6057    0.9906 C   0  0  0  0  0  0  0  0  0  0  0  0
   -8.5255    0.3315    0.8430 C   0  0  0  0  0  0  0  0  0  0  0  0
   -8.7199   -0.6125    1.8338 C   0  0  0  0  0  0  0  0  0  0  0  0
   -9.4395   -0.2863    2.9681 C   0  0  0  0  0  0  0  0  0  0  0  0
   -9.9605    0.9868    3.1139 C   0  0  0  0  0  0  0  0  0  0  0  0
   -9.7611    1.9330    2.1242 C   0  0  0  0  0  0  0  0  0  0  0  0
  -10.8648    1.3971    4.5379 Cl  0  0  0  0  0  0  0  0  0  0  0  0
    4.5700    2.1212    0.8485 H   0  0  0  0  0  0  0  0  0  0  0  0
    3.0214    1.7520    1.6048 H   0  0  0  0  0  0  0  0  0  0  0  0
    4.4279    2.2438    2.6711 H   0  0  0  0  0  0  0  0  0  0  0  0
    3.6201    4.4848    2.1110 H   0  0  0  0  0  0  0  0  0  0  0  0
   -0.0392    4.9546    0.0289 H   0  0  0  0  0  0  0  0  0  0  0  0
   -2.1598    1.1842    0.0142 H   0  0  0  0  0  0  0  0  0  0  0  0
    0.0024   -0.0241    0.0066 H   0  0  0  0  0  0  0  0  0  0  0  0
    1.7165   -0.5874   -0.9075 H   0  0  0  0  0  0  0  0  0  0  0  0
    1.7340   -0.5974    0.8707 H   0  0  0  0  0  0  0  0  0  0  0  0
    3.3024   -0.7733   -0.0349 H   0  0  0  0  0  0  0  0  0  0  0  0
   -3.6668    2.1510    0.0486 H   0  0  0  0  0  0  0  0  0  0  0  0
   -5.0124    4.5254    0.9728 H   0  0  0  0  0  0  0  0  0  0  0  0
   -5.0303    4.5358   -0.8234 H   0  0  0  0  0  0  0  0  0  0  0  0
   -6.0339    2.2547    0.9697 H   0  0  0  0  0  0  0  0  0  0  0  0
   -6.0504    2.2652   -0.8265 H   0  0  0  0  0  0  0  0  0  0  0  0
   -7.4080    4.6120    0.3285 H   0  0  0  0  0  0  0  0  0  0  0  0
   -7.9601    0.0689   -0.0633 H   0  0  0  0  0  0  0  0  0  0  0  0
   -8.3019   -1.6236    1.7196 H   0  0  0  0  0  0  0  0  0  0  0  0
   -9.5978   -1.0389    3.7546 H   0  0  0  0  0  0  0  0  0  0  0  0
  -10.1752    2.9455    2.2396 H   0  0  0  0  0  0  0  0  0  0  0  0
  1  2  1  0  0  0  0
  2  3  1  0  0  0  0
  3  4  2  0  0  0  0
  3  5  2  0  0  0  0
  3  6  1  0  0  0  0
  6 11  2  0  0  0  0
  6  7  1  0  0  0  0
  7  8  2  0  0  0  0
  8  9  1  0  0  0  0
  8 14  1  0  0  0  0
  9 10  2  0  0  0  0
 10 11  1  0  0  0  0
 11 12  1  0  0  0  0
 12 13  1  0  0  0  0
 14 15  2  0  0  0  0
 14 16  1  0  0  0  0
 16 17  1  0  0  0  0
 17 18  1  0  0  0  0
 18 19  1  0  0  0  0
 19 20  1  0  0  0  0
 20 21  2  0  0  0  0
 20 22  2  0  0  0  0
 20 23  1  0  0  0  0
 23 28  2  0  0  0  0
 23 24  1  0  0  0  0
 24 25  2  0  0  0  0
 25 26  1  0  0  0  0
 26 27  2  0  0  0  0
 27 28  1  0  0  0  0
 27 29  1  0  0  0  0
  1 30  1  0  0  0  0
  1 31  1  0  0  0  0
  1 32  1  0  0  0  0
  2 33  1  0  0  0  0
  7 34  1  0  0  0  0
  9 35  1  0  0  0  0
 10 36  1  0  0  0  0
 13 37  1  0  0  0  0
 13 38  1  0  0  0  0
 13 39  1  0  0  0  0
 16 40  1  0  0  0  0
 17 41  1  0  0  0  0
 17 42  1  0  0  0  0
 18 43  1  0  0  0  0
 18 44  1  0  0  0  0
 19 45  1  0  0  0  0
 24 46  1  0  0  0  0
 25 47  1  0  0  0  0
 26 48  1  0  0  0  0
 28 49  1  0  0  0  0
M  END
> <Name>
ZINC25133930

> <reference>
BDB4972

> <quality>
0.693

> <status>
decoy

$$$$
ZINC23644902
  SciTegic06141217593D

 49 50  0  0  0  0            999 V2000
   -7.2906   -1.2918   -3.6123 C   0  0  0  0  0  0  0  0  0  0  0  0
   -5.8846   -0.7924   -3.2735 C   0  0  1  0  0  0  0  0  0  0  0  0
   -5.9326    0.0308   -1.9847 C   0  0  0  0  0  0  0  0  0  0  0  0
   -4.9512   -1.9890   -3.0799 C   0  0  0  0  0  0  0  0  0  0  0  0
   -3.5816   -1.5117   -2.8737 N   0  0  0  0  0  0  0  0  0  0  0  0
   -3.1340   -1.2479   -1.6000 C   0  0  0  0  0  0  0  0  0  0  0  0
   -1.8418   -0.7987   -1.4196 C   0  0  0  0  0  0  0  0  0  0  0  0
   -1.0211   -0.6189   -2.5489 C   0  0  0  0  0  0  0  0  0  0  0  0
    0.1233   -0.2187   -2.4185 O   0  0  0  0  0  0  0  0  0  0  0  0
   -1.5069   -0.8970   -3.7746 N   0  0  0  0  0  0  0  0  0  0  0  0
   -2.7692   -1.3335   -3.9312 C   0  0  0  0  0  0  0  0  0  0  0  0
   -3.1839   -1.5720   -5.0492 O   0  0  0  0  0  0  0  0  0  0  0  0
   -1.3534   -0.5189   -0.1258 N   0  0  0  0  0  0  0  0  0  0  0  0
   -1.2027   -1.6011    0.8502 C   0  0  0  0  0  0  0  0  0  0  0  0
    0.1371   -2.3055    0.6278 C   0  0  0  0  0  0  0  0  0  0  0  0
    1.2047   -1.3965    0.9034 O   0  0  0  0  0  0  0  0  0  0  0  0
    2.5067   -1.9578    0.7253 C   0  0  0  0  0  0  0  0  0  0  0  0
   -1.0251    0.7454    0.2126 C   0  0  0  0  0  0  0  0  0  0  0  0
   -1.2271    1.6537   -0.5660 O   0  0  0  0  0  0  0  0  0  0  0  0
   -0.4076    1.0292    1.5577 C   0  0  0  0  0  0  0  0  0  0  0  0
   -0.0847    2.8035    1.7110 S   0  0  0  0  0  0  0  0  0  0  0  0
    0.6146    2.8487    3.3277 C   0  0  0  0  0  0  0  0  0  0  0  0
    0.8409    1.8640    4.1880 N   0  0  0  0  0  0  0  0  0  0  0  0
    1.3564    2.0756    5.3195 N   0  0  0  0  0  0  0  0  0  0  0  0
    1.7020    3.2826    5.7191 C   0  0  0  0  0  0  0  0  0  0  0  0
    1.2309    4.2354    4.2782 S   0  0  0  0  0  0  0  0  0  0  0  0
   -3.9639   -1.4299   -0.5198 N   0  0  0  0  0  0  0  0  0  0  0  0
   -7.9625   -0.4321   -3.7520 H   0  0  0  0  0  0  0  0  0  0  0  0
   -7.6657   -1.9198   -2.7907 H   0  0  0  0  0  0  0  0  0  0  0  0
   -7.2568   -1.8838   -4.5388 H   0  0  0  0  0  0  0  0  0  0  0  0
   -5.5104   -0.1648   -4.0957 H   0  0  0  0  0  0  0  0  0  0  0  0
   -6.3065   -0.5960   -1.1617 H   0  0  0  0  0  0  0  0  0  0  0  0
   -6.6033    0.8917   -2.1230 H   0  0  0  0  0  0  0  0  0  0  0  0
   -4.9220    0.3902   -1.7405 H   0  0  0  0  0  0  0  0  0  0  0  0
   -5.2736   -2.5673   -2.2014 H   0  0  0  0  0  0  0  0  0  0  0  0
   -4.9847   -2.6299   -3.9733 H   0  0  0  0  0  0  0  0  0  0  0  0
   -0.9046   -0.7739   -4.6010 H   0  0  0  0  0  0  0  0  0  0  0  0
   -2.0217   -2.3249    0.7262 H   0  0  0  0  0  0  0  0  0  0  0  0
   -1.2327   -1.1842    1.8677 H   0  0  0  0  0  0  0  0  0  0  0  0
    0.2117   -3.1727    1.3005 H   0  0  0  0  0  0  0  0  0  0  0  0
    0.2055   -2.6445   -0.4164 H   0  0  0  0  0  0  0  0  0  0  0  0
    2.5782   -2.3056   -0.3158 H   0  0  0  0  0  0  0  0  0  0  0  0
    2.5851   -2.8308    1.3899 H   0  0  0  0  0  0  0  0  0  0  0  0
    3.2966   -1.2253    0.9477 H   0  0  0  0  0  0  0  0  0  0  0  0
   -1.0988    0.7129    2.3528 H   0  0  0  0  0  0  0  0  0  0  0  0
    0.5383    0.4757    1.6524 H   0  0  0  0  0  0  0  0  0  0  0  0
    2.1518    3.6113    6.6676 H   0  0  0  0  0  0  0  0  0  0  0  0
   -4.9265   -1.7659   -0.6663 H   0  0  0  0  0  0  0  0  0  0  0  0
   -3.6256   -1.2314    0.4326 H   0  0  0  0  0  0  0  0  0  0  0  0
  1  2  1  0  0  0  0
  2  3  1  0  0  0  0
  2  4  1  0  0  0  0
  4  5  1  0  0  0  0
  5 11  1  0  0  0  0
  5  6  1  0  0  0  0
  6  7  2  0  0  0  0
  6 27  1  0  0  0  0
  7  8  1  0  0  0  0
  7 13  1  0  0  0  0
  8  9  2  0  0  0  0
  8 10  1  0  0  0  0
 10 11  1  0  0  0  0
 11 12  2  0  0  0  0
 13 14  1  0  0  0  0
 13 18  1  0  0  0  0
 14 15  1  0  0  0  0
 15 16  1  0  0  0  0
 16 17  1  0  0  0  0
 18 19  2  0  0  0  0
 18 20  1  0  0  0  0
 20 21  1  0  0  0  0
 21 22  1  0  0  0  0
 22 26  1  0  0  0  0
 22 23  2  0  0  0  0
 23 24  1  0  0  0  0
 24 25  2  0  0  0  0
 25 26  1  0  0  0  0
  1 28  1  0  0  0  0
  1 29  1  0  0  0  0
  1 30  1  0  0  0  0
  2 31  1  0  0  0  0
  3 32  1  0  0  0  0
  3 33  1  0  0  0  0
  3 34  1  0  0  0  0
  4 35  1  0  0  0  0
  4 36  1  0  0  0  0
 10 37  1  0  0  0  0
 14 38  1  0  0  0  0
 14 39  1  0  0  0  0
 15 40  1  0  0  0  0
 15 41  1  0  0  0  0
 17 42  1  0  0  0  0
 17 43  1  0  0  0  0
 17 44  1  0  0  0  0
 20 45  1  0  0  0  0
 20 46  1  0  0  0  0
 25 47  1  0  0  0  0
 27 48  1  0  0  0  0
 27 49  1  0  0  0  0
M  END
> <Name>
ZINC23644902

> <reference>
BDB4965

> <quality>
0.658

> <status>
decoy

$$$$
ZINC19518055
  SciTegic06141217593D

 35 35  0  0  1  0            999 V2000
    0.1538    4.0799    0.7861 C   0  0  0  0  0  0  0  0  0  0  0  0
    1.1530    3.4464   -0.0153 O   0  0  0  0  0  0  0  0  0  0  0  0
    1.1727    2.0869   -0.0168 C   0  0  0  0  0  0  0  0  0  0  0  0
    2.1168    1.4080   -0.7731 C   0  0  0  0  0  0  0  0  0  0  0  0
    2.1377    0.0273   -0.7746 C   0  0  0  0  0  0  0  0  0  0  0  0
    1.2134   -0.6815   -0.0190 C   0  0  0  0  0  0  0  0  0  0  0  0
    0.2686   -0.0014    0.7378 C   0  0  0  0  0  0  0  0  0  0  0  0
    0.2489    1.3793    0.7385 C   0  0  0  0  0  0  0  0  0  0  0  0
    1.2337   -2.0825   -0.0204 N   0  0  0  0  0  0  0  0  0  0  0  0
    2.4048   -2.7393   -0.1368 C   0  0  0  0  0  0  0  0  0  0  0  0
    3.4485   -2.1215   -0.1440 O   0  0  0  0  0  0  0  0  0  0  0  0
    2.4174   -4.2414   -0.2581 C   0  0  0  0  0  0  0  0  0  0  0  0
    4.1301   -4.8224   -0.3979 S   0  0  0  0  0  0  0  0  0  0  0  0
    3.9726   -6.6244   -0.5339 C   0  0  0  0  0  0  0  0  0  0  0  0
    5.3632   -7.2499   -0.6597 C   0  0  1  0  0  0  0  0  0  0  0  0
    5.2323   -8.7469   -0.7728 C   0  0  0  0  0  0  0  0  0  0  0  0
    5.3048   -9.2797   -1.8548 O   0  0  0  0  0  0  0  0  0  0  0  0
    5.0352   -9.4884    0.3286 O   0  5  0  0  0  0  0  0  0  0  0  0
    6.0296   -6.7247   -1.8589 N   0  3  0  0  0  0  0  0  0  0  0  0
    0.3032    3.7143    1.8127 H   0  0  0  0  0  0  0  0  0  0  0  0
   -0.8150    3.6996    0.4301 H   0  0  0  0  0  0  0  0  0  0  0  0
    0.2012    5.1777    0.7361 H   0  0  0  0  0  0  0  0  0  0  0  0
    2.8490    1.9697   -1.3718 H   0  0  0  0  0  0  0  0  0  0  0  0
    2.8865   -0.5109   -1.3743 H   0  0  0  0  0  0  0  0  0  0  0  0
   -0.4640   -0.5624    1.3366 H   0  0  0  0  0  0  0  0  0  0  0  0
   -0.4995    1.9182    1.3381 H   0  0  0  0  0  0  0  0  0  0  0  0
    0.3537   -2.6104    0.0675 H   0  0  0  0  0  0  0  0  0  0  0  0
    1.9519   -4.6854    0.6342 H   0  0  0  0  0  0  0  0  0  0  0  0
    1.8546   -4.5428   -1.1538 H   0  0  0  0  0  0  0  0  0  0  0  0
    3.4741   -7.0178    0.3643 H   0  0  0  0  0  0  0  0  0  0  0  0
    3.3766   -6.8753   -1.4238 H   0  0  0  0  0  0  0  0  0  0  0  0
    5.9595   -7.0002    0.2303 H   0  0  0  0  0  0  0  0  0  0  0  0
    6.1198   -5.7015   -1.7825 H   0  0  0  0  0  0  0  0  0  0  0  0
    5.4721   -6.9584   -2.6929 H   0  0  0  0  0  0  0  0  0  0  0  0
    6.9659   -7.1454   -1.9442 H   0  0  0  0  0  0  0  0  0  0  0  0
  1  2  1  0  0  0  0
  2  3  1  0  0  0  0
  3  8  2  0  0  0  0
  3  4  1  0  0  0  0
  4  5  2  0  0  0  0
  5  6  1  0  0  0  0
  6  7  2  0  0  0  0
  6  9  1  0  0  0  0
  7  8  1  0  0  0  0
  9 10  1  0  0  0  0
 10 11  2  0  0  0  0
 10 12  1  0  0  0  0
 12 13  1  0  0  0  0
 13 14  1  0  0  0  0
 14 15  1  0  0  0  0
 15 16  1  0  0  0  0
 15 19  1  0  0  0  0
 16 17  2  0  0  0  0
 16 18  1  0  0  0  0
  1 20  1  0  0  0  0
  1 21  1  0  0  0  0
  1 22  1  0  0  0  0
  4 23  1  0  0  0  0
  5 24  1  0  0  0  0
  7 25  1  0  0  0  0
  8 26  1  0  0  0  0
  9 27  1  0  0  0  0
 12 28  1  0  0  0  0
 12 29  1  0  0  0  0
 14 30  1  0  0  0  0
 14 31  1  0  0  0  0
 15 32  1  0  0  0  0
 19 33  1  0  0  0  0
 19 34  1  0  0  0  0
 19 35  1  0  0  0  0
M  CHG  2  18  -1  19   1
M  END
> <Name>
ZINC19518055

> <reference>
BDB4995

> <quality>
0.845

> <status>
decoy

$$$$
ZINC21953394
  SciTegic06141217593D

 36 37  0  0  1  0            999 V2000
    4.8506    0.2603   -0.7339 C   0  0  0  0  0  0  0  0  0  0  0  0
    3.7217   -0.5284   -0.0673 C   0  0  2  0  0  0  0  0  0  0  0  0
    2.3780    0.1215   -0.4033 C   0  0  1  0  0  0  0  0  0  0  0  0
    1.2579   -0.5904    0.3629 C   0  0  0  0  0  0  0  0  0  0  0  0
    0.0021   -0.0041    0.0020 O   0  0  0  0  0  0  0  0  0  0  0  0
   -0.0167    1.3769    0.0096 C   0  0  0  0  0  0  0  0  0  0  0  0
    1.1678    2.1192    0.0023 C   0  0  0  0  0  0  0  0  0  0  0  0
    1.0636    3.5100    0.0127 C   0  0  0  0  0  0  0  0  0  0  0  0
   -0.6971    3.7790    0.0318 S   0  0  0  0  0  0  0  0  0  0  0  0
   -1.2228    2.0770    0.0308 C   0  0  0  0  0  0  0  0  0  0  0  0
   -2.5876    1.5434    0.0455 C   0  0  0  0  0  0  0  0  0  0  0  0
   -2.7705    0.3412    0.0396 O   0  0  0  0  0  0  0  0  0  0  0  0
   -3.6409    2.3857    0.0656 O   0  0  0  0  0  0  0  0  0  0  0  0
   -4.9636    1.7870    0.0793 C   0  0  0  0  0  0  0  0  0  0  0  0
    2.1389    4.5058    0.0088 C   0  0  0  0  0  0  0  0  0  0  0  0
    3.3005    4.1462   -0.0050 O   0  0  0  0  0  0  0  0  0  0  0  0
    1.8401    5.8210    0.0206 O   0  0  0  0  0  0  0  0  0  0  0  0
    2.9557    6.7505    0.0159 C   0  0  0  0  0  0  0  0  0  0  0  0
    2.4023    1.5003   -0.0166 O   0  0  0  0  0  0  0  0  0  0  0  0
    3.9163   -0.5261    1.3888 N   0  3  0  0  0  0  0  0  0  0  0  0
    4.8429    1.2965   -0.3649 H   0  0  0  0  0  0  0  0  0  0  0  0
    4.7060    0.2590   -1.8244 H   0  0  0  0  0  0  0  0  0  0  0  0
    5.8170   -0.2065   -0.4927 H   0  0  0  0  0  0  0  0  0  0  0  0
    3.7304   -1.5645   -0.4368 H   0  0  0  0  0  0  0  0  0  0  0  0
    2.1983    0.0412   -1.4856 H   0  0  0  0  0  0  0  0  0  0  0  0
    1.2539   -1.6586    0.1004 H   0  0  0  0  0  0  0  0  0  0  0  0
    1.4199   -0.4750    1.4448 H   0  0  0  0  0  0  0  0  0  0  0  0
   -4.9995    1.1352    0.9647 H   0  0  0  0  0  0  0  0  0  0  0  0
   -5.0235    1.1476   -0.8138 H   0  0  0  0  0  0  0  0  0  0  0  0
   -5.7681    2.5370    0.0954 H   0  0  0  0  0  0  0  0  0  0  0  0
    3.5488    6.5181   -0.8809 H   0  0  0  0  0  0  0  0  0  0  0  0
    3.5663    6.5062    0.8976 H   0  0  0  0  0  0  0  0  0  0  0  0
    2.6316    7.8016    0.0262 H   0  0  0  0  0  0  0  0  0  0  0  0
    3.9080    0.4437    1.7358 H   0  0  0  0  0  0  0  0  0  0  0  0
    4.8206   -0.9637    1.6160 H   0  0  0  0  0  0  0  0  0  0  0  0
    3.1566   -1.0569    1.8382 H   0  0  0  0  0  0  0  0  0  0  0  0
  1  2  1  0  0  0  0
  2  3  1  0  0  0  0
  2 20  1  0  0  0  0
  3 19  1  0  0  0  0
  3  4  1  0  0  0  0
  4  5  1  0  0  0  0
  5  6  1  0  0  0  0
  6 10  2  0  0  0  0
  6  7  1  0  0  0  0
  7  8  2  0  0  0  0
  7 19  1  0  0  0  0
  8  9  1  0  0  0  0
  8 15  1  0  0  0  0
  9 10  1  0  0  0  0
 10 11  1  0  0  0  0
 11 12  2  0  0  0  0
 11 13  1  0  0  0  0
 13 14  1  0  0  0  0
 15 16  2  0  0  0  0
 15 17  1  0  0  0  0
 17 18  1  0  0  0  0
  1 21  1  0  0  0  0
  1 22  1  0  0  0  0
  1 23  1  0  0  0  0
  2 24  1  0  0  0  0
  3 25  1  0  0  0  0
  4 26  1  0  0  0  0
  4 27  1  0  0  0  0
 14 28  1  0  0  0  0
 14 29  1  0  0  0  0
 14 30  1  0  0  0  0
 18 31  1  0  0  0  0
 18 32  1  0  0  0  0
 18 33  1  0  0  0  0
 20 34  1  0  0  0  0
 20 35  1  0  0  0  0
 20 36  1  0  0  0  0
M  CHG  1  20   1
M  END
> <Name>
ZINC21953394

> <reference>
BDB5242

> <quality>
0.723

> <status>
decoy

$$$$
ZINC04474059
  SciTegic06141217593D

 52 54  0  0  1  0            999 V2000
    1.1321   -1.6372    6.8710 C   0  0  0  0  0  0  0  0  0  0  0  0
    0.3118   -0.8506    6.0047 O   0  0  0  0  0  0  0  0  0  0  0  0
    0.2149    0.5233    6.3853 C   0  0  0  0  0  0  0  0  0  0  0  0
   -0.6825    1.2653    5.3928 C   0  0  0  0  0  0  0  0  0  0  0  0
   -2.0140    0.7540    5.4801 O   0  0  0  0  0  0  0  0  0  0  0  0
   -2.9366    1.3053    4.6645 C   0  0  0  0  0  0  0  0  0  0  0  0
   -2.6178    2.1963    3.9000 O   0  0  0  0  0  0  0  0  0  0  0  0
   -4.2766    0.8466    4.6984 C   0  0  0  0  0  0  0  0  0  0  0  0
   -5.0742    1.2091    5.7124 C   0  0  0  0  0  0  0  0  0  0  0  0
   -6.3530    0.8142    5.7942 O   0  0  0  0  0  0  0  0  0  0  0  0
   -6.7692   -0.2441    5.0793 C   0  0  0  0  0  0  0  0  0  0  0  0
   -6.0653   -0.7078    4.0126 C   0  0  0  0  0  0  0  0  0  0  0  0
   -4.7826   -0.0443    3.6011 C   0  0  1  0  0  0  0  0  0  0  0  0
   -4.9779    0.7413    2.3289 C   0  0  0  0  0  0  0  0  0  0  0  0
   -5.7794    1.8105    1.9968 C   0  0  0  0  0  0  0  0  0  0  0  0
   -5.7405    2.3316    0.7155 C   0  0  0  0  0  0  0  0  0  0  0  0
   -4.8957    1.7761   -0.2281 C   0  0  0  0  0  0  0  0  0  0  0  0
   -4.0917    0.7048    0.1011 C   0  0  0  0  0  0  0  0  0  0  0  0
   -4.1249    0.1743    1.3891 C   0  0  0  0  0  0  0  0  0  0  0  0
   -3.4193   -0.8880    1.9565 N   0  0  0  0  0  0  0  0  0  0  0  0
   -3.7446   -1.0830    3.2469 C   0  0  0  0  0  0  0  0  0  0  0  0
   -3.2905   -1.9310    3.9856 O   0  0  0  0  0  0  0  0  0  0  0  0
   -6.5409   -1.8136    3.2911 C   0  0  0  0  0  0  0  0  0  0  0  0
   -7.6319   -2.2879    3.5525 O   0  0  0  0  0  0  0  0  0  0  0  0
   -5.7888   -2.3518    2.3068 O   0  0  0  0  0  0  0  0  0  0  0  0
   -6.3351   -3.4758    1.6138 C   0  0  0  0  0  0  0  0  0  0  0  0
   -7.9330   -0.8721    5.4339 N   0  0  0  0  0  0  0  0  0  0  0  0
   -4.5163    2.0964    6.7952 C   0  0  0  0  0  0  0  0  0  0  0  0
   -5.1820    3.3605    6.7653 O   0  0  0  0  0  0  0  0  0  0  0  0
   -4.7251    4.2816    7.7577 C   0  0  0  0  0  0  0  0  0  0  0  0
    0.7098   -1.5643    7.8841 H   0  0  0  0  0  0  0  0  0  0  0  0
    2.1349   -1.1853    6.8788 H   0  0  0  0  0  0  0  0  0  0  0  0
    1.1786   -2.6857    6.5416 H   0  0  0  0  0  0  0  0  0  0  0  0
    1.2169    0.9772    6.3828 H   0  0  0  0  0  0  0  0  0  0  0  0
   -0.2175    0.5948    7.3942 H   0  0  0  0  0  0  0  0  0  0  0  0
   -0.6860    2.3387    5.6331 H   0  0  0  0  0  0  0  0  0  0  0  0
   -0.3007    1.1194    4.3716 H   0  0  0  0  0  0  0  0  0  0  0  0
   -6.4502    2.2502    2.7496 H   0  0  0  0  0  0  0  0  0  0  0  0
   -6.3800    3.1857    0.4481 H   0  0  0  0  0  0  0  0  0  0  0  0
   -4.8648    2.1908   -1.2465 H   0  0  0  0  0  0  0  0  0  0  0  0
   -3.4227    0.2682   -0.6550 H   0  0  0  0  0  0  0  0  0  0  0  0
   -2.7291   -1.4570    1.4459 H   0  0  0  0  0  0  0  0  0  0  0  0
   -7.2989   -3.1453    1.1992 H   0  0  0  0  0  0  0  0  0  0  0  0
   -6.5404   -4.2404    2.3775 H   0  0  0  0  0  0  0  0  0  0  0  0
   -5.6659   -3.8573    0.8285 H   0  0  0  0  0  0  0  0  0  0  0  0
   -8.4845   -0.5399    6.2378 H   0  0  0  0  0  0  0  0  0  0  0  0
   -8.2585   -1.6843    4.8904 H   0  0  0  0  0  0  0  0  0  0  0  0
   -4.6741    1.6226    7.7753 H   0  0  0  0  0  0  0  0  0  0  0  0
   -3.4392    2.2460    6.6295 H   0  0  0  0  0  0  0  0  0  0  0  0
   -3.6463    4.4293    7.6014 H   0  0  0  0  0  0  0  0  0  0  0  0
   -4.8729    3.8104    8.7406 H   0  0  0  0  0  0  0  0  0  0  0  0
   -5.2632    5.2392    7.6987 H   0  0  0  0  0  0  0  0  0  0  0  0
  1  2  1  0  0  0  0
  2  3  1  0  0  0  0
  3  4  1  0  0  0  0
  4  5  1  0  0  0  0
  5  6  1  0  0  0  0
  6  7  2  0  0  0  0
  6  8  1  0  0  0  0
  8 13  1  0  0  0  0
  8  9  2  0  0  0  0
  9 10  1  0  0  0  0
  9 28  1  0  0  0  0
 10 11  1  0  0  0  0
 11 12  2  0  0  0  0
 11 27  1  0  0  0  0
 12 13  1  0  0  0  0
 12 23  1  0  0  0  0
 13 21  1  0  0  0  0
 13 14  1  0  0  0  0
 14 19  2  0  0  0  0
 14 15  1  0  0  0  0
 15 16  2  0  0  0  0
 16 17  1  0  0  0  0
 17 18  2  0  0  0  0
 18 19  1  0  0  0  0
 19 20  1  0  0  0  0
 20 21  1  0  0  0  0
 21 22  2  0  0  0  0
 23 24  2  0  0  0  0
 23 25  1  0  0  0  0
 25 26  1  0  0  0  0
 28 29  1  0  0  0  0
 29 30  1  0  0  0  0
  1 31  1  0  0  0  0
  1 32  1  0  0  0  0
  1 33  1  0  0  0  0
  3 34  1  0  0  0  0
  3 35  1  0  0  0  0
  4 36  1  0  0  0  0
  4 37  1  0  0  0  0
 15 38  1  0  0  0  0
 16 39  1  0  0  0  0
 17 40  1  0  0  0  0
 18 41  1  0  0  0  0
 20 42  1  0  0  0  0
 26 43  1  0  0  0  0
 26 44  1  0  0  0  0
 26 45  1  0  0  0  0
 27 46  1  0  0  0  0
 27 47  1  0  0  0  0
 28 48  1  0  0  0  0
 28 49  1  0  0  0  0
 30 50  1  0  0  0  0
 30 51  1  0  0  0  0
 30 52  1  0  0  0  0
M  END
> <Name>
ZINC04474059

> <reference>
BDB4965

> <quality>
0.689

> <status>
decoy

$$$$
ZINC01646936
  SciTegic06141217593D

 34 35  0  0  1  0            999 V2000
   -2.6991    3.2523   -0.0294 C   0  0  0  0  0  0  0  0  0  0  0  0
   -1.4193    2.9898   -0.0769 N   0  0  0  0  0  0  0  0  0  0  0  0
   -1.2233    1.6688    0.0073 C   0  0  0  0  0  0  0  0  0  0  0  0
   -2.4686    1.0716    0.1239 C   0  0  0  0  0  0  0  0  0  0  0  0
   -3.3915    2.1065    0.0975 N   0  0  0  0  0  0  0  0  0  0  0  0
   -4.8477    1.9760    0.1910 C   0  0  2  0  0  0  0  0  0  0  0  0
   -5.4266    1.7076   -1.2006 C   0  0  1  0  0  0  0  0  0  0  0  0
   -6.9535    1.6323   -1.1041 C   0  0  1  0  0  0  0  0  0  0  0  0
   -7.4806    2.9360   -0.4968 C   0  0  1  0  0  0  0  0  0  0  0  0
   -6.8224    3.1570    0.8676 C   0  0  0  0  0  0  0  0  0  0  0  0
   -5.4023    3.1861    0.7108 O   0  0  0  0  0  0  0  0  0  0  0  0
   -7.1641    4.0282   -1.3622 O   0  0  0  0  0  0  0  0  0  0  0  0
   -7.5068    1.4551   -2.4096 O   0  0  0  0  0  0  0  0  0  0  0  0
   -5.0557    2.7672   -2.0847 O   0  0  0  0  0  0  0  0  0  0  0  0
   -2.7513   -0.3564    0.2497 C   0  0  0  0  0  0  0  0  0  0  0  0
   -2.8625   -1.0452   -0.7482 O   0  0  0  0  0  0  0  0  0  0  0  0
   -2.8889   -0.9111    1.4703 N   0  0  0  0  0  0  0  0  0  0  0  0
    0.0056    1.0151   -0.0125 N   0  0  0  0  0  0  0  0  0  0  0  0
    1.1445    1.7248   -0.1373 C   0  0  0  0  0  0  0  0  0  0  0  0
    1.0991    2.9334   -0.2274 O   0  0  0  0  0  0  0  0  0  0  0  0
   -3.1422    4.2576   -0.0848 H   0  0  0  0  0  0  0  0  0  0  0  0
   -5.0981    1.1399    0.8606 H   0  0  0  0  0  0  0  0  0  0  0  0
   -5.0329    0.7563   -1.5879 H   0  0  0  0  0  0  0  0  0  0  0  0
   -7.2441    0.7825   -0.4690 H   0  0  0  0  0  0  0  0  0  0  0  0
   -8.5720    2.8729   -0.3753 H   0  0  0  0  0  0  0  0  0  0  0  0
   -7.1641    4.1139    1.2891 H   0  0  0  0  0  0  0  0  0  0  0  0
   -7.0990    2.3370    1.5466 H   0  0  0  0  0  0  0  0  0  0  0  0
   -7.5856    3.8825   -2.2461 H   0  0  0  0  0  0  0  0  0  0  0  0
   -7.1599    0.6161   -2.8044 H   0  0  0  0  0  0  0  0  0  0  0  0
   -4.0688    2.8189   -2.1429 H   0  0  0  0  0  0  0  0  0  0  0  0
   -2.7948   -0.3284    2.3144 H   0  0  0  0  0  0  0  0  0  0  0  0
   -3.0882   -1.9177    1.5590 H   0  0  0  0  0  0  0  0  0  0  0  0
    0.0444   -0.0110    0.0682 H   0  0  0  0  0  0  0  0  0  0  0  0
    2.1153    1.2079   -0.1574 H   0  0  0  0  0  0  0  0  0  0  0  0
  1  5  1  0  0  0  0
  1  2  2  0  0  0  0
  2  3  1  0  0  0  0
  3  4  2  0  0  0  0
  3 18  1  0  0  0  0
  4  5  1  0  0  0  0
  4 15  1  0  0  0  0
  5  6  1  0  0  0  0
  6 11  1  0  0  0  0
  6  7  1  0  0  0  0
  7  8  1  0  0  0  0
  7 14  1  0  0  0  0
  8  9  1  0  0  0  0
  8 13  1  0  0  0  0
  9 10  1  0  0  0  0
  9 12  1  0  0  0  0
 10 11  1  0  0  0  0
 15 16  2  0  0  0  0
 15 17  1  0  0  0  0
 18 19  1  0  0  0  0
 19 20  2  0  0  0  0
  1 21  1  0  0  0  0
  6 22  1  0  0  0  0
  7 23  1  0  0  0  0
  8 24  1  0  0  0  0
  9 25  1  0  0  0  0
 10 26  1  0  0  0  0
 10 27  1  0  0  0  0
 12 28  1  0  0  0  0
 13 29  1  0  0  0  0
 14 30  1  0  0  0  0
 17 31  1  0  0  0  0
 17 32  1  0  0  0  0
 18 33  1  0  0  0  0
 19 34  1  0  0  0  0
M  END
> <Name>
ZINC01646936

> <reference>
BDB5008

> <quality>
0.705

> <status>
decoy

$$$$
ZINC26641275
  SciTegic06141217593D

 60 60  0  0  1  0            999 V2000
   11.1223    7.9641    0.6662 C   0  0  0  0  0  0  0  0  0  0  0  0
   10.5174    7.8480    2.0667 C   0  0  1  0  0  0  0  0  0  0  0  0
   10.6613    9.1848    2.7969 C   0  0  0  0  0  0  0  0  0  0  0  0
    9.0352    7.4857    1.9536 C   0  0  0  0  0  0  0  0  0  0  0  0
    8.8963    6.0928    1.3359 C   0  0  0  0  0  0  0  0  0  0  0  0
    7.4771    5.7459    1.2276 N   0  0  0  0  0  0  0  0  0  0  0  0
    7.1117    4.5570    0.7085 C   0  0  0  0  0  0  0  0  0  0  0  0
    7.9596    3.7727    0.3302 O   0  0  0  0  0  0  0  0  0  0  0  0
    5.8061    4.2379    0.6088 N   0  0  0  0  0  0  0  0  0  0  0  0
    5.4407    3.0490    0.0897 C   0  0  0  0  0  0  0  0  0  0  0  0
    6.2865    2.2666   -0.2876 O   0  0  0  0  0  0  0  0  0  0  0  0
    3.9808    2.6922   -0.0217 C   0  0  1  0  0  0  0  0  0  0  0  0
    3.4127    3.2681   -1.3203 C   0  0  0  0  0  0  0  0  0  0  0  0
    3.7988    0.8914   -0.0299 S   0  0  0  0  0  0  0  0  0  0  0  0
    2.0417    0.7613   -0.0133 C   0  0  0  0  0  0  0  0  0  0  0  0
    1.1854    1.7564    0.0002 N   0  0  0  0  0  0  0  0  0  0  0  0
   -0.0156    1.2988    0.0092 N   0  0  0  0  0  0  0  0  0  0  0  0
    0.0021   -0.0041    0.0020 C   0  0  0  0  0  0  0  0  0  0  0  0
    1.3130   -0.3934   -0.0126 N   0  0  0  0  0  0  0  0  0  0  0  0
    1.8285   -1.7646   -0.0245 C   0  0  0  0  0  0  0  0  0  0  0  0
    1.9940   -2.2348   -1.4710 C   0  0  1  0  0  0  0  0  0  0  0  0
    3.0687   -1.3924   -2.1612 C   0  0  0  0  0  0  0  0  0  0  0  0
    2.4128   -3.7063   -1.4843 C   0  0  0  0  0  0  0  0  0  0  0  0
   -1.1996   -0.9135    0.0079 C   0  0  0  0  0  0  0  0  0  0  0  0
   -1.6195   -1.2130   -1.4326 C   0  0  0  0  0  0  0  0  0  0  0  0
   -2.8211   -2.1225   -1.4267 C   0  0  0  0  0  0  0  0  0  0  0  0
   -3.2950   -2.4945   -0.3741 O   0  0  0  0  0  0  0  0  0  0  0  0
   -3.3691   -2.5225   -2.5913 N   0  0  0  0  0  0  0  0  0  0  0  0
   12.1880    8.2244    0.7464 H   0  0  0  0  0  0  0  0  0  0  0  0
   10.5956    8.7478    0.1020 H   0  0  0  0  0  0  0  0  0  0  0  0
   11.0192    7.0033    0.1407 H   0  0  0  0  0  0  0  0  0  0  0  0
   11.0446    7.0639    2.6299 H   0  0  0  0  0  0  0  0  0  0  0  0
   10.1342    9.9696    2.2345 H   0  0  0  0  0  0  0  0  0  0  0  0
   11.7267    9.4461    2.8790 H   0  0  0  0  0  0  0  0  0  0  0  0
   10.2266    9.1020    3.8039 H   0  0  0  0  0  0  0  0  0  0  0  0
    8.5793    7.4894    2.9547 H   0  0  0  0  0  0  0  0  0  0  0  0
    8.5244    8.2216    1.3153 H   0  0  0  0  0  0  0  0  0  0  0  0
    9.3517    6.0885    0.3346 H   0  0  0  0  0  0  0  0  0  0  0  0
    9.4056    5.3553    1.9735 H   0  0  0  0  0  0  0  0  0  0  0  0
    6.7585    6.4106    1.5482 H   0  0  0  0  0  0  0  0  0  0  0  0
    5.0875    4.9026    0.9293 H   0  0  0  0  0  0  0  0  0  0  0  0
    3.4343    3.1121    0.8356 H   0  0  0  0  0  0  0  0  0  0  0  0
    3.9584    2.8486   -2.1783 H   0  0  0  0  0  0  0  0  0  0  0  0
    3.5226    4.3626   -1.3162 H   0  0  0  0  0  0  0  0  0  0  0  0
    2.3470    3.0080   -1.4022 H   0  0  0  0  0  0  0  0  0  0  0  0
    1.1225   -2.4275    0.4972 H   0  0  0  0  0  0  0  0  0  0  0  0
    2.8035   -1.7944    0.4840 H   0  0  0  0  0  0  0  0  0  0  0  0
    1.0392   -2.1205   -2.0052 H   0  0  0  0  0  0  0  0  0  0  0  0
    4.0240   -1.5062   -1.6279 H   0  0  0  0  0  0  0  0  0  0  0  0
    2.7684   -0.3342   -2.1525 H   0  0  0  0  0  0  0  0  0  0  0  0
    3.1882   -1.7299   -3.2013 H   0  0  0  0  0  0  0  0  0  0  0  0
    1.6406   -4.3128   -0.9884 H   0  0  0  0  0  0  0  0  0  0  0  0
    3.3677   -3.8217   -0.9505 H   0  0  0  0  0  0  0  0  0  0  0  0
    2.5320   -4.0450   -2.5241 H   0  0  0  0  0  0  0  0  0  0  0  0
   -0.9453   -1.8542    0.5182 H   0  0  0  0  0  0  0  0  0  0  0  0
   -2.0299   -0.4224    0.5365 H   0  0  0  0  0  0  0  0  0  0  0  0
   -0.7907   -1.7051   -1.9625 H   0  0  0  0  0  0  0  0  0  0  0  0
   -1.8745   -0.2727   -1.9434 H   0  0  0  0  0  0  0  0  0  0  0  0
   -2.9667   -2.2066   -3.4853 H   0  0  0  0  0  0  0  0  0  0  0  0
   -4.1904   -3.1441   -2.5873 H   0  0  0  0  0  0  0  0  0  0  0  0
  1  2  1  0  0  0  0
  2  3  1  0  0  0  0
  2  4  1  0  0  0  0
  4  5  1  0  0  0  0
  5  6  1  0  0  0  0
  6  7  1  0  0  0  0
  7  8  2  0  0  0  0
  7  9  1  0  0  0  0
  9 10  1  0  0  0  0
 10 11  2  0  0  0  0
 10 12  1  0  0  0  0
 12 13  1  0  0  0  0
 12 14  1  0  0  0  0
 14 15  1  0  0  0  0
 15 19  1  0  0  0  0
 15 16  2  0  0  0  0
 16 17  1  0  0  0  0
 17 18  2  0  0  0  0
 18 19  1  0  0  0  0
 18 24  1  0  0  0  0
 19 20  1  0  0  0  0
 20 21  1  0  0  0  0
 21 22  1  0  0  0  0
 21 23  1  0  0  0  0
 24 25  1  0  0  0  0
 25 26  1  0  0  0  0
 26 27  2  0  0  0  0
 26 28  1  0  0  0  0
  1 29  1  0  0  0  0
  1 30  1  0  0  0  0
  1 31  1  0  0  0  0
  2 32  1  0  0  0  0
  3 33  1  0  0  0  0
  3 34  1  0  0  0  0
  3 35  1  0  0  0  0
  4 36  1  0  0  0  0
  4 37  1  0  0  0  0
  5 38  1  0  0  0  0
  5 39  1  0  0  0  0
  6 40  1  0  0  0  0
  9 41  1  0  0  0  0
 12 42  1  0  0  0  0
 13 43  1  0  0  0  0
 13 44  1  0  0  0  0
 13 45  1  0  0  0  0
 20 46  1  0  0  0  0
 20 47  1  0  0  0  0
 21 48  1  0  0  0  0
 22 49  1  0  0  0  0
 22 50  1  0  0  0  0
 22 51  1  0  0  0  0
 23 52  1  0  0  0  0
 23 53  1  0  0  0  0
 23 54  1  0  0  0  0
 24 55  1  0  0  0  0
 24 56  1  0  0  0  0
 25 57  1  0  0  0  0
 25 58  1  0  0  0  0
 28 59  1  0  0  0  0
 28 60  1  0  0  0  0
M  END
> <Name>
ZINC26641275

> <reference>
BDB4948

> <quality>
0.725

> <status>
decoy

$$$$
ZINC16953706
  SciTegic06141217593D

 40 43  0  0  1  0            999 V2000
   -3.1671    6.2435    1.9291 C   0  0  0  0  0  0  0  0  0  0  0  0
   -1.7666    5.8033    2.3601 C   0  0  2  0  0  0  0  0  0  0  0  0
   -0.8255    6.8728    2.1314 O   0  0  0  0  0  0  0  0  0  0  0  0
    0.3863    6.2734    1.6540 C   0  0  2  0  0  0  0  0  0  0  0  0
    0.6764    6.7715    0.2263 C   0  0  2  0  0  0  0  0  0  0  0  0
    1.1171    5.6274   -0.5160 O   0  0  0  0  0  0  0  0  0  0  0  0
    0.4927    4.4577    0.0217 C   0  0  2  0  0  0  0  0  0  0  0  0
    0.0775    4.7678    1.4685 C   0  0  2  0  0  0  0  0  0  0  0  0
   -1.3526    4.6719    1.5824 O   0  0  0  0  0  0  0  0  0  0  0  0
    1.4386    3.3391    0.0063 N   0  0  0  0  0  0  0  0  0  0  0  0
    2.7985    3.4328   -0.0062 C   0  0  0  0  0  0  0  0  0  0  0  0
    3.3261    2.2432   -0.0177 N   0  0  0  0  0  0  0  0  0  0  0  0
    2.3412    1.3131   -0.0132 C   0  0  0  0  0  0  0  0  0  0  0  0
    1.1182    2.0050    0.0021 C   0  0  0  0  0  0  0  0  0  0  0  0
   -0.0158    1.3122    0.0093 N   0  0  0  0  0  0  0  0  0  0  0  0
    0.0021   -0.0041    0.0020 C   0  0  0  0  0  0  0  0  0  0  0  0
    1.1256   -0.6976   -0.0124 N   0  0  0  0  0  0  0  0  0  0  0  0
    2.3085   -0.0916   -0.0205 C   0  0  0  0  0  0  0  0  0  0  0  0
    3.4807   -0.8271   -0.0361 N   0  0  0  0  0  0  0  0  0  0  0  0
    1.7754    7.8356    0.2538 C   0  0  0  0  0  0  0  0  0  0  0  0
    1.9856    8.3556   -1.0995 N   0  0  0  0  0  0  0  0  0  0  0  0
    1.8321    9.4487   -1.3117 N   0  3  0  0  0  0  0  0  0  0  0  0
    1.6787   10.5418   -1.5238 N   0  5  0  0  0  0  0  0  0  0  0  0
   -1.7727    5.4363    3.8454 C   0  0  0  0  0  0  0  0  0  0  0  0
   -3.8740    5.4149    2.0832 H   0  0  0  0  0  0  0  0  0  0  0  0
   -3.1523    6.5171    0.8638 H   0  0  0  0  0  0  0  0  0  0  0  0
   -3.4822    7.1113    2.5271 H   0  0  0  0  0  0  0  0  0  0  0  0
    1.2135    6.4965    2.3439 H   0  0  0  0  0  0  0  0  0  0  0  0
   -0.2159    7.2258   -0.2291 H   0  0  0  0  0  0  0  0  0  0  0  0
   -0.3861    4.1809   -0.5792 H   0  0  0  0  0  0  0  0  0  0  0  0
    0.5797    4.0943    2.1786 H   0  0  0  0  0  0  0  0  0  0  0  0
    3.3662    4.3750   -0.0065 H   0  0  0  0  0  0  0  0  0  0  0  0
   -0.9548   -0.5466    0.0081 H   0  0  0  0  0  0  0  0  0  0  0  0
    4.3862   -0.3362   -0.0424 H   0  0  0  0  0  0  0  0  0  0  0  0
    3.4499   -1.8566   -0.0414 H   0  0  0  0  0  0  0  0  0  0  0  0
    2.7103    7.3893    0.6236 H   0  0  0  0  0  0  0  0  0  0  0  0
    1.4733    8.6578    0.9191 H   0  0  0  0  0  0  0  0  0  0  0  0
   -2.4836    4.6142    4.0153 H   0  0  0  0  0  0  0  0  0  0  0  0
   -2.0796    6.3118    4.4364 H   0  0  0  0  0  0  0  0  0  0  0  0
   -0.7649    5.1202    4.1526 H   0  0  0  0  0  0  0  0  0  0  0  0
  1  2  1  0  0  0  0
  2  9  1  0  0  0  0
  2  3  1  0  0  0  0
  2 24  1  0  0  0  0
  3  4  1  0  0  0  0
  4  8  1  0  0  0  0
  4  5  1  0  0  0  0
  5  6  1  0  0  0  0
  5 20  1  0  0  0  0
  6  7  1  0  0  0  0
  7  8  1  0  0  0  0
  7 10  1  0  0  0  0
  8  9  1  0  0  0  0
 10 14  1  0  0  0  0
 10 11  1  0  0  0  0
 11 12  2  0  0  0  0
 12 13  1  0  0  0  0
 13 18  2  0  0  0  0
 13 14  1  0  0  0  0
 14 15  2  0  0  0  0
 15 16  1  0  0  0  0
 16 17  2  0  0  0  0
 17 18  1  0  0  0  0
 18 19  1  0  0  0  0
 20 21  1  0  0  0  0
 21 22  2  0  0  0  0
 22 23  2  0  0  0  0
  1 25  1  0  0  0  0
  1 26  1  0  0  0  0
  1 27  1  0  0  0  0
  4 28  1  0  0  0  0
  5 29  1  0  0  0  0
  7 30  1  0  0  0  0
  8 31  1  0  0  0  0
 11 32  1  0  0  0  0
 16 33  1  0  0  0  0
 19 34  1  0  0  0  0
 19 35  1  0  0  0  0
 20 36  1  0  0  0  0
 20 37  1  0  0  0  0
 24 38  1  0  0  0  0
 24 39  1  0  0  0  0
 24 40  1  0  0  0  0
M  CHG  2  22   1  23  -1
M  END
> <Name>
ZINC16953706

> <reference>
BDB4977

> <quality>
0.780

> <status>
decoy

$$$$
ZINC30969187
  SciTegic06141217593D

 60 61  0  0  1  0            999 V2000
   -3.0056  -14.6410    3.7265 C   0  0  0  0  0  0  0  0  0  0  0  0
   -3.8150  -14.0480    2.5715 C   0  0  0  0  0  0  0  0  0  0  0  0
   -3.8200  -12.5221    2.6828 C   0  0  0  0  0  0  0  0  0  0  0  0
   -4.6294  -11.9291    1.5278 C   0  0  0  0  0  0  0  0  0  0  0  0
   -4.6343  -10.4680    1.6344 N   0  0  0  0  0  0  0  0  0  0  0  0
   -5.2901   -9.7277    0.7188 C   0  0  0  0  0  0  0  0  0  0  0  0
   -5.8762  -10.2711   -0.1934 O   0  0  0  0  0  0  0  0  0  0  0  0
   -5.2951   -8.2247    0.8285 C   0  0  2  0  0  0  0  0  0  0  0  0
   -6.1049   -7.6300   -0.3270 C   0  0  0  0  0  0  0  0  0  0  0  0
   -6.0556   -6.1026   -0.2450 C   0  0  0  0  0  0  0  0  0  0  0  0
   -4.6599   -5.6520   -0.3189 N   0  0  0  0  0  0  0  0  0  0  0  0
   -3.8737   -6.1721    0.8071 C   0  0  0  0  0  0  0  0  0  0  0  0
   -3.8579   -7.7016    0.7565 C   0  0  0  0  0  0  0  0  0  0  0  0
   -4.5826   -4.1864   -0.3824 C   0  0  0  0  0  0  0  0  0  0  0  0
   -5.1754   -3.7080   -1.6827 C   0  0  0  0  0  0  0  0  0  0  0  0
   -5.5145   -4.5107   -2.5263 O   0  0  0  0  0  0  0  0  0  0  0  0
   -5.3289   -2.3881   -1.9081 N   0  0  0  0  0  0  0  0  0  0  0  0
   -5.8800   -1.9433   -3.1169 N   0  0  0  0  0  0  0  0  0  0  0  0
   -6.0334   -0.6235   -3.3424 C   0  0  0  0  0  0  0  0  0  0  0  0
   -5.6944    0.1793   -2.4988 O   0  0  0  0  0  0  0  0  0  0  0  0
   -6.6263   -0.1450   -4.6427 C   0  0  0  0  0  0  0  0  0  0  0  0
   -6.6889    1.3837   -4.6427 C   0  0  1  0  0  0  0  0  0  0  0  0
   -5.2612    1.9531   -4.5999 C   0  0  0  0  0  0  0  0  0  0  0  0
   -5.3368    3.4743   -4.9155 C   0  0  0  0  0  0  0  0  0  0  0  0
   -6.5888    3.4763   -6.2673 S   0  0  0  0  0  0  0  0  0  0  0  0
   -5.9191    3.3939   -7.5179 O   0  0  0  0  0  0  0  0  0  0  0  0
   -7.5155    4.5287   -6.0376 O   0  0  0  0  0  0  0  0  0  0  0  0
   -7.4121    1.8682   -5.9225 C   0  0  0  0  0  0  0  0  0  0  0  0
   -3.4599  -14.3454    4.6837 H   0  0  0  0  0  0  0  0  0  0  0  0
   -1.9720  -14.2674    3.6810 H   0  0  0  0  0  0  0  0  0  0  0  0
   -3.0016  -15.7381    3.6471 H   0  0  0  0  0  0  0  0  0  0  0  0
   -3.3598  -14.3438    1.6148 H   0  0  0  0  0  0  0  0  0  0  0  0
   -4.8486  -14.4216    2.6169 H   0  0  0  0  0  0  0  0  0  0  0  0
   -4.2754  -12.2256    3.6392 H   0  0  0  0  0  0  0  0  0  0  0  0
   -2.7871  -12.1466    2.6365 H   0  0  0  0  0  0  0  0  0  0  0  0
   -4.1742  -12.2249    0.5711 H   0  0  0  0  0  0  0  0  0  0  0  0
   -5.6630  -12.3028    1.5731 H   0  0  0  0  0  0  0  0  0  0  0  0
   -4.1366  -10.0065    2.4091 H   0  0  0  0  0  0  0  0  0  0  0  0
   -5.7480   -7.9316    1.7871 H   0  0  0  0  0  0  0  0  0  0  0  0
   -7.1496   -7.9672   -0.2564 H   0  0  0  0  0  0  0  0  0  0  0  0
   -5.6754   -7.9598   -1.2845 H   0  0  0  0  0  0  0  0  0  0  0  0
   -6.6241   -5.6719   -1.0824 H   0  0  0  0  0  0  0  0  0  0  0  0
   -6.4971   -5.7710    0.7064 H   0  0  0  0  0  0  0  0  0  0  0  0
   -2.8432   -5.7930    0.7409 H   0  0  0  0  0  0  0  0  0  0  0  0
   -4.3252   -5.8421    1.7543 H   0  0  0  0  0  0  0  0  0  0  0  0
   -3.2823   -8.0907    1.6093 H   0  0  0  0  0  0  0  0  0  0  0  0
   -3.3923   -8.0323   -0.1836 H   0  0  0  0  0  0  0  0  0  0  0  0
   -5.1447   -3.7527    0.4578 H   0  0  0  0  0  0  0  0  0  0  0  0
   -3.5307   -3.8706   -0.3217 H   0  0  0  0  0  0  0  0  0  0  0  0
   -5.0410   -1.7064   -1.1916 H   0  0  0  0  0  0  0  0  0  0  0  0
   -6.1679   -2.6250   -3.8333 H   0  0  0  0  0  0  0  0  0  0  0  0
   -5.9987   -0.4857   -5.4794 H   0  0  0  0  0  0  0  0  0  0  0  0
   -7.6416   -0.5528   -4.7561 H   0  0  0  0  0  0  0  0  0  0  0  0
   -7.2440    1.7328   -3.7595 H   0  0  0  0  0  0  0  0  0  0  0  0
   -4.8335    1.8048   -3.5973 H   0  0  0  0  0  0  0  0  0  0  0  0
   -4.6384    1.4502   -5.3544 H   0  0  0  0  0  0  0  0  0  0  0  0
   -5.7187    4.0349   -4.0496 H   0  0  0  0  0  0  0  0  0  0  0  0
   -4.3733    3.8442   -5.2962 H   0  0  0  0  0  0  0  0  0  0  0  0
   -8.4818    2.0312   -5.7245 H   0  0  0  0  0  0  0  0  0  0  0  0
   -7.2334    1.1710   -6.7544 H   0  0  0  0  0  0  0  0  0  0  0  0
  1  2  1  0  0  0  0
  2  3  1  0  0  0  0
  3  4  1  0  0  0  0
  4  5  1  0  0  0  0
  5  6  1  0  0  0  0
  6  7  2  0  0  0  0
  6  8  1  0  0  0  0
  8 13  1  0  0  0  0
  8  9  1  0  0  0  0
  9 10  1  0  0  0  0
 10 11  1  0  0  0  0
 11 12  1  0  0  0  0
 11 14  1  0  0  0  0
 12 13  1  0  0  0  0
 14 15  1  0  0  0  0
 15 16  2  0  0  0  0
 15 17  1  0  0  0  0
 17 18  1  0  0  0  0
 18 19  1  0  0  0  0
 19 20  2  0  0  0  0
 19 21  1  0  0  0  0
 21 22  1  0  0  0  0
 22 28  1  0  0  0  0
 22 23  1  0  0  0  0
 23 24  1  0  0  0  0
 24 25  1  0  0  0  0
 25 26  2  0  0  0  0
 25 27  2  0  0  0  0
 25 28  1  0  0  0  0
  1 29  1  0  0  0  0
  1 30  1  0  0  0  0
  1 31  1  0  0  0  0
  2 32  1  0  0  0  0
  2 33  1  0  0  0  0
  3 34  1  0  0  0  0
  3 35  1  0  0  0  0
  4 36  1  0  0  0  0
  4 37  1  0  0  0  0
  5 38  1  0  0  0  0
  8 39  1  0  0  0  0
  9 40  1  0  0  0  0
  9 41  1  0  0  0  0
 10 42  1  0  0  0  0
 10 43  1  0  0  0  0
 12 44  1  0  0  0  0
 12 45  1  0  0  0  0
 13 46  1  0  0  0  0
 13 47  1  0  0  0  0
 14 48  1  0  0  0  0
 14 49  1  0  0  0  0
 17 50  1  0  0  0  0
 18 51  1  0  0  0  0
 21 52  1  0  0  0  0
 21 53  1  0  0  0  0
 22 54  1  0  0  0  0
 23 55  1  0  0  0  0
 23 56  1  0  0  0  0
 24 57  1  0  0  0  0
 24 58  1  0  0  0  0
 28 59  1  0  0  0  0
 28 60  1  0  0  0  0
M  END
> <Name>
ZINC30969187

> <reference>
BDB4965

> <quality>
0.662

> <status>
decoy

$$$$
ZINC04771070
  SciTegic06141217593D

 38 39  0  0  0  0            999 V2000
    2.5161    5.1694    2.2642 C   0  0  0  0  0  0  0  0  0  0  0  0
    2.1924    3.9178    3.0826 C   0  0  0  0  0  0  0  0  0  0  0  0
    1.2086    3.1412    2.3962 O   0  0  0  0  0  0  0  0  0  0  0  0
    0.8066    1.9871    2.9929 C   0  0  0  0  0  0  0  0  0  0  0  0
    1.3470    1.6111    4.2124 C   0  0  0  0  0  0  0  0  0  0  0  0
    0.9376    0.4378    4.8180 C   0  0  0  0  0  0  0  0  0  0  0  0
   -0.0110   -0.3632    4.2098 C   0  0  0  0  0  0  0  0  0  0  0  0
   -0.5594    0.0094    2.9959 C   0  0  0  0  0  0  0  0  0  0  0  0
   -0.1484    1.1818    2.3806 C   0  0  0  0  0  0  0  0  0  0  0  0
   -0.6816    1.5467    1.1837 O   0  0  0  0  0  0  0  0  0  0  0  0
   -0.0127    1.0858    0.0080 C   0  0  0  0  0  0  0  0  0  0  0  0
   -0.7527    1.5927   -1.2315 C   0  0  0  0  0  0  0  0  0  0  0  0
   -1.8634   -1.0844    2.1717 Br  0  0  0  0  0  0  0  0  0  0  0  0
    1.5270    0.0307    6.1438 C   0  0  0  0  0  0  0  0  0  0  0  0
    0.7143    0.5886    7.2330 N   0  0  0  0  0  0  0  0  0  0  0  0
    1.2220    0.2379    8.4517 N   0  0  0  0  0  0  0  0  0  0  0  0
    0.7367    0.5704    9.6703 C   0  0  0  0  0  0  0  0  0  0  0  0
    1.5299    0.0236   10.5650 N   0  0  0  0  0  0  0  0  0  0  0  0
    2.4761   -0.6269    9.9899 N   0  0  0  0  0  0  0  0  0  0  0  0
    2.3570   -0.5509    8.7086 N   0  0  0  0  0  0  0  0  0  0  0  0
   -0.3836    1.3410    9.9265 N   0  0  0  0  0  0  0  0  0  0  0  0
    1.6032    5.7688    2.1324 H   0  0  0  0  0  0  0  0  0  0  0  0
    2.9054    4.8739    1.2787 H   0  0  0  0  0  0  0  0  0  0  0  0
    3.2734    5.7677    2.7920 H   0  0  0  0  0  0  0  0  0  0  0  0
    3.1057    3.3188    3.2136 H   0  0  0  0  0  0  0  0  0  0  0  0
    1.8031    4.2133    4.0681 H   0  0  0  0  0  0  0  0  0  0  0  0
    2.1019    2.2465    4.6986 H   0  0  0  0  0  0  0  0  0  0  0  0
   -0.3303   -1.2988    4.6923 H   0  0  0  0  0  0  0  0  0  0  0  0
    1.0191    1.4669   -0.0002 H   0  0  0  0  0  0  0  0  0  0  0  0
    0.0025   -0.0141    0.0008 H   0  0  0  0  0  0  0  0  0  0  0  0
   -0.7679    2.6926   -1.2265 H   0  0  0  0  0  0  0  0  0  0  0  0
   -1.7848    1.2123   -1.2248 H   0  0  0  0  0  0  0  0  0  0  0  0
   -0.2383    1.2383   -2.1369 H   0  0  0  0  0  0  0  0  0  0  0  0
    1.5368   -1.0667    6.2194 H   0  0  0  0  0  0  0  0  0  0  0  0
    2.5555    0.4129    6.2219 H   0  0  0  0  0  0  0  0  0  0  0  0
   -0.1266    1.1673    7.0960 H   0  0  0  0  0  0  0  0  0  0  0  0
   -0.8835    1.6860    9.0946 H   0  0  0  0  0  0  0  0  0  0  0  0
   -0.7092    1.5639   10.8779 H   0  0  0  0  0  0  0  0  0  0  0  0
  1  2  1  0  0  0  0
  2  3  1  0  0  0  0
  3  4  1  0  0  0  0
  4  9  2  0  0  0  0
  4  5  1  0  0  0  0
  5  6  2  0  0  0  0
  6  7  1  0  0  0  0
  6 14  1  0  0  0  0
  7  8  2  0  0  0  0
  8  9  1  0  0  0  0
  8 13  1  0  0  0  0
  9 10  1  0  0  0  0
 10 11  1  0  0  0  0
 11 12  1  0  0  0  0
 14 15  1  0  0  0  0
 15 16  1  0  0  0  0
 16 20  1  0  0  0  0
 16 17  1  0  0  0  0
 17 18  2  0  0  0  0
 17 21  1  0  0  0  0
 18 19  1  0  0  0  0
 19 20  2  0  0  0  0
  1 22  1  0  0  0  0
  1 23  1  0  0  0  0
  1 24  1  0  0  0  0
  2 25  1  0  0  0  0
  2 26  1  0  0  0  0
  5 27  1  0  0  0  0
  7 28  1  0  0  0  0
 11 29  1  0  0  0  0
 11 30  1  0  0  0  0
 12 31  1  0  0  0  0
 12 32  1  0  0  0  0
 12 33  1  0  0  0  0
 14 34  1  0  0  0  0
 14 35  1  0  0  0  0
 15 36  1  0  0  0  0
 21 37  1  0  0  0  0
 21 38  1  0  0  0  0
M  END
> <Name>
ZINC04771070

> <reference>
BDB5003

> <quality>
0.668

> <status>
decoy

$$$$
ZINC05202206
  SciTegic06141217593D

 45 46  0  0  0  0            999 V2000
    2.6149   -1.5017    3.4829 C   0  0  0  0  0  0  0  0  0  0  0  0
    1.5868   -0.4197    3.2752 C   0  0  0  0  0  0  0  0  0  0  0  0
    1.5072    0.7951    3.9890 C   0  0  0  0  0  0  0  0  0  0  0  0
    0.4298    1.4937    3.4893 C   0  0  0  0  0  0  0  0  0  0  0  0
   -0.1224    0.7411    2.5164 N   0  0  0  0  0  0  0  0  0  0  0  0
    0.6119   -0.4454    2.4068 N   0  0  0  0  0  0  0  0  0  0  0  0
   -1.2948    1.1010    1.7151 C   0  0  0  0  0  0  0  0  0  0  0  0
   -0.8443    1.8550    0.4623 C   0  0  0  0  0  0  0  0  0  0  0  0
   -1.9879    2.2061   -0.3193 O   0  0  0  0  0  0  0  0  0  0  0  0
   -0.0445    2.8491    3.9466 C   0  0  0  0  0  0  0  0  0  0  0  0
    2.3459    1.2040    4.9933 N   0  0  0  0  0  0  0  0  0  0  0  0
    2.5950    0.4182    5.9856 N   0  0  0  0  0  0  0  0  0  0  0  0
    3.5295    0.7728    6.9221 C   0  0  0  0  0  0  0  0  0  0  0  0
    4.2997    1.9561    6.9304 C   0  0  0  0  0  0  0  0  0  0  0  0
    5.0715    1.9301    7.9828 N   0  0  0  0  0  0  0  0  0  0  0  0
    4.8417    0.7405    8.6832 N   0  0  0  0  0  0  0  0  0  0  0  0
    3.8978    0.0377    8.0292 C   0  0  0  0  0  0  0  0  0  0  0  0
    3.3452   -1.3050    8.4329 C   0  0  0  0  0  0  0  0  0  0  0  0
    5.5137    0.3300    9.9186 C   0  0  0  0  0  0  0  0  0  0  0  0
    6.7727   -0.4680    9.5733 C   0  0  0  0  0  0  0  0  0  0  0  0
    7.4282   -0.8685   10.7783 O   0  0  0  0  0  0  0  0  0  0  0  0
    4.2384    3.0589    5.9051 C   0  0  0  0  0  0  0  0  0  0  0  0
    1.9023   -0.8108    6.1066 O   0  0  0  0  0  0  0  0  0  0  0  0
    3.0403   -1.6308    2.4767 H   0  0  0  0  0  0  0  0  0  0  0  0
    1.9974   -2.3926    3.6700 H   0  0  0  0  0  0  0  0  0  0  0  0
    3.3665   -1.3092    4.2626 H   0  0  0  0  0  0  0  0  0  0  0  0
   -1.8315    0.1875    1.4194 H   0  0  0  0  0  0  0  0  0  0  0  0
   -1.9627    1.7430    2.3082 H   0  0  0  0  0  0  0  0  0  0  0  0
   -0.3078    2.7689    0.7573 H   0  0  0  0  0  0  0  0  0  0  0  0
   -0.1772    1.2140   -0.1327 H   0  0  0  0  0  0  0  0  0  0  0  0
   -2.5889    2.7839    0.2145 H   0  0  0  0  0  0  0  0  0  0  0  0
    0.8621    3.4636    3.8444 H   0  0  0  0  0  0  0  0  0  0  0  0
   -0.1825    2.6989    5.0275 H   0  0  0  0  0  0  0  0  0  0  0  0
   -0.9264    3.2607    3.4340 H   0  0  0  0  0  0  0  0  0  0  0  0
    3.5086   -1.9093    7.5284 H   0  0  0  0  0  0  0  0  0  0  0  0
    2.2628   -1.1130    8.4716 H   0  0  0  0  0  0  0  0  0  0  0  0
    3.7556   -1.7505    9.3511 H   0  0  0  0  0  0  0  0  0  0  0  0
    5.7932    1.2222   10.4981 H   0  0  0  0  0  0  0  0  0  0  0  0
    4.8352   -0.2972   10.5155 H   0  0  0  0  0  0  0  0  0  0  0  0
    7.4530    0.1581    8.9773 H   0  0  0  0  0  0  0  0  0  0  0  0
    6.4938   -1.3606    8.9941 H   0  0  0  0  0  0  0  0  0  0  0  0
    6.8175   -1.4330   11.3154 H   0  0  0  0  0  0  0  0  0  0  0  0
    3.1700    3.3205    5.9023 H   0  0  0  0  0  0  0  0  0  0  0  0
    4.4141    2.5173    4.9640 H   0  0  0  0  0  0  0  0  0  0  0  0
    4.9100    3.9158    6.0620 H   0  0  0  0  0  0  0  0  0  0  0  0
  1  2  1  0  0  0  0
  2  6  2  0  0  0  0
  2  3  1  0  0  0  0
  3  4  2  0  0  0  0
  3 11  1  0  0  0  0
  4  5  1  0  0  0  0
  4 10  1  0  0  0  0
  5  6  1  0  0  0  0
  5  7  1  0  0  0  0
  7  8  1  0  0  0  0
  8  9  1  0  0  0  0
 11 12  2  0  0  0  0
 12 13  1  0  0  0  0
 12 23  2  0  0  0  0
 13 17  2  0  0  0  0
 13 14  1  0  0  0  0
 14 15  2  0  0  0  0
 14 22  1  0  0  0  0
 15 16  1  0  0  0  0
 16 17  1  0  0  0  0
 16 19  1  0  0  0  0
 17 18  1  0  0  0  0
 19 20  1  0  0  0  0
 20 21  1  0  0  0  0
  1 24  1  0  0  0  0
  1 25  1  0  0  0  0
  1 26  1  0  0  0  0
  7 27  1  0  0  0  0
  7 28  1  0  0  0  0
  8 29  1  0  0  0  0
  8 30  1  0  0  0  0
  9 31  1  0  0  0  0
 10 32  1  0  0  0  0
 10 33  1  0  0  0  0
 10 34  1  0  0  0  0
 18 35  1  0  0  0  0
 18 36  1  0  0  0  0
 18 37  1  0  0  0  0
 19 38  1  0  0  0  0
 19 39  1  0  0  0  0
 20 40  1  0  0  0  0
 20 41  1  0  0  0  0
 21 42  1  0  0  0  0
 22 43  1  0  0  0  0
 22 44  1  0  0  0  0
 22 45  1  0  0  0  0
M  END
> <Name>
ZINC05202206

> <reference>
BDB5198

> <quality>
0.777

> <status>
decoy

$$$$
ZINC19001641
  SciTegic06141217593D

 42 42  0  0  1  0            999 V2000
    0.6061   -0.4987   -1.3138 C   0  0  0  0  0  0  0  0  0  0  0  0
    0.0021   -0.0041    0.0020 C   0  0  1  0  0  0  0  0  0  0  0  0
    0.8475   -0.5091    1.1729 C   0  0  0  0  0  0  0  0  0  0  0  0
   -0.0187    1.5258    0.0104 C   0  0  0  0  0  0  0  0  0  0  0  0
   -0.7044    1.9982    1.2158 N   0  0  0  0  0  0  0  0  0  0  0  0
   -0.8434    3.3203    1.4375 C   0  0  0  0  0  0  0  0  0  0  0  0
   -0.4000    4.1206    0.6375 O   0  0  0  0  0  0  0  0  0  0  0  0
   -1.4743    3.7550    2.5463 N   0  0  0  0  0  0  0  0  0  0  0  0
   -1.6133    5.0771    2.7681 C   0  0  0  0  0  0  0  0  0  0  0  0
   -1.1710    5.8754    1.9701 O   0  0  0  0  0  0  0  0  0  0  0  0
   -2.3187    5.5631    4.0079 C   0  0  0  0  0  0  0  0  0  0  0  0
   -2.3384    7.0149    4.0159 O   0  0  0  0  0  0  0  0  0  0  0  0
   -2.9347    7.6106    5.0606 C   0  0  0  0  0  0  0  0  0  0  0  0
   -3.4240    6.9410    5.9393 O   0  0  0  0  0  0  0  0  0  0  0  0
   -2.9939    9.1144    5.1376 C   0  0  0  0  0  0  0  0  0  0  0  0
   -3.7211    9.5314    6.4175 C   0  0  0  0  0  0  0  0  0  0  0  0
   -3.7812   11.0582    6.4956 C   0  0  1  0  0  0  0  0  0  0  0  0
   -4.5588   11.4994    7.7197 C   0  0  0  0  0  0  0  0  0  0  0  0
   -5.7213   11.2655    7.9723 O   0  0  0  0  0  0  0  0  0  0  0  0
   -3.6890   12.2049    8.4692 N   0  0  0  0  0  0  0  0  0  0  0  0
   -2.4824   12.2702    7.8947 C   0  0  0  0  0  0  0  0  0  0  0  0
   -1.5331   12.8527    8.3812 O   0  0  0  0  0  0  0  0  0  0  0  0
   -2.4368   11.6193    6.7144 N   0  5  0  0  0  0  0  0  0  0  0  0
    0.6212   -1.5986   -1.3210 H   0  0  0  0  0  0  0  0  0  0  0  0
    1.6333   -0.1178   -1.4130 H   0  0  0  0  0  0  0  0  0  0  0  0
   -0.0013   -0.1359   -2.1561 H   0  0  0  0  0  0  0  0  0  0  0  0
   -1.0251   -0.3853    0.1001 H   0  0  0  0  0  0  0  0  0  0  0  0
    1.8749   -0.1282    1.0759 H   0  0  0  0  0  0  0  0  0  0  0  0
    0.8629   -1.6090    1.1679 H   0  0  0  0  0  0  0  0  0  0  0  0
    0.4138   -0.1538    2.1193 H   0  0  0  0  0  0  0  0  0  0  0  0
    1.0132    1.9067    0.0031 H   0  0  0  0  0  0  0  0  0  0  0  0
   -0.5508    1.8913   -0.8803 H   0  0  0  0  0  0  0  0  0  0  0  0
   -1.0802    1.3200    1.8938 H   0  0  0  0  0  0  0  0  0  0  0  0
   -1.8503    3.0768    3.2242 H   0  0  0  0  0  0  0  0  0  0  0  0
   -3.3509    5.1829    4.0155 H   0  0  0  0  0  0  0  0  0  0  0  0
   -1.7874    5.1994    4.8998 H   0  0  0  0  0  0  0  0  0  0  0  0
   -1.9721    9.5217    5.1478 H   0  0  0  0  0  0  0  0  0  0  0  0
   -3.5361    9.5063    4.2644 H   0  0  0  0  0  0  0  0  0  0  0  0
   -4.7431    9.1248    6.4078 H   0  0  0  0  0  0  0  0  0  0  0  0
   -3.1796    9.1413    7.2919 H   0  0  0  0  0  0  0  0  0  0  0  0
   -4.2378   11.3973    5.5541 H   0  0  0  0  0  0  0  0  0  0  0  0
   -3.9240   12.6401    9.3727 H   0  0  0  0  0  0  0  0  0  0  0  0
  1  2  1  0  0  0  0
  2  3  1  0  0  0  0
  2  4  1  0  0  0  0
  4  5  1  0  0  0  0
  5  6  1  0  0  0  0
  6  7  2  0  0  0  0
  6  8  1  0  0  0  0
  8  9  1  0  0  0  0
  9 10  2  0  0  0  0
  9 11  1  0  0  0  0
 11 12  1  0  0  0  0
 12 13  1  0  0  0  0
 13 14  2  0  0  0  0
 13 15  1  0  0  0  0
 15 16  1  0  0  0  0
 16 17  1  0  0  0  0
 17 23  1  0  0  0  0
 17 18  1  0  0  0  0
 18 19  2  0  0  0  0
 18 20  1  0  0  0  0
 20 21  1  0  0  0  0
 21 22  2  0  0  0  0
 21 23  1  0  0  0  0
  1 24  1  0  0  0  0
  1 25  1  0  0  0  0
  1 26  1  0  0  0  0
  2 27  1  0  0  0  0
  3 28  1  0  0  0  0
  3 29  1  0  0  0  0
  3 30  1  0  0  0  0
  4 31  1  0  0  0  0
  4 32  1  0  0  0  0
  5 33  1  0  0  0  0
  8 34  1  0  0  0  0
 11 35  1  0  0  0  0
 11 36  1  0  0  0  0
 15 37  1  0  0  0  0
 15 38  1  0  0  0  0
 16 39  1  0  0  0  0
 16 40  1  0  0  0  0
 17 41  1  0  0  0  0
 20 42  1  0  0  0  0
M  CHG  1  23  -1
M  END
> <Name>
ZINC19001641

> <reference>
BDB5024

> <quality>
0.669

> <status>
decoy

$$$$
ZINC19752419
  SciTegic06141217593D

 40 41  0  0  1  0            999 V2000
    6.7583    2.9835   -1.4747 C   0  0  0  0  0  0  0  0  0  0  0  0
    5.2301    3.0388   -1.4254 C   0  0  0  0  0  0  0  0  0  0  0  0
    4.7500    2.6378   -0.0291 C   0  0  2  0  0  0  0  0  0  0  0  0
    3.2445    2.5730   -0.0149 C   0  0  0  0  0  0  0  0  0  0  0  0
    2.4541    3.6062   -0.0024 N   0  0  0  0  0  0  0  0  0  0  0  0
    1.1603    3.1920    0.0076 C   0  0  0  0  0  0  0  0  0  0  0  0
   -0.0649    3.8661    0.0229 C   0  0  0  0  0  0  0  0  0  0  0  0
   -1.2419    3.1480    0.0307 C   0  0  0  0  0  0  0  0  0  0  0  0
   -1.2174    1.7517    0.0173 C   0  0  0  0  0  0  0  0  0  0  0  0
   -0.0126    1.0758    0.0080 C   0  0  0  0  0  0  0  0  0  0  0  0
    1.1795    1.7879    0.0004 C   0  0  0  0  0  0  0  0  0  0  0  0
    2.5133    1.4252   -0.0139 N   0  0  0  0  0  0  0  0  0  0  0  0
    3.0417    0.0588   -0.0257 C   0  0  0  0  0  0  0  0  0  0  0  0
    3.2101   -0.4023   -1.4505 C   0  0  0  0  0  0  0  0  0  0  0  0
    2.9187    0.3347   -2.3625 O   0  0  0  0  0  0  0  0  0  0  0  0
    3.6839   -1.6319   -1.7064 O   0  5  0  0  0  0  0  0  0  0  0  0
   -2.3850    1.0541    0.0195 O   0  0  0  0  0  0  0  0  0  0  0  0
   -2.2889   -0.3717    0.0118 C   0  0  0  0  0  0  0  0  0  0  0  0
   -2.4340    3.8034    0.0450 O   0  0  0  0  0  0  0  0  0  0  0  0
   -2.3891    5.2317    0.0513 C   0  0  0  0  0  0  0  0  0  0  0  0
    5.2066    3.6329    0.9502 N   0  3  0  0  0  0  0  0  0  0  0  0
    7.0966    1.9610   -1.2510 H   0  0  0  0  0  0  0  0  0  0  0  0
    7.1756    3.6781   -0.7308 H   0  0  0  0  0  0  0  0  0  0  0  0
    7.1041    3.2717   -2.4784 H   0  0  0  0  0  0  0  0  0  0  0  0
    4.8927    4.0616   -1.6489 H   0  0  0  0  0  0  0  0  0  0  0  0
    4.8128    2.3442   -2.1693 H   0  0  0  0  0  0  0  0  0  0  0  0
    5.1619    1.6516    0.2311 H   0  0  0  0  0  0  0  0  0  0  0  0
   -0.0895    4.9658    0.0287 H   0  0  0  0  0  0  0  0  0  0  0  0
    0.0024   -0.0241    0.0066 H   0  0  0  0  0  0  0  0  0  0  0  0
    2.3415   -0.6108    0.4953 H   0  0  0  0  0  0  0  0  0  0  0  0
    4.0165    0.0381    0.4835 H   0  0  0  0  0  0  0  0  0  0  0  0
   -1.6960   -0.6465    0.8966 H   0  0  0  0  0  0  0  0  0  0  0  0
   -1.7047   -0.6374   -0.8816 H   0  0  0  0  0  0  0  0  0  0  0  0
   -3.2723   -0.8645    0.0141 H   0  0  0  0  0  0  0  0  0  0  0  0
   -1.8190    5.5271   -0.8418 H   0  0  0  0  0  0  0  0  0  0  0  0
   -1.8022    5.5187    0.9363 H   0  0  0  0  0  0  0  0  0  0  0  0
   -3.3895    5.6889    0.0629 H   0  0  0  0  0  0  0  0  0  0  0  0
    4.8212    4.5568    0.7076 H   0  0  0  0  0  0  0  0  0  0  0  0
    6.2356    3.6777    0.9414 H   0  0  0  0  0  0  0  0  0  0  0  0
    4.8837    3.3635    1.8904 H   0  0  0  0  0  0  0  0  0  0  0  0
  1  2  1  0  0  0  0
  2  3  1  0  0  0  0
  3  4  1  0  0  0  0
  3 21  1  0  0  0  0
  4 12  1  0  0  0  0
  4  5  2  0  0  0  0
  5  6  1  0  0  0  0
  6 11  1  0  0  0  0
  6  7  2  0  0  0  0
  7  8  1  0  0  0  0
  8  9  2  0  0  0  0
  8 19  1  0  0  0  0
  9 10  1  0  0  0  0
  9 17  1  0  0  0  0
 10 11  2  0  0  0  0
 11 12  1  0  0  0  0
 12 13  1  0  0  0  0
 13 14  1  0  0  0  0
 14 15  2  0  0  0  0
 14 16  1  0  0  0  0
 17 18  1  0  0  0  0
 19 20  1  0  0  0  0
  1 22  1  0  0  0  0
  1 23  1  0  0  0  0
  1 24  1  0  0  0  0
  2 25  1  0  0  0  0
  2 26  1  0  0  0  0
  3 27  1  0  0  0  0
  7 28  1  0  0  0  0
 10 29  1  0  0  0  0
 13 30  1  0  0  0  0
 13 31  1  0  0  0  0
 18 32  1  0  0  0  0
 18 33  1  0  0  0  0
 18 34  1  0  0  0  0
 20 35  1  0  0  0  0
 20 36  1  0  0  0  0
 20 37  1  0  0  0  0
 21 38  1  0  0  0  0
 21 39  1  0  0  0  0
 21 40  1  0  0  0  0
M  CHG  2  16  -1  21   1
M  END
> <Name>
ZINC19752419

> <reference>
BDB4995

> <quality>
0.772

> <status>
decoy

$$$$
ZINC20190413
  SciTegic06141217593D

 33 34  0  0  0  0            999 V2000
   -1.7393    0.6328    4.8535 C   0  0  0  0  0  0  0  0  0  0  0  0
   -1.6512    2.0128    4.9473 C   0  0  0  0  0  0  0  0  0  0  0  0
   -1.6442    2.7357    3.8396 N   0  0  0  0  0  0  0  0  0  0  0  0
   -1.7201    2.1548    2.6513 C   0  0  0  0  0  0  0  0  0  0  0  0
   -1.8107    0.8388    2.5271 N   0  0  0  0  0  0  0  0  0  0  0  0
   -1.8173    0.0578    3.5948 C   0  0  0  0  0  0  0  0  0  0  0  0
   -1.7102    2.9417    1.5127 N   0  5  0  0  0  0  0  0  0  0  0  0
   -1.4354    2.2525    0.0322 S   0  0  0  0  0  0  0  0  0  0  0  0
   -1.4080    3.3145   -0.9114 O   0  0  0  0  0  0  0  0  0  0  0  0
   -2.3341    1.1574   -0.0791 O   0  0  0  0  0  0  0  0  0  0  0  0
    0.1885    1.5694    0.0689 C   0  0  0  0  0  0  0  0  0  0  0  0
    0.3663    0.2029   -0.0385 C   0  0  0  0  0  0  0  0  0  0  0  0
    1.6403   -0.3327   -0.0155 C   0  0  0  0  0  0  0  0  0  0  0  0
    2.7383    0.4977    0.1145 C   0  0  0  0  0  0  0  0  0  0  0  0
    2.5629    1.8640    0.2225 C   0  0  0  0  0  0  0  0  0  0  0  0
    1.2870    2.4017    0.1996 C   0  0  0  0  0  0  0  0  0  0  0  0
    1.1144    3.7376    0.3042 F   0  0  0  0  0  0  0  0  0  0  0  0
    1.8329   -1.8227   -0.1327 C   0  0  0  0  0  0  0  0  0  0  0  0
    1.9756   -2.2040   -1.6076 C   0  0  0  0  0  0  0  0  0  0  0  0
    2.1633   -3.6565   -1.7218 N   0  3  0  0  0  0  0  0  0  0  0  0
   -1.7471    0.0074    5.7584 H   0  0  0  0  0  0  0  0  0  0  0  0
   -1.5879    2.5010    5.9310 H   0  0  0  0  0  0  0  0  0  0  0  0
   -1.8839   -1.0347    3.4850 H   0  0  0  0  0  0  0  0  0  0  0  0
   -0.5064   -0.4586   -0.1423 H   0  0  0  0  0  0  0  0  0  0  0  0
    3.7518    0.0704    0.1319 H   0  0  0  0  0  0  0  0  0  0  0  0
    3.4365    2.5243    0.3266 H   0  0  0  0  0  0  0  0  0  0  0  0
    2.7417   -2.1190    0.4117 H   0  0  0  0  0  0  0  0  0  0  0  0
    0.9628   -2.3409    0.2967 H   0  0  0  0  0  0  0  0  0  0  0  0
    2.8460   -1.6875   -2.0384 H   0  0  0  0  0  0  0  0  0  0  0  0
    1.0670   -1.9083   -2.1525 H   0  0  0  0  0  0  0  0  0  0  0  0
    1.3485   -4.1417   -1.3198 H   0  0  0  0  0  0  0  0  0  0  0  0
    3.0139   -3.9349   -1.2121 H   0  0  0  0  0  0  0  0  0  0  0  0
    2.2594   -3.9139   -2.7145 H   0  0  0  0  0  0  0  0  0  0  0  0
  1  6  2  0  0  0  0
  1  2  1  0  0  0  0
  2  3  2  0  0  0  0
  3  4  1  0  0  0  0
  4  5  2  0  0  0  0
  4  7  1  0  0  0  0
  5  6  1  0  0  0  0
  7  8  1  0  0  0  0
  8  9  2  0  0  0  0
  8 10  2  0  0  0  0
  8 11  1  0  0  0  0
 11 16  2  0  0  0  0
 11 12  1  0  0  0  0
 12 13  2  0  0  0  0
 13 14  1  0  0  0  0
 13 18  1  0  0  0  0
 14 15  2  0  0  0  0
 15 16  1  0  0  0  0
 16 17  1  0  0  0  0
 18 19  1  0  0  0  0
 19 20  1  0  0  0  0
  1 21  1  0  0  0  0
  2 22  1  0  0  0  0
  6 23  1  0  0  0  0
 12 24  1  0  0  0  0
 14 25  1  0  0  0  0
 15 26  1  0  0  0  0
 18 27  1  0  0  0  0
 18 28  1  0  0  0  0
 19 29  1  0  0  0  0
 19 30  1  0  0  0  0
 20 31  1  0  0  0  0
 20 32  1  0  0  0  0
 20 33  1  0  0  0  0
M  CHG  2   7  -1  20   1
M  END
> <Name>
ZINC20190413

> <reference>
BDB5242

> <quality>
0.776

> <status>
decoy

$$$$
ZINC28996368
  SciTegic06141217593D

 37 38  0  0  0  0            999 V2000
   -0.0167    1.3773    0.0096 C   0  0  0  0  0  0  0  0  0  0  0  0
    0.0021   -0.0041    0.0020 C   0  0  0  0  0  0  0  0  0  0  0  0
    1.2100   -0.6806   -0.0131 C   0  0  0  0  0  0  0  0  0  0  0  0
    2.4006    0.0261   -0.0207 C   0  0  0  0  0  0  0  0  0  0  0  0
    2.3848    1.4074   -0.0127 C   0  0  0  0  0  0  0  0  0  0  0  0
    1.1754    2.0865    0.0020 C   0  0  0  0  0  0  0  0  0  0  0  0
    1.1584    3.4458    0.0091 O   0  0  0  0  0  0  0  0  0  0  0  0
    2.4234    4.1105    0.0006 C   0  0  0  0  0  0  0  0  0  0  0  0
    2.2039    5.6246    0.0103 C   0  0  0  0  0  0  0  0  0  0  0  0
    1.5679    6.0179    1.2701 N   0  0  0  0  0  0  0  0  0  0  0  0
    1.2770    7.3132    1.5025 C   0  0  0  0  0  0  0  0  0  0  0  0
    1.5424    8.1553    0.6667 O   0  0  0  0  0  0  0  0  0  0  0  0
    0.6919    7.6749    2.6615 N   0  0  0  0  0  0  0  0  0  0  0  0
    0.3861    6.7045    3.6246 N   0  0  0  0  0  0  0  0  0  0  0  0
   -0.1990    7.0663    4.7836 C   0  0  0  0  0  0  0  0  0  0  0  0
   -0.4613    8.2341    4.9932 O   0  0  0  0  0  0  0  0  0  0  0  0
   -0.5223    6.0401    5.8021 C   0  0  0  0  0  0  0  0  0  0  0  0
   -1.1277    6.4121    7.0019 C   0  0  0  0  0  0  0  0  0  0  0  0
   -1.4144    5.4935    7.9066 N   0  0  0  0  0  0  0  0  0  0  0  0
   -1.1283    4.2244    7.6754 C   0  0  0  0  0  0  0  0  0  0  0  0
   -0.5260    3.8510    6.4827 C   0  0  0  0  0  0  0  0  0  0  0  0
   -0.2411    4.7606    5.5724 N   0  0  0  0  0  0  0  0  0  0  0  0
    1.2269   -2.0315   -0.0201 F   0  0  0  0  0  0  0  0  0  0  0  0
   -0.9765    1.9145    0.0217 H   0  0  0  0  0  0  0  0  0  0  0  0
   -0.9431   -0.5668    0.0079 H   0  0  0  0  0  0  0  0  0  0  0  0
    3.3596   -0.5126   -0.0331 H   0  0  0  0  0  0  0  0  0  0  0  0
    3.3309    1.9685   -0.0180 H   0  0  0  0  0  0  0  0  0  0  0  0
    2.9815    3.8275   -0.9040 H   0  0  0  0  0  0  0  0  0  0  0  0
    2.9975    3.8181    0.8922 H   0  0  0  0  0  0  0  0  0  0  0  0
    3.1729    6.1363   -0.0861 H   0  0  0  0  0  0  0  0  0  0  0  0
    1.5546    5.9075   -0.8313 H   0  0  0  0  0  0  0  0  0  0  0  0
    1.3431    5.3045    1.9782 H   0  0  0  0  0  0  0  0  0  0  0  0
    0.4696    8.6648    2.8392 H   0  0  0  0  0  0  0  0  0  0  0  0
    0.6084    5.7146    3.4469 H   0  0  0  0  0  0  0  0  0  0  0  0
   -1.3660    7.4685    7.1945 H   0  0  0  0  0  0  0  0  0  0  0  0
   -1.3684    3.4617    8.4308 H   0  0  0  0  0  0  0  0  0  0  0  0
   -0.2858    2.7938    6.2964 H   0  0  0  0  0  0  0  0  0  0  0  0
  1  6  2  0  0  0  0
  1  2  1  0  0  0  0
  2  3  2  0  0  0  0
  3  4  1  0  0  0  0
  3 23  1  0  0  0  0
  4  5  2  0  0  0  0
  5  6  1  0  0  0  0
  6  7  1  0  0  0  0
  7  8  1  0  0  0  0
  8  9  1  0  0  0  0
  9 10  1  0  0  0  0
 10 11  1  0  0  0  0
 11 12  2  0  0  0  0
 11 13  1  0  0  0  0
 13 14  1  0  0  0  0
 14 15  1  0  0  0  0
 15 16  2  0  0  0  0
 15 17  1  0  0  0  0
 17 22  2  0  0  0  0
 17 18  1  0  0  0  0
 18 19  2  0  0  0  0
 19 20  1  0  0  0  0
 20 21  2  0  0  0  0
 21 22  1  0  0  0  0
  1 24  1  0  0  0  0
  2 25  1  0  0  0  0
  4 26  1  0  0  0  0
  5 27  1  0  0  0  0
  8 28  1  0  0  0  0
  8 29  1  0  0  0  0
  9 30  1  0  0  0  0
  9 31  1  0  0  0  0
 10 32  1  0  0  0  0
 13 33  1  0  0  0  0
 14 34  1  0  0  0  0
 18 35  1  0  0  0  0
 20 36  1  0  0  0  0
 21 37  1  0  0  0  0
M  END
> <Name>
ZINC28996368

> <reference>
BDB5219

> <quality>
0.680

> <status>
decoy

$$$$
ZINC09047672
  SciTegic06141217593D

 37 38  0  0  0  0            999 V2000
    7.2773   -0.6326   -1.3242 C   0  0  0  0  0  0  0  0  0  0  0  0
    8.5112    0.8258    0.1634 C   0  0  0  0  0  0  0  0  0  0  0  0
    6.1113    1.0646   -0.0506 C   0  0  0  0  0  0  0  0  0  0  0  0
    4.7968    0.2817   -0.0422 C   0  0  0  0  0  0  0  0  0  0  0  0
    3.6705    1.2184   -0.0264 N   0  0  0  0  0  0  0  0  0  0  0  0
    2.4061    0.7519   -0.0169 C   0  0  0  0  0  0  0  0  0  0  0  0
    2.2007   -0.4434   -0.0213 O   0  0  0  0  0  0  0  0  0  0  0  0
    1.2475    1.7155   -0.0006 C   0  0  0  0  0  0  0  0  0  0  0  0
   -0.0111    0.9658    0.0074 N   0  0  0  0  0  0  0  0  0  0  0  0
   -1.2187    1.6414    0.0168 C   0  0  0  0  0  0  0  0  0  0  0  0
   -2.4358    0.9382    0.0187 C   0  0  0  0  0  0  0  0  0  0  0  0
   -3.6298    1.6782    0.0289 C   0  0  0  0  0  0  0  0  0  0  0  0
   -4.6461    0.7567    0.0278 N   0  0  0  0  0  0  0  0  0  0  0  0
   -4.0751   -0.4814    0.0174 C   0  0  0  0  0  0  0  0  0  0  0  0
   -2.7784   -0.3726    0.0121 N   0  0  0  0  0  0  0  0  0  0  0  0
   -3.5672    3.0061    0.0369 N   0  0  0  0  0  0  0  0  0  0  0  0
   -2.4033    3.6233    0.0353 C   0  0  0  0  0  0  0  0  0  0  0  0
   -1.2544    2.9696    0.0297 N   0  0  0  0  0  0  0  0  0  0  0  0
   -2.3775    5.3591    0.0461 Cl  0  0  0  0  0  0  0  0  0  0  0  0
    7.2368    0.1066   -0.0450 N   0  3  0  0  0  0  0  0  0  0  0  0
    8.1062   -1.3553   -1.3004 H   0  0  0  0  0  0  0  0  0  0  0  0
    7.4367    0.0771   -2.1494 H   0  0  0  0  0  0  0  0  0  0  0  0
    6.3273   -1.1661   -1.4752 H   0  0  0  0  0  0  0  0  0  0  0  0
    8.6688    1.5335   -0.6639 H   0  0  0  0  0  0  0  0  0  0  0  0
    9.3384    0.1010    0.1851 H   0  0  0  0  0  0  0  0  0  0  0  0
    8.4767    1.3744    1.1162 H   0  0  0  0  0  0  0  0  0  0  0  0
    6.1670    1.7024    0.8439 H   0  0  0  0  0  0  0  0  0  0  0  0
    6.1631    1.6877   -0.9556 H   0  0  0  0  0  0  0  0  0  0  0  0
    4.7381   -0.3463   -0.9434 H   0  0  0  0  0  0  0  0  0  0  0  0
    4.7546   -0.3565    0.8528 H   0  0  0  0  0  0  0  0  0  0  0  0
    3.8449    2.2335   -0.0226 H   0  0  0  0  0  0  0  0  0  0  0  0
    1.3053    2.3435    0.9007 H   0  0  0  0  0  0  0  0  0  0  0  0
    1.2875    2.3539   -0.8955 H   0  0  0  0  0  0  0  0  0  0  0  0
    0.0029   -0.0641    0.0060 H   0  0  0  0  0  0  0  0  0  0  0  0
   -5.6553    0.9624    0.0337 H   0  0  0  0  0  0  0  0  0  0  0  0
   -4.6288   -1.4319    0.0140 H   0  0  0  0  0  0  0  0  0  0  0  0
    7.1014   -0.5642    0.7248 H   0  0  0  0  0  0  0  0  0  0  0  0
  1 20  1  0  0  0  0
  2 20  1  0  0  0  0
  3  4  1  0  0  0  0
  3 20  1  0  0  0  0
  4  5  1  0  0  0  0
  5  6  1  0  0  0  0
  6  7  2  0  0  0  0
  6  8  1  0  0  0  0
  8  9  1  0  0  0  0
  9 10  1  0  0  0  0
 10 18  1  0  0  0  0
 10 11  2  0  0  0  0
 11 15  1  0  0  0  0
 11 12  1  0  0  0  0
 12 13  1  0  0  0  0
 12 16  2  0  0  0  0
 13 14  1  0  0  0  0
 14 15  2  0  0  0  0
 16 17  1  0  0  0  0
 17 18  2  0  0  0  0
 17 19  1  0  0  0  0
  1 21  1  0  0  0  0
  1 22  1  0  0  0  0
  1 23  1  0  0  0  0
  2 24  1  0  0  0  0
  2 25  1  0  0  0  0
  2 26  1  0  0  0  0
  3 27  1  0  0  0  0
  3 28  1  0  0  0  0
  4 29  1  0  0  0  0
  4 30  1  0  0  0  0
  5 31  1  0  0  0  0
  8 32  1  0  0  0  0
  8 33  1  0  0  0  0
  9 34  1  0  0  0  0
 13 35  1  0  0  0  0
 14 36  1  0  0  0  0
 20 37  1  0  0  0  0
M  CHG  1  20   1
M  END
> <Name>
ZINC09047672

> <reference>
BDB5234

> <quality>
0.756

> <status>
decoy

$$$$
ZINC02090323
  SciTegic06141217593D

 45 46  0  0  0  0            999 V2000
    3.8451   -4.7530   -0.8726 C   0  0  0  0  0  0  0  0  0  0  0  0
    2.6550   -4.9933   -0.0527 N   0  0  0  0  0  0  0  0  0  0  0  0
    2.1518   -6.1931    0.2972 C   0  0  0  0  0  0  0  0  0  0  0  0
    1.0820   -6.0257    1.0323 N   0  0  0  0  0  0  0  0  0  0  0  0
    0.8427   -4.7217    1.1926 C   0  0  0  0  0  0  0  0  0  0  0  0
    1.8360   -4.0335    0.5074 C   0  0  0  0  0  0  0  0  0  0  0  0
    1.8226   -2.6220    0.5112 C   0  0  0  0  0  0  0  0  0  0  0  0
    2.6827   -1.9960   -0.0818 O   0  0  0  0  0  0  0  0  0  0  0  0
    0.8458   -1.9743    1.1800 N   0  0  0  0  0  0  0  0  0  0  0  0
   -0.1060   -2.6529    1.8434 C   0  0  0  0  0  0  0  0  0  0  0  0
   -0.9678   -2.0356    2.4392 O   0  0  0  0  0  0  0  0  0  0  0  0
   -0.1324   -3.9990    1.8608 N   0  0  0  0  0  0  0  0  0  0  0  0
   -1.1908   -4.7004    2.5915 C   0  0  0  0  0  0  0  0  0  0  0  0
    0.8260   -0.5095    1.1880 C   0  0  0  0  0  0  0  0  0  0  0  0
    0.0021   -0.0041    0.0020 C   0  0  0  0  0  0  0  0  0  0  0  0
   -0.8017    1.9868   -1.1173 C   0  0  2  0  0  0  0  0  0  0  0  0
   -0.7993    3.5163   -1.0752 C   0  0  0  0  0  0  0  0  0  0  0  0
   -1.5619    4.0241   -2.1719 O   0  0  0  0  0  0  0  0  0  0  0  0
   -0.1817    1.5119   -2.4329 C   0  0  0  0  0  0  0  0  0  0  0  0
    1.1960    1.8890   -2.4737 O   0  0  0  0  0  0  0  0  0  0  0  0
   -2.2405    1.4762   -1.0179 C   0  0  0  0  0  0  0  0  0  0  0  0
   -2.8196    1.9198    0.2109 O   0  0  0  0  0  0  0  0  0  0  0  0
   -0.0129    1.4709    0.0174 N   0  3  0  0  0  0  0  0  0  0  0  0
    4.4462   -4.0978   -0.2250 H   0  0  0  0  0  0  0  0  0  0  0  0
    3.4527   -4.1031   -1.6687 H   0  0  0  0  0  0  0  0  0  0  0  0
    4.3842   -5.6385   -1.2404 H   0  0  0  0  0  0  0  0  0  0  0  0
    2.5759   -7.1662    0.0087 H   0  0  0  0  0  0  0  0  0  0  0  0
   -0.6627   -5.3501    3.3050 H   0  0  0  0  0  0  0  0  0  0  0  0
   -1.6661   -5.3554    1.8465 H   0  0  0  0  0  0  0  0  0  0  0  0
   -1.9121   -4.0327    3.0853 H   0  0  0  0  0  0  0  0  0  0  0  0
    0.3741   -0.1539    2.1257 H   0  0  0  0  0  0  0  0  0  0  0  0
    1.8544   -0.1273    1.1085 H   0  0  0  0  0  0  0  0  0  0  0  0
    0.4543   -0.3568   -0.9367 H   0  0  0  0  0  0  0  0  0  0  0  0
   -1.0278   -0.3823    0.0809 H   0  0  0  0  0  0  0  0  0  0  0  0
    0.2347    3.8846   -1.1469 H   0  0  0  0  0  0  0  0  0  0  0  0
   -1.2455    3.8579   -0.1296 H   0  0  0  0  0  0  0  0  0  0  0  0
   -2.4932    3.6944   -2.1083 H   0  0  0  0  0  0  0  0  0  0  0  0
   -0.7129    1.9744   -3.2779 H   0  0  0  0  0  0  0  0  0  0  0  0
   -0.2639    0.4172   -2.5030 H   0  0  0  0  0  0  0  0  0  0  0  0
    1.6757    1.4726   -1.7144 H   0  0  0  0  0  0  0  0  0  0  0  0
   -2.8277    1.8676   -1.8617 H   0  0  0  0  0  0  0  0  0  0  0  0
   -2.2434    0.3766   -1.0479 H   0  0  0  0  0  0  0  0  0  0  0  0
   -2.8187    2.9094    0.2389 H   0  0  0  0  0  0  0  0  0  0  0  0
   -0.4306    1.7989    0.8999 H   0  0  0  0  0  0  0  0  0  0  0  0
    0.9524    1.8238   -0.0504 H   0  0  0  0  0  0  0  0  0  0  0  0
  1  2  1  0  0  0  0
  2  6  1  0  0  0  0
  2  3  1  0  0  0  0
  3  4  2  0  0  0  0
  4  5  1  0  0  0  0
  5 12  1  0  0  0  0
  5  6  2  0  0  0  0
  6  7  1  0  0  0  0
  7  8  2  0  0  0  0
  7  9  1  0  0  0  0
  9 10  1  0  0  0  0
  9 14  1  0  0  0  0
 10 11  2  0  0  0  0
 10 12  1  0  0  0  0
 12 13  1  0  0  0  0
 14 15  1  0  0  0  0
 15 23  1  0  0  0  0
 16 17  1  0  0  0  0
 16 19  1  0  0  0  0
 16 21  1  0  0  0  0
 16 23  1  0  0  0  0
 17 18  1  0  0  0  0
 19 20  1  0  0  0  0
 21 22  1  0  0  0  0
  1 24  1  0  0  0  0
  1 25  1  0  0  0  0
  1 26  1  0  0  0  0
  3 27  1  0  0  0  0
 13 28  1  0  0  0  0
 13 29  1  0  0  0  0
 13 30  1  0  0  0  0
 14 31  1  0  0  0  0
 14 32  1  0  0  0  0
 15 33  1  0  0  0  0
 15 34  1  0  0  0  0
 17 35  1  0  0  0  0
 17 36  1  0  0  0  0
 18 37  1  0  0  0  0
 19 38  1  0  0  0  0
 19 39  1  0  0  0  0
 20 40  1  0  0  0  0
 21 41  1  0  0  0  0
 21 42  1  0  0  0  0
 22 43  1  0  0  0  0
 23 44  1  0  0  0  0
 23 45  1  0  0  0  0
M  CHG  1  23   1
M  END
> <Name>
ZINC02090323

> <reference>
BDB5024

> <quality>
0.751

> <status>
decoy

$$$$
ZINC31904736
  SciTegic06141217593D

 45 46  0  0  1  0            999 V2000
    1.1931   -2.8623   -4.2502 C   0  0  0  0  0  0  0  0  0  0  0  0
    1.8107   -1.7767   -3.4069 C   0  0  0  0  0  0  0  0  0  0  0  0
    1.3901   -1.5717   -2.1404 C   0  0  0  0  0  0  0  0  0  0  0  0
    1.9620   -0.5819   -1.3883 N   0  0  0  0  0  0  0  0  0  0  0  0
    2.9358    0.1922   -1.9008 C   0  0  0  0  0  0  0  0  0  0  0  0
    3.4270    1.0690   -1.2165 O   0  0  0  0  0  0  0  0  0  0  0  0
    3.3776    0.0061   -3.1585 N   0  0  0  0  0  0  0  0  0  0  0  0
    2.8399   -0.9586   -3.9320 C   0  0  0  0  0  0  0  0  0  0  0  0
    3.2361   -1.1248   -5.0715 O   0  0  0  0  0  0  0  0  0  0  0  0
    4.4432    0.8589   -3.6911 C   0  0  0  0  0  0  0  0  0  0  0  0
    3.8261    2.0909   -4.3560 C   0  0  0  0  0  0  0  0  0  0  0  0
    4.9389    2.9815   -4.9122 C   0  0  0  0  0  0  0  0  0  0  0  0
    4.3218    4.2136   -5.5771 C   0  0  0  0  0  0  0  0  0  0  0  0
    5.3612    5.0453   -6.0966 O   0  0  0  0  0  0  0  0  0  0  0  0
    1.5055   -0.3590   -0.0142 C   0  0  2  0  0  0  0  0  0  0  0  0
    0.0021   -0.0041    0.0020 C   0  0  0  0  0  0  0  0  0  0  0  0
   -0.0189    1.5409    0.0105 C   0  0  2  0  0  0  0  0  0  0  0  0
    1.4743    1.9366   -0.0016 C   0  0  2  0  0  0  0  0  0  0  0  0
    2.1632    0.7948    0.5532 O   0  0  0  0  0  0  0  0  0  0  0  0
    1.7048    3.1728    0.8698 C   0  0  0  0  0  0  0  0  0  0  0  0
    3.0663    3.5909    0.7530 O   0  0  0  0  0  0  0  0  0  0  0  0
   -0.6720    2.0387    1.2237 N   0  0  0  0  0  0  0  0  0  0  0  0
   -1.7689    1.8556    1.3869 N   0  3  0  0  0  0  0  0  0  0  0  0
   -2.8658    1.6725    1.5502 N   0  5  0  0  0  0  0  0  0  0  0  0
    2.0396   -3.4918   -4.5617 H   0  0  0  0  0  0  0  0  0  0  0  0
    0.8283   -2.3456   -5.1502 H   0  0  0  0  0  0  0  0  0  0  0  0
    0.4039   -3.4347   -3.7407 H   0  0  0  0  0  0  0  0  0  0  0  0
    0.5915   -2.1974   -1.7152 H   0  0  0  0  0  0  0  0  0  0  0  0
    5.1027    1.1775   -2.8704 H   0  0  0  0  0  0  0  0  0  0  0  0
    5.0278    0.2964   -4.4340 H   0  0  0  0  0  0  0  0  0  0  0  0
    3.1667    1.7730   -5.1771 H   0  0  0  0  0  0  0  0  0  0  0  0
    3.2420    2.6554   -3.6142 H   0  0  0  0  0  0  0  0  0  0  0  0
    5.5984    3.3001   -4.0915 H   0  0  0  0  0  0  0  0  0  0  0  0
    5.5234    2.4190   -5.6551 H   0  0  0  0  0  0  0  0  0  0  0  0
    3.6624    3.8957   -6.3982 H   0  0  0  0  0  0  0  0  0  0  0  0
    3.7378    4.7781   -4.8353 H   0  0  0  0  0  0  0  0  0  0  0  0
    5.8872    4.5390   -6.7652 H   0  0  0  0  0  0  0  0  0  0  0  0
    1.7221   -1.2797    0.5474 H   0  0  0  0  0  0  0  0  0  0  0  0
   -0.4703   -0.3936    0.9159 H   0  0  0  0  0  0  0  0  0  0  0  0
   -0.4867   -0.3840   -0.9073 H   0  0  0  0  0  0  0  0  0  0  0  0
   -0.5762    1.9621   -0.8392 H   0  0  0  0  0  0  0  0  0  0  0  0
    1.8304    2.1873   -1.0117 H   0  0  0  0  0  0  0  0  0  0  0  0
    1.0424    3.9853    0.5364 H   0  0  0  0  0  0  0  0  0  0  0  0
    1.4858    2.9287    1.9198 H   0  0  0  0  0  0  0  0  0  0  0  0
    3.2647    3.8120   -0.1914 H   0  0  0  0  0  0  0  0  0  0  0  0
  1  2  1  0  0  0  0
  2  8  1  0  0  0  0
  2  3  2  0  0  0  0
  3  4  1  0  0  0  0
  4  5  1  0  0  0  0
  4 15  1  0  0  0  0
  5  6  2  0  0  0  0
  5  7  1  0  0  0  0
  7  8  1  0  0  0  0
  7 10  1  0  0  0  0
  8  9  2  0  0  0  0
 10 11  1  0  0  0  0
 11 12  1  0  0  0  0
 12 13  1  0  0  0  0
 13 14  1  0  0  0  0
 15 19  1  0  0  0  0
 15 16  1  0  0  0  0
 16 17  1  0  0  0  0
 17 18  1  0  0  0  0
 17 22  1  0  0  0  0
 18 19  1  0  0  0  0
 18 20  1  0  0  0  0
 20 21  1  0  0  0  0
 22 23  2  0  0  0  0
 23 24  2  0  0  0  0
  1 25  1  0  0  0  0
  1 26  1  0  0  0  0
  1 27  1  0  0  0  0
  3 28  1  0  0  0  0
 10 29  1  0  0  0  0
 10 30  1  0  0  0  0
 11 31  1  0  0  0  0
 11 32  1  0  0  0  0
 12 33  1  0  0  0  0
 12 34  1  0  0  0  0
 13 35  1  0  0  0  0
 13 36  1  0  0  0  0
 14 37  1  0  0  0  0
 15 38  1  0  0  0  0
 16 39  1  0  0  0  0
 16 40  1  0  0  0  0
 17 41  1  0  0  0  0
 18 42  1  0  0  0  0
 20 43  1  0  0  0  0
 20 44  1  0  0  0  0
 21 45  1  0  0  0  0
M  CHG  2  23   1  24  -1
M  END
> <Name>
ZINC31904736

> <reference>
BDB5009

> <quality>
0.830

> <status>
decoy

$$$$
ZINC31345689
  SciTegic06141217593D

 43 43  0  0  1  0            999 V2000
   -5.5244   -6.1201   -0.8000 C   0  0  0  0  0  0  0  0  0  0  0  0
   -5.3026   -4.6068   -0.8386 C   0  0  0  0  0  0  0  0  0  0  0  0
   -3.9393   -4.3169   -0.5230 O   0  0  0  0  0  0  0  0  0  0  0  0
   -3.5755   -3.0175   -0.5138 C   0  0  0  0  0  0  0  0  0  0  0  0
   -4.3963   -2.1542   -0.7622 O   0  0  0  0  0  0  0  0  0  0  0  0
   -2.2415   -2.6587   -0.2096 C   0  0  0  0  0  0  0  0  0  0  0  0
   -1.8539   -1.3652   -0.1886 C   0  0  0  0  0  0  0  0  0  0  0  0
   -0.5659   -1.0201    0.1061 N   0  0  0  0  0  0  0  0  0  0  0  0
    0.3945   -1.9088    0.3900 C   0  0  0  0  0  0  0  0  0  0  0  0
    1.5136   -1.5053    0.6398 O   0  0  0  0  0  0  0  0  0  0  0  0
    0.1611   -3.2360    0.4075 N   0  0  0  0  0  0  0  0  0  0  0  0
   -1.2003   -3.7122    0.1098 C   0  0  0  0  0  0  0  0  0  0  0  0
   -2.8592   -0.2850   -0.4947 C   0  0  0  0  0  0  0  0  0  0  0  0
   -3.1376   -0.2698   -1.9370 N   0  0  0  0  0  0  0  0  0  0  0  0
   -4.3632    0.4858   -2.2286 C   0  0  0  0  0  0  0  0  0  0  0  0
   -4.8478    0.1419   -3.6135 C   0  0  0  0  0  0  0  0  0  0  0  0
   -4.2856   -0.7193   -4.2562 O   0  0  0  0  0  0  0  0  0  0  0  0
   -5.9060    0.7914   -4.1378 N   0  0  0  0  0  0  0  0  0  0  0  0
   -1.9958    0.2690   -2.6879 C   0  0  1  0  0  0  0  0  0  0  0  0
   -1.4402    1.4953   -1.9610 C   0  0  0  0  0  0  0  0  0  0  0  0
   -0.9051   -0.7989   -2.7933 C   0  0  0  0  0  0  0  0  0  0  0  0
   -5.2929   -6.5001    0.2060 H   0  0  0  0  0  0  0  0  0  0  0  0
   -4.8670   -6.6069   -1.5354 H   0  0  0  0  0  0  0  0  0  0  0  0
   -6.5737   -6.3439   -1.0429 H   0  0  0  0  0  0  0  0  0  0  0  0
   -5.5340   -4.2277   -1.8449 H   0  0  0  0  0  0  0  0  0  0  0  0
   -5.9600   -4.1199   -0.1032 H   0  0  0  0  0  0  0  0  0  0  0  0
   -0.3194   -0.0200    0.1102 H   0  0  0  0  0  0  0  0  0  0  0  0
    0.9169   -3.9015    0.6239 H   0  0  0  0  0  0  0  0  0  0  0  0
   -1.1422   -4.4117   -0.7372 H   0  0  0  0  0  0  0  0  0  0  0  0
   -1.5545   -4.3005    0.9692 H   0  0  0  0  0  0  0  0  0  0  0  0
   -2.4543    0.6913   -0.1899 H   0  0  0  0  0  0  0  0  0  0  0  0
   -3.7905   -0.4839    0.0559 H   0  0  0  0  0  0  0  0  0  0  0  0
   -4.1528    1.5640   -2.1718 H   0  0  0  0  0  0  0  0  0  0  0  0
   -5.1389    0.2243   -1.4938 H   0  0  0  0  0  0  0  0  0  0  0  0
   -6.3835    1.5228   -3.5920 H   0  0  0  0  0  0  0  0  0  0  0  0
   -6.2372    0.5564   -5.0843 H   0  0  0  0  0  0  0  0  0  0  0  0
   -2.3243    0.5585   -3.6970 H   0  0  0  0  0  0  0  0  0  0  0  0
   -1.1112    1.2067   -0.9518 H   0  0  0  0  0  0  0  0  0  0  0  0
   -2.2235    2.2638   -1.8848 H   0  0  0  0  0  0  0  0  0  0  0  0
   -0.5851    1.8993   -2.5228 H   0  0  0  0  0  0  0  0  0  0  0  0
   -1.3034   -1.6810   -3.3160 H   0  0  0  0  0  0  0  0  0  0  0  0
   -0.5757   -1.0889   -1.7846 H   0  0  0  0  0  0  0  0  0  0  0  0
   -0.0497   -0.3961   -3.3555 H   0  0  0  0  0  0  0  0  0  0  0  0
  1  2  1  0  0  0  0
  2  3  1  0  0  0  0
  3  4  1  0  0  0  0
  4  5  2  0  0  0  0
  4  6  1  0  0  0  0
  6 12  1  0  0  0  0
  6  7  2  0  0  0  0
  7  8  1  0  0  0  0
  7 13  1  0  0  0  0
  8  9  1  0  0  0  0
  9 10  2  0  0  0  0
  9 11  1  0  0  0  0
 11 12  1  0  0  0  0
 13 14  1  0  0  0  0
 14 15  1  0  0  0  0
 14 19  1  0  0  0  0
 15 16  1  0  0  0  0
 16 17  2  0  0  0  0
 16 18  1  0  0  0  0
 19 20  1  0  0  0  0
 19 21  1  0  0  0  0
  1 22  1  0  0  0  0
  1 23  1  0  0  0  0
  1 24  1  0  0  0  0
  2 25  1  0  0  0  0
  2 26  1  0  0  0  0
  8 27  1  0  0  0  0
 11 28  1  0  0  0  0
 12 29  1  0  0  0  0
 12 30  1  0  0  0  0
 13 31  1  0  0  0  0
 13 32  1  0  0  0  0
 15 33  1  0  0  0  0
 15 34  1  0  0  0  0
 18 35  1  0  0  0  0
 18 36  1  0  0  0  0
 19 37  1  0  0  0  0
 20 38  1  0  0  0  0
 20 39  1  0  0  0  0
 20 40  1  0  0  0  0
 21 41  1  0  0  0  0
 21 42  1  0  0  0  0
 21 43  1  0  0  0  0
M  END
> <Name>
ZINC31345689

> <reference>
BDB4986

> <quality>
0.723

> <status>
decoy

$$$$
ZINC15418382
  SciTegic06141217593D

 43 44  0  0  1  0            999 V2000
    4.5554    5.6188   -0.0112 C   0  0  0  0  0  0  0  0  0  0  0  0
    3.3262    6.3474    0.0039 O   0  0  0  0  0  0  0  0  0  0  0  0
    2.1772    5.6199    0.0110 C   0  0  0  0  0  0  0  0  0  0  0  0
    2.2341    4.2374    0.0035 C   0  0  0  0  0  0  0  0  0  0  0  0
    1.0559    3.4919    0.0107 C   0  0  0  0  0  0  0  0  0  0  0  0
   -0.1780    4.1411    0.0202 C   0  0  0  0  0  0  0  0  0  0  0  0
   -0.2314    5.5237    0.0320 C   0  0  0  0  0  0  0  0  0  0  0  0
    0.9452    6.2661    0.0253 C   0  0  0  0  0  0  0  0  0  0  0  0
    0.8910    7.6250    0.0321 O   0  0  0  0  0  0  0  0  0  0  0  0
    0.8535    8.2792   -1.2377 C   0  0  0  0  0  0  0  0  0  0  0  0
   -1.4347    6.1573    0.0456 O   0  0  0  0  0  0  0  0  0  0  0  0
   -2.6019    5.3329    0.0519 C   0  0  0  0  0  0  0  0  0  0  0  0
    1.1150    2.0110    0.0022 C   0  0  0  0  0  0  0  0  0  0  0  0
   -0.0159    1.3176    0.0093 N   0  0  0  0  0  0  0  0  0  0  0  0
    0.0021   -0.0041    0.0020 C   0  0  0  0  0  0  0  0  0  0  0  0
    1.2217   -0.6642   -0.0132 C   0  0  0  0  0  0  0  0  0  0  0  0
    2.3848    0.0911   -0.0202 C   0  0  0  0  0  0  0  0  0  0  0  0
    2.2974    1.4101   -0.0123 N   0  0  0  0  0  0  0  0  0  0  0  0
    1.2818   -2.1700   -0.0223 C   0  0  1  0  0  0  0  0  0  0  0  0
    1.5391   -2.6615   -1.4482 C   0  0  0  0  0  0  0  0  0  0  0  0
    1.4772   -4.1669   -1.4795 C   0  0  0  0  0  0  0  0  0  0  0  0
    1.2505   -4.7834   -0.4654 O   0  0  0  0  0  0  0  0  0  0  0  0
    1.6738   -4.8229   -2.6340 O   0  5  0  0  0  0  0  0  0  0  0  0
    2.3680   -2.6470    0.8517 N   0  3  0  0  0  0  0  0  0  0  0  0
    4.5229    4.9760   -0.9033 H   0  0  0  0  0  0  0  0  0  0  0  0
    4.5395    4.9672    0.8749 H   0  0  0  0  0  0  0  0  0  0  0  0
    5.4387    6.2744   -0.0162 H   0  0  0  0  0  0  0  0  0  0  0  0
    3.2083    3.7268   -0.0081 H   0  0  0  0  0  0  0  0  0  0  0  0
   -1.1085    3.5544    0.0183 H   0  0  0  0  0  0  0  0  0  0  0  0
   -0.0252    7.8799   -1.7654 H   0  0  0  0  0  0  0  0  0  0  0  0
    1.7516    7.9508   -1.7814 H   0  0  0  0  0  0  0  0  0  0  0  0
    0.8105    9.3749   -1.1508 H   0  0  0  0  0  0  0  0  0  0  0  0
   -2.5184    4.6854    0.9372 H   0  0  0  0  0  0  0  0  0  0  0  0
   -2.5341    4.6940   -0.8409 H   0  0  0  0  0  0  0  0  0  0  0  0
   -3.5346    5.9160    0.0629 H   0  0  0  0  0  0  0  0  0  0  0  0
   -0.9390   -0.5736    0.0079 H   0  0  0  0  0  0  0  0  0  0  0  0
    3.3683   -0.4015   -0.0322 H   0  0  0  0  0  0  0  0  0  0  0  0
    0.3227   -2.5626    0.3465 H   0  0  0  0  0  0  0  0  0  0  0  0
    2.5346   -2.3293   -1.7777 H   0  0  0  0  0  0  0  0  0  0  0  0
    0.7734   -2.2495   -2.1220 H   0  0  0  0  0  0  0  0  0  0  0  0
    2.1978   -2.3157    1.8120 H   0  0  0  0  0  0  0  0  0  0  0  0
    3.2635   -2.2653    0.5151 H   0  0  0  0  0  0  0  0  0  0  0  0
    2.4023   -3.6764    0.8399 H   0  0  0  0  0  0  0  0  0  0  0  0
  1  2  1  0  0  0  0
  2  3  1  0  0  0  0
  3  8  2  0  0  0  0
  3  4  1  0  0  0  0
  4  5  2  0  0  0  0
  5  6  1  0  0  0  0
  5 13  1  0  0  0  0
  6  7  2  0  0  0  0
  7  8  1  0  0  0  0
  7 11  1  0  0  0  0
  8  9  1  0  0  0  0
  9 10  1  0  0  0  0
 11 12  1  0  0  0  0
 13 18  2  0  0  0  0
 13 14  1  0  0  0  0
 14 15  2  0  0  0  0
 15 16  1  0  0  0  0
 16 17  2  0  0  0  0
 16 19  1  0  0  0  0
 17 18  1  0  0  0  0
 19 20  1  0  0  0  0
 19 24  1  0  0  0  0
 20 21  1  0  0  0  0
 21 22  2  0  0  0  0
 21 23  1  0  0  0  0
  1 25  1  0  0  0  0
  1 26  1  0  0  0  0
  1 27  1  0  0  0  0
  4 28  1  0  0  0  0
  6 29  1  0  0  0  0
 10 30  1  0  0  0  0
 10 31  1  0  0  0  0
 10 32  1  0  0  0  0
 12 33  1  0  0  0  0
 12 34  1  0  0  0  0
 12 35  1  0  0  0  0
 15 36  1  0  0  0  0
 17 37  1  0  0  0  0
 19 38  1  0  0  0  0
 20 39  1  0  0  0  0
 20 40  1  0  0  0  0
 24 41  1  0  0  0  0
 24 42  1  0  0  0  0
 24 43  1  0  0  0  0
M  CHG  2  23  -1  24   1
M  END
> <Name>
ZINC15418382

> <reference>
BDB4934

> <quality>
0.656

> <status>
decoy

$$$$
ZINC31219731
  SciTegic06141217593D

 46 47  0  0  1  0            999 V2000
   -0.5510    1.7117   -2.6566 C   0  0  0  0  0  0  0  0  0  0  0  0
   -1.1345    2.0336   -1.2793 C   0  0  0  0  0  0  0  0  0  0  0  0
   -0.0172    1.4168    0.0098 S   0  0  0  0  0  0  0  0  0  0  0  0
    0.0021   -0.0041    0.0020 O   0  0  0  0  0  0  0  0  0  0  0  0
    1.1953    2.1578    0.0022 O   0  0  0  0  0  0  0  0  0  0  0  0
   -0.7508    1.8216    1.4382 N   0  0  0  0  0  0  0  0  0  0  0  0
   -2.0359    1.2174    1.7986 C   0  0  0  0  0  0  0  0  0  0  0  0
   -2.3111    1.4530    3.2851 C   0  0  0  0  0  0  0  0  0  0  0  0
   -3.5962    0.8488    3.6455 N   0  0  0  0  0  0  0  0  0  0  0  0
   -4.0480    0.9317    4.9126 C   0  0  0  0  0  0  0  0  0  0  0  0
   -3.3884    1.5085    5.7575 O   0  0  0  0  0  0  0  0  0  0  0  0
   -5.3310    0.3285    5.2724 C   0  0  0  0  0  0  0  0  0  0  0  0
   -6.1156   -0.3016    4.4580 N   0  0  0  0  0  0  0  0  0  0  0  0
   -7.2794   -0.7849    5.0527 N   0  0  0  0  0  0  0  0  0  0  0  0
   -7.2765   -0.4149    6.4767 C   0  0  2  0  0  0  0  0  0  0  0  0
   -5.9498    0.3498    6.6518 C   0  0  0  0  0  0  0  0  0  0  0  0
   -7.2979   -1.6450    7.3470 C   0  0  0  0  0  0  0  0  0  0  0  0
   -7.0542   -2.7318    6.8670 O   0  0  0  0  0  0  0  0  0  0  0  0
   -7.5878   -1.5374    8.6588 N   0  0  0  0  0  0  0  0  0  0  0  0
   -8.2876   -1.4993    4.4014 C   0  0  0  0  0  0  0  0  0  0  0  0
   -9.4045   -1.9280    5.1082 C   0  0  0  0  0  0  0  0  0  0  0  0
  -10.4021   -2.6299    4.4611 C   0  0  0  0  0  0  0  0  0  0  0  0
  -10.2852   -2.9159    3.1110 C   0  0  0  0  0  0  0  0  0  0  0  0
   -9.1704   -2.4942    2.4055 C   0  0  0  0  0  0  0  0  0  0  0  0
   -8.1727   -1.7875    3.0470 C   0  0  0  0  0  0  0  0  0  0  0  0
  -11.2603   -3.6069    2.4811 F   0  0  0  0  0  0  0  0  0  0  0  0
   -0.4364    0.6228   -2.7622 H   0  0  0  0  0  0  0  0  0  0  0  0
    0.4314    2.1952   -2.7620 H   0  0  0  0  0  0  0  0  0  0  0  0
   -1.2280    2.0855   -3.4389 H   0  0  0  0  0  0  0  0  0  0  0  0
   -1.2485    3.1227   -1.1746 H   0  0  0  0  0  0  0  0  0  0  0  0
   -2.1169    1.5502   -1.1739 H   0  0  0  0  0  0  0  0  0  0  0  0
   -0.3036    2.4981    2.0732 H   0  0  0  0  0  0  0  0  0  0  0  0
   -2.8373    1.6759    1.2007 H   0  0  0  0  0  0  0  0  0  0  0  0
   -2.0027    0.1361    1.5995 H   0  0  0  0  0  0  0  0  0  0  0  0
   -1.5102    0.9944    3.8836 H   0  0  0  0  0  0  0  0  0  0  0  0
   -2.3458    2.5340    3.4859 H   0  0  0  0  0  0  0  0  0  0  0  0
   -4.1544    0.3607    2.9306 H   0  0  0  0  0  0  0  0  0  0  0  0
   -8.1557    0.1801    6.7648 H   0  0  0  0  0  0  0  0  0  0  0  0
   -6.1491    1.3857    6.9636 H   0  0  0  0  0  0  0  0  0  0  0  0
   -5.3013   -0.1773    7.3671 H   0  0  0  0  0  0  0  0  0  0  0  0
   -7.7947   -0.6144    9.0665 H   0  0  0  0  0  0  0  0  0  0  0  0
   -7.6024   -2.3781    9.2536 H   0  0  0  0  0  0  0  0  0  0  0  0
   -9.4939   -1.7084    6.1823 H   0  0  0  0  0  0  0  0  0  0  0  0
  -11.2904   -2.9622    5.0183 H   0  0  0  0  0  0  0  0  0  0  0  0
   -9.0798   -2.7225    1.3333 H   0  0  0  0  0  0  0  0  0  0  0  0
   -7.2875   -1.4529    2.4862 H   0  0  0  0  0  0  0  0  0  0  0  0
  1  2  1  0  0  0  0
  2  3  1  0  0  0  0
  3  4  2  0  0  0  0
  3  5  2  0  0  0  0
  3  6  1  0  0  0  0
  6  7  1  0  0  0  0
  7  8  1  0  0  0  0
  8  9  1  0  0  0  0
  9 10  1  0  0  0  0
 10 11  2  0  0  0  0
 10 12  1  0  0  0  0
 12 16  1  0  0  0  0
 12 13  2  0  0  0  0
 13 14  1  0  0  0  0
 14 15  1  0  0  0  0
 14 20  1  0  0  0  0
 15 16  1  0  0  0  0
 15 17  1  0  0  0  0
 17 18  2  0  0  0  0
 17 19  1  0  0  0  0
 20 25  2  0  0  0  0
 20 21  1  0  0  0  0
 21 22  2  0  0  0  0
 22 23  1  0  0  0  0
 23 24  2  0  0  0  0
 23 26  1  0  0  0  0
 24 25  1  0  0  0  0
  1 27  1  0  0  0  0
  1 28  1  0  0  0  0
  1 29  1  0  0  0  0
  2 30  1  0  0  0  0
  2 31  1  0  0  0  0
  6 32  1  0  0  0  0
  7 33  1  0  0  0  0
  7 34  1  0  0  0  0
  8 35  1  0  0  0  0
  8 36  1  0  0  0  0
  9 37  1  0  0  0  0
 15 38  1  0  0  0  0
 16 39  1  0  0  0  0
 16 40  1  0  0  0  0
 19 41  1  0  0  0  0
 19 42  1  0  0  0  0
 21 43  1  0  0  0  0
 22 44  1  0  0  0  0
 24 45  1  0  0  0  0
 25 46  1  0  0  0  0
M  END
> <Name>
ZINC31219731

> <reference>
BDB4945

> <quality>
0.719

> <status>
decoy

$$$$
ZINC20423296
  SciTegic06141217593D

 37 37  0  0  1  0            999 V2000
   -5.4484   -2.0750    0.6284 C   0  0  0  0  0  0  0  0  0  0  0  0
   -4.0837   -1.6538    0.5809 O   0  0  0  0  0  0  0  0  0  0  0  0
   -3.8024   -0.5554   -0.1698 C   0  0  0  0  0  0  0  0  0  0  0  0
   -4.8199    0.1017   -0.8460 C   0  0  0  0  0  0  0  0  0  0  0  0
   -4.5342    1.2172   -1.6085 C   0  0  0  0  0  0  0  0  0  0  0  0
   -3.2298    1.6806   -1.6982 C   0  0  0  0  0  0  0  0  0  0  0  0
   -2.2127    1.0239   -1.0219 C   0  0  0  0  0  0  0  0  0  0  0  0
   -2.4977   -0.0948   -0.2630 C   0  0  0  0  0  0  0  0  0  0  0  0
   -0.7955    1.5269   -1.1198 C   0  0  2  0  0  0  0  0  0  0  0  0
   -0.1755    1.0519   -2.4354 C   0  0  0  0  0  0  0  0  0  0  0  0
    1.2177    1.6644   -2.5931 C   0  0  0  0  0  0  0  0  0  0  0  0
    1.8377    1.1894   -3.9087 C   0  0  0  0  0  0  0  0  0  0  0  0
    3.2100    1.7926   -4.0640 C   0  0  0  0  0  0  0  0  0  0  0  0
    3.6472    2.5271   -3.2100 O   0  0  0  0  0  0  0  0  0  0  0  0
    3.9465    1.5140   -5.1510 O   0  5  0  0  0  0  0  0  0  0  0  0
   -0.0116    1.0048    0.0076 N   0  3  0  0  0  0  0  0  0  0  0  0
   -2.9485    2.7789   -2.4490 O   0  0  0  0  0  0  0  0  0  0  0  0
   -4.0447    3.4053   -3.1183 C   0  0  0  0  0  0  0  0  0  0  0  0
   -5.7529   -2.2550   -0.4132 H   0  0  0  0  0  0  0  0  0  0  0  0
   -6.0241   -1.2165    1.0047 H   0  0  0  0  0  0  0  0  0  0  0  0
   -5.5967   -2.9677    1.2538 H   0  0  0  0  0  0  0  0  0  0  0  0
   -5.8543   -0.2657   -0.7749 H   0  0  0  0  0  0  0  0  0  0  0  0
   -5.3410    1.7382   -2.1447 H   0  0  0  0  0  0  0  0  0  0  0  0
   -1.6897   -0.6201    0.2673 H   0  0  0  0  0  0  0  0  0  0  0  0
   -0.7938    2.6265   -1.0896 H   0  0  0  0  0  0  0  0  0  0  0  0
   -0.0944   -0.0451   -2.4277 H   0  0  0  0  0  0  0  0  0  0  0  0
   -0.8110    1.3668   -3.2763 H   0  0  0  0  0  0  0  0  0  0  0  0
    1.1373    2.7614   -2.6013 H   0  0  0  0  0  0  0  0  0  0  0  0
    1.8550    1.3497   -1.7536 H   0  0  0  0  0  0  0  0  0  0  0  0
    1.2023    1.5043   -4.7496 H   0  0  0  0  0  0  0  0  0  0  0  0
    1.9187    0.0924   -3.9010 H   0  0  0  0  0  0  0  0  0  0  0  0
   -0.0124   -0.0248   -0.0200 H   0  0  0  0  0  0  0  0  0  0  0  0
   -0.4281    1.3243    0.8938 H   0  0  0  0  0  0  0  0  0  0  0  0
    0.9572    1.3483   -0.0587 H   0  0  0  0  0  0  0  0  0  0  0  0
   -4.7724    3.6715   -2.3376 H   0  0  0  0  0  0  0  0  0  0  0  0
   -4.5005    2.6328   -3.7551 H   0  0  0  0  0  0  0  0  0  0  0  0
   -3.7391    4.2848   -3.7041 H   0  0  0  0  0  0  0  0  0  0  0  0
  1  2  1  0  0  0  0
  2  3  1  0  0  0  0
  3  8  2  0  0  0  0
  3  4  1  0  0  0  0
  4  5  2  0  0  0  0
  5  6  1  0  0  0  0
  6  7  2  0  0  0  0
  6 17  1  0  0  0  0
  7  8  1  0  0  0  0
  7  9  1  0  0  0  0
  9 10  1  0  0  0  0
  9 16  1  0  0  0  0
 10 11  1  0  0  0  0
 11 12  1  0  0  0  0
 12 13  1  0  0  0  0
 13 14  2  0  0  0  0
 13 15  1  0  0  0  0
 17 18  1  0  0  0  0
  1 19  1  0  0  0  0
  1 20  1  0  0  0  0
  1 21  1  0  0  0  0
  4 22  1  0  0  0  0
  5 23  1  0  0  0  0
  8 24  1  0  0  0  0
  9 25  1  0  0  0  0
 10 26  1  0  0  0  0
 10 27  1  0  0  0  0
 11 28  1  0  0  0  0
 11 29  1  0  0  0  0
 12 30  1  0  0  0  0
 12 31  1  0  0  0  0
 16 32  1  0  0  0  0
 16 33  1  0  0  0  0
 16 34  1  0  0  0  0
 18 35  1  0  0  0  0
 18 36  1  0  0  0  0
 18 37  1  0  0  0  0
M  CHG  2  15  -1  16   1
M  END
> <Name>
ZINC20423296

> <reference>
BDB4995

> <quality>
0.786

> <status>
decoy

$$$$
ZINC08642818
  SciTegic06141217593D

 51 53  0  0  1  0            999 V2000
    0.0281    5.4238    0.0276 C   0  0  0  0  0  0  0  0  0  0  0  0
   -0.0107    3.9593    0.0216 N   0  0  0  0  0  0  0  0  0  0  0  0
   -1.2289    3.2990    0.0296 C   0  0  0  0  0  0  0  0  0  0  0  0
   -1.2373    1.9084    0.0182 C   0  0  0  0  0  0  0  0  0  0  0  0
   -0.0145    1.2145    0.0087 C   0  0  0  0  0  0  0  0  0  0  0  0
    0.0021   -0.0041    0.0020 O   0  0  0  0  0  0  0  0  0  0  0  0
    1.1404    1.9119    0.0014 N   0  0  0  0  0  0  0  0  0  0  0  0
    1.1374    3.2561    0.0078 C   0  0  0  0  0  0  0  0  0  0  0  0
    2.1976    3.8516    0.0005 O   0  0  0  0  0  0  0  0  0  0  0  0
    2.4170    1.1934   -0.0141 C   0  0  0  0  0  0  0  0  0  0  0  0
   -2.5720    1.5256    0.0221 N   0  0  0  0  0  0  0  0  0  0  0  0
   -3.3071    2.6690    0.0311 C   0  0  0  0  0  0  0  0  0  0  0  0
   -2.4982    3.7091    0.0420 N   0  0  0  0  0  0  0  0  0  0  0  0
   -4.6817    2.7305    0.0375 N   0  0  0  0  0  0  0  0  0  0  0  0
   -5.3566    4.0307    0.0470 C   0  0  0  0  0  0  0  0  0  0  0  0
   -6.8719    3.8187    0.0526 C   0  0  0  0  0  0  0  0  0  0  0  0
   -7.2594    3.1826    1.2721 O   0  0  0  0  0  0  0  0  0  0  0  0
   -3.0882    0.1546    0.0178 C   0  0  0  0  0  0  0  0  0  0  0  0
   -3.2617   -0.3296    1.4588 C   0  0  2  0  0  0  0  0  0  0  0  0
   -3.6813   -1.8009    1.4555 C   0  0  0  0  0  0  0  0  0  0  0  0
   -3.7304   -2.2853    2.7990 O   0  0  0  0  0  0  0  0  0  0  0  0
   -4.0891   -3.5844    2.9737 C   0  0  0  0  0  0  0  0  0  0  0  0
   -4.3932   -4.3751    1.8751 C   0  0  0  0  0  0  0  0  0  0  0  0
   -4.7515   -5.6971    2.0550 C   0  0  0  0  0  0  0  0  0  0  0  0
   -4.8192   -6.2289    3.3295 C   0  0  0  0  0  0  0  0  0  0  0  0
   -4.5221   -5.4414    4.4264 C   0  0  0  0  0  0  0  0  0  0  0  0
   -4.1573   -4.1206    4.2514 C   0  0  0  0  0  0  0  0  0  0  0  0
   -4.2685    0.4514    2.1057 O   0  0  0  0  0  0  0  0  0  0  0  0
    0.6130    5.6990   -0.8624 H   0  0  0  0  0  0  0  0  0  0  0  0
    0.6296    5.6913    0.9089 H   0  0  0  0  0  0  0  0  0  0  0  0
   -0.9655    5.8956    0.0389 H   0  0  0  0  0  0  0  0  0  0  0  0
    2.3758    0.5471   -0.9032 H   0  0  0  0  0  0  0  0  0  0  0  0
    2.3923    0.5382    0.8692 H   0  0  0  0  0  0  0  0  0  0  0  0
    3.2962    1.8544   -0.0190 H   0  0  0  0  0  0  0  0  0  0  0  0
   -5.2361    1.8624    0.0356 H   0  0  0  0  0  0  0  0  0  0  0  0
   -5.0701    4.6004   -0.8493 H   0  0  0  0  0  0  0  0  0  0  0  0
   -5.0619    4.5904    0.9469 H   0  0  0  0  0  0  0  0  0  0  0  0
   -7.3787    4.7915   -0.0300 H   0  0  0  0  0  0  0  0  0  0  0  0
   -7.1575    3.1830   -0.7985 H   0  0  0  0  0  0  0  0  0  0  0  0
   -7.0040    3.7541    2.0391 H   0  0  0  0  0  0  0  0  0  0  0  0
   -4.0604    0.1303   -0.4962 H   0  0  0  0  0  0  0  0  0  0  0  0
   -2.3797   -0.5035   -0.5065 H   0  0  0  0  0  0  0  0  0  0  0  0
   -2.3098   -0.2211    1.9992 H   0  0  0  0  0  0  0  0  0  0  0  0
   -4.6755   -1.8977    0.9948 H   0  0  0  0  0  0  0  0  0  0  0  0
   -2.9518   -2.3901    0.8805 H   0  0  0  0  0  0  0  0  0  0  0  0
   -4.3491   -3.9498    0.8616 H   0  0  0  0  0  0  0  0  0  0  0  0
   -4.9831   -6.3272    1.1836 H   0  0  0  0  0  0  0  0  0  0  0  0
   -5.1099   -7.2803    3.4710 H   0  0  0  0  0  0  0  0  0  0  0  0
   -4.5763   -5.8670    5.4393 H   0  0  0  0  0  0  0  0  0  0  0  0
   -3.9211   -3.4945    5.1244 H   0  0  0  0  0  0  0  0  0  0  0  0
   -5.1257    0.3541    1.6201 H   0  0  0  0  0  0  0  0  0  0  0  0
  1  2  1  0  0  0  0
  2  8  1  0  0  0  0
  2  3  1  0  0  0  0
  3 13  1  0  0  0  0
  3  4  2  0  0  0  0
  4  5  1  0  0  0  0
  4 11  1  0  0  0  0
  5  6  2  0  0  0  0
  5  7  1  0  0  0  0
  7  8  1  0  0  0  0
  7 10  1  0  0  0  0
  8  9  2  0  0  0  0
 11 12  1  0  0  0  0
 11 18  1  0  0  0  0
 12 13  2  0  0  0  0
 12 14  1  0  0  0  0
 14 15  1  0  0  0  0
 15 16  1  0  0  0  0
 16 17  1  0  0  0  0
 18 19  1  0  0  0  0
 19 20  1  0  0  0  0
 19 28  1  0  0  0  0
 20 21  1  0  0  0  0
 21 22  1  0  0  0  0
 22 27  2  0  0  0  0
 22 23  1  0  0  0  0
 23 24  2  0  0  0  0
 24 25  1  0  0  0  0
 25 26  2  0  0  0  0
 26 27  1  0  0  0  0
  1 29  1  0  0  0  0
  1 30  1  0  0  0  0
  1 31  1  0  0  0  0
 10 32  1  0  0  0  0
 10 33  1  0  0  0  0
 10 34  1  0  0  0  0
 14 35  1  0  0  0  0
 15 36  1  0  0  0  0
 15 37  1  0  0  0  0
 16 38  1  0  0  0  0
 16 39  1  0  0  0  0
 17 40  1  0  0  0  0
 18 41  1  0  0  0  0
 18 42  1  0  0  0  0
 19 43  1  0  0  0  0
 20 44  1  0  0  0  0
 20 45  1  0  0  0  0
 23 46  1  0  0  0  0
 24 47  1  0  0  0  0
 25 48  1  0  0  0  0
 26 49  1  0  0  0  0
 27 50  1  0  0  0  0
 28 51  1  0  0  0  0
M  END
> <Name>
ZINC08642818

> <reference>
BDB4945

> <quality>
0.773

> <status>
decoy

$$$$
ZINC05677695
  SciTegic06141217593D

 38 38  0  0  1  0            999 V2000
   -3.3718    1.5405   -0.5075 C   0  0  0  0  0  0  0  0  0  0  0  0
   -2.2890    2.6117   -0.6528 C   0  0  1  0  0  0  0  0  0  0  0  0
   -1.8757    3.1121    0.7412 C   0  0  0  0  0  0  0  0  0  0  0  0
   -1.0391    1.9946    1.4299 C   0  0  0  0  0  0  0  0  0  0  0  0
   -0.0172    1.4168    0.0098 S   0  0  0  0  0  0  0  0  0  0  0  0
    0.0021   -0.0041    0.0020 O   0  0  0  0  0  0  0  0  0  0  0  0
    1.2102    2.1328    0.0020 O   0  0  0  0  0  0  0  0  0  0  0  0
   -1.0641    2.0086   -1.3817 C   0  0  0  0  0  0  0  0  0  0  0  0
   -3.9842    4.3362   -0.7749 C   0  0  0  0  0  0  0  0  0  0  0  0
   -4.5057    5.5012   -1.6187 C   0  0  0  0  0  0  0  0  0  0  0  0
   -5.7206    6.1261   -0.9299 C   0  0  0  0  0  0  0  0  0  0  0  0
   -6.2420    7.2910   -1.7737 C   0  0  0  0  0  0  0  0  0  0  0  0
   -7.4569    7.9159   -1.0849 C   0  0  0  0  0  0  0  0  0  0  0  0
   -7.9705    9.0634   -1.9160 C   0  0  0  0  0  0  0  0  0  0  0  0
   -7.4212    9.3517   -2.9528 O   0  0  0  0  0  0  0  0  0  0  0  0
   -2.8137    3.7396   -1.4456 N   0  3  0  0  0  0  0  0  0  0  0  0
   -9.0382    9.7650   -1.5044 O   0  5  0  0  0  0  0  0  0  0  0  0
   -2.9781    0.6956    0.0765 H   0  0  0  0  0  0  0  0  0  0  0  0
   -3.6764    1.1871   -1.5037 H   0  0  0  0  0  0  0  0  0  0  0  0
   -4.2431    1.9677    0.0104 H   0  0  0  0  0  0  0  0  0  0  0  0
   -2.7734    3.3234    1.3407 H   0  0  0  0  0  0  0  0  0  0  0  0
   -1.2655    4.0219    0.6418 H   0  0  0  0  0  0  0  0  0  0  0  0
   -0.3906    2.4169    2.2116 H   0  0  0  0  0  0  0  0  0  0  0  0
   -1.6882    1.1790    1.7813 H   0  0  0  0  0  0  0  0  0  0  0  0
   -1.3683    1.1575   -2.0086 H   0  0  0  0  0  0  0  0  0  0  0  0
   -0.5290    2.7856   -1.9474 H   0  0  0  0  0  0  0  0  0  0  0  0
   -3.6895    4.7050    0.2187 H   0  0  0  0  0  0  0  0  0  0  0  0
   -4.7726    3.5765   -0.6682 H   0  0  0  0  0  0  0  0  0  0  0  0
   -3.7156    6.2590   -1.7259 H   0  0  0  0  0  0  0  0  0  0  0  0
   -4.7981    5.1331   -2.6132 H   0  0  0  0  0  0  0  0  0  0  0  0
   -6.5113    5.3689   -0.8228 H   0  0  0  0  0  0  0  0  0  0  0  0
   -5.4298    6.4959    0.0644 H   0  0  0  0  0  0  0  0  0  0  0  0
   -5.4519    8.0488   -1.8809 H   0  0  0  0  0  0  0  0  0  0  0  0
   -6.5344    6.9228   -2.7682 H   0  0  0  0  0  0  0  0  0  0  0  0
   -7.1661    8.2856   -0.0905 H   0  0  0  0  0  0  0  0  0  0  0  0
   -8.2476    7.1587   -0.9778 H   0  0  0  0  0  0  0  0  0  0  0  0
   -2.0795    4.4545   -1.5497 H   0  0  0  0  0  0  0  0  0  0  0  0
   -3.0909    3.4026   -2.3786 H   0  0  0  0  0  0  0  0  0  0  0  0
  1  2  1  0  0  0  0
  2  8  1  0  0  0  0
  2  3  1  0  0  0  0
  2 16  1  0  0  0  0
  3  4  1  0  0  0  0
  4  5  1  0  0  0  0
  5  6  2  0  0  0  0
  5  7  2  0  0  0  0
  5  8  1  0  0  0  0
  9 10  1  0  0  0  0
  9 16  1  0  0  0  0
 10 11  1  0  0  0  0
 11 12  1  0  0  0  0
 12 13  1  0  0  0  0
 13 14  1  0  0  0  0
 14 15  2  0  0  0  0
 14 17  1  0  0  0  0
  1 18  1  0  0  0  0
  1 19  1  0  0  0  0
  1 20  1  0  0  0  0
  3 21  1  0  0  0  0
  3 22  1  0  0  0  0
  4 23  1  0  0  0  0
  4 24  1  0  0  0  0
  8 25  1  0  0  0  0
  8 26  1  0  0  0  0
  9 27  1  0  0  0  0
  9 28  1  0  0  0  0
 10 29  1  0  0  0  0
 10 30  1  0  0  0  0
 11 31  1  0  0  0  0
 11 32  1  0  0  0  0
 12 33  1  0  0  0  0
 12 34  1  0  0  0  0
 13 35  1  0  0  0  0
 13 36  1  0  0  0  0
 16 37  1  0  0  0  0
 16 38  1  0  0  0  0
M  CHG  2  16   1  17  -1
M  END
> <Name>
ZINC05677695

> <reference>
BDB5195

> <quality>
0.816

> <status>
decoy

$$$$
ZINC04226538
  SciTegic06141217593D

 35 36  0  0  0  0            999 V2000
   -3.3999    3.4023   -5.2285 C   0  0  0  0  0  0  0  0  0  0  0  0
   -2.1617    2.5537   -5.0956 C   0  0  0  0  0  0  0  0  0  0  0  0
   -1.6970    2.2311   -3.8268 C   0  0  0  0  0  0  0  0  0  0  0  0
   -0.5573    1.4555   -3.6899 C   0  0  0  0  0  0  0  0  0  0  0  0
    0.0883    1.0107   -4.8695 C   0  0  0  0  0  0  0  0  0  0  0  0
    1.2436    0.2171   -4.8085 C   0  0  0  0  0  0  0  0  0  0  0  0
    1.8454   -0.1966   -5.9549 C   0  0  0  0  0  0  0  0  0  0  0  0
    1.3214    0.1607   -7.2091 C   0  0  0  0  0  0  0  0  0  0  0  0
    0.1818    0.9429   -7.2988 C   0  0  0  0  0  0  0  0  0  0  0  0
   -0.4521    1.3798   -6.1245 C   0  0  0  0  0  0  0  0  0  0  0  0
    1.9920   -0.3014   -8.4422 C   0  0  0  0  0  0  0  0  0  0  0  0
    1.5435    0.0048   -9.5287 O   0  0  0  0  0  0  0  0  0  0  0  0
   -0.0670    1.1202   -2.4368 N   0  0  0  0  0  0  0  0  0  0  0  0
   -0.7527    1.5927   -1.2315 C   0  0  0  0  0  0  0  0  0  0  0  0
   -0.0127    1.0858    0.0080 C   0  0  0  0  0  0  0  0  0  0  0  0
   -0.7288    1.5792    1.2668 C   0  0  0  0  0  0  0  0  0  0  0  0
   -0.0377    1.1059    2.4245 O   0  0  0  0  0  0  0  0  0  0  0  0
   -1.5850    2.1567   -6.2525 N   0  3  0  0  0  0  0  0  0  0  0  0
    3.1006   -1.0624   -8.3613 O   0  5  0  0  0  0  0  0  0  0  0  0
   -3.1827    4.3261   -4.6722 H   0  0  0  0  0  0  0  0  0  0  0  0
   -4.1846    2.8635   -4.6772 H   0  0  0  0  0  0  0  0  0  0  0  0
   -3.6854    3.6014   -6.2720 H   0  0  0  0  0  0  0  0  0  0  0  0
   -2.2316    2.5899   -2.9349 H   0  0  0  0  0  0  0  0  0  0  0  0
    1.6625   -0.0704   -3.8328 H   0  0  0  0  0  0  0  0  0  0  0  0
    2.7518   -0.8174   -5.9005 H   0  0  0  0  0  0  0  0  0  0  0  0
   -0.2238    1.2199   -8.2831 H   0  0  0  0  0  0  0  0  0  0  0  0
    0.7792    0.5390   -2.3535 H   0  0  0  0  0  0  0  0  0  0  0  0
   -0.7671    2.6926   -1.2250 H   0  0  0  0  0  0  0  0  0  0  0  0
   -1.7848    1.2124   -1.2225 H   0  0  0  0  0  0  0  0  0  0  0  0
    0.0018   -0.0141    0.0023 H   0  0  0  0  0  0  0  0  0  0  0  0
    1.0194    1.4662    0.0013 H   0  0  0  0  0  0  0  0  0  0  0  0
   -0.7433    2.6791    1.2732 H   0  0  0  0  0  0  0  0  0  0  0  0
   -1.7609    1.1988    1.2757 H   0  0  0  0  0  0  0  0  0  0  0  0
    0.8912    1.4483    2.4184 H   0  0  0  0  0  0  0  0  0  0  0  0
   -1.9678    2.4181   -7.1723 H   0  0  0  0  0  0  0  0  0  0  0  0
  1  2  1  0  0  0  0
  2  3  2  0  0  0  0
  2 18  1  0  0  0  0
  3  4  1  0  0  0  0
  4  5  2  0  0  0  0
  4 13  1  0  0  0  0
  5 10  1  0  0  0  0
  5  6  1  0  0  0  0
  6  7  2  0  0  0  0
  7  8  1  0  0  0  0
  8  9  2  0  0  0  0
  8 11  1  0  0  0  0
  9 10  1  0  0  0  0
 10 18  2  0  0  0  0
 11 12  2  0  0  0  0
 11 19  1  0  0  0  0
 13 14  1  0  0  0  0
 14 15  1  0  0  0  0
 15 16  1  0  0  0  0
 16 17  1  0  0  0  0
  1 20  1  0  0  0  0
  1 21  1  0  0  0  0
  1 22  1  0  0  0  0
  3 23  1  0  0  0  0
  6 24  1  0  0  0  0
  7 25  1  0  0  0  0
  9 26  1  0  0  0  0
 13 27  1  0  0  0  0
 14 28  1  0  0  0  0
 14 29  1  0  0  0  0
 15 30  1  0  0  0  0
 15 31  1  0  0  0  0
 16 32  1  0  0  0  0
 16 33  1  0  0  0  0
 17 34  1  0  0  0  0
 18 35  1  0  0  0  0
M  CHG  2  18   1  19  -1
M  END
> <Name>
ZINC04226538

> <reference>
BDB5242

> <quality>
0.858

> <status>
decoy

$$$$
ZINC04777692
  SciTegic06141217593D

 41 42  0  0  1  0            999 V2000
    2.4756    1.3384    0.5354 C   0  0  0  0  0  0  0  0  0  0  0  0
    2.8109   -0.0974    0.4875 C   0  0  0  0  0  0  0  0  0  0  0  0
    4.0025   -0.8027    0.5986 C   0  0  0  0  0  0  0  0  0  0  0  0
    3.7313   -2.0804    0.4880 N   0  0  0  0  0  0  0  0  0  0  0  0
    2.3496   -2.2508    0.2996 N   0  0  0  0  0  0  0  0  0  0  0  0
    1.7723   -1.0348    0.2936 C   0  0  0  0  0  0  0  0  0  0  0  0
    0.4988   -0.6206    0.1461 N   0  0  0  0  0  0  0  0  0  0  0  0
    0.2496    0.6597    0.0413 C   0  0  0  0  0  0  0  0  0  0  0  0
    1.2192    1.6166   -0.0110 N   0  0  0  0  0  0  0  0  0  0  0  0
    0.9488    2.9163   -0.6306 C   0  0  0  0  0  0  0  0  0  0  0  0
   -0.0924    2.7462   -1.7387 C   0  0  1  0  0  0  0  0  0  0  0  0
   -0.4671    4.1188   -2.3015 C   0  0  1  0  0  0  0  0  0  0  0  0
   -1.5082    3.9487   -3.4097 C   0  0  1  0  0  0  0  0  0  0  0  0
   -1.8828    5.3213   -3.9725 C   0  0  1  0  0  0  0  0  0  0  0  0
   -2.9240    5.1512   -5.0806 C   0  0  0  0  0  0  0  0  0  0  0  0
   -3.1878    6.4190   -5.6849 O   0  0  0  0  0  0  0  0  0  0  0  0
   -2.4261    6.1320   -2.9286 O   0  0  0  0  0  0  0  0  0  0  0  0
   -0.9649    3.1380   -4.4534 O   0  0  0  0  0  0  0  0  0  0  0  0
   -1.0104    4.9295   -1.2577 O   0  0  0  0  0  0  0  0  0  0  0  0
    0.4509    1.9355   -2.7825 O   0  0  0  0  0  0  0  0  0  0  0  0
    1.6564   -3.5312    0.1381 C   0  0  0  0  0  0  0  0  0  0  0  0
    3.2351    2.3153    1.0290 N   0  0  0  0  0  0  0  0  0  0  0  0
    4.9999   -0.3652    0.7526 H   0  0  0  0  0  0  0  0  0  0  0  0
   -0.8010    0.9819   -0.0073 H   0  0  0  0  0  0  0  0  0  0  0  0
    1.8778    3.3194   -1.0601 H   0  0  0  0  0  0  0  0  0  0  0  0
    0.5641    3.6121    0.1296 H   0  0  0  0  0  0  0  0  0  0  0  0
   -0.9899    2.2612   -1.3272 H   0  0  0  0  0  0  0  0  0  0  0  0
    0.4304    4.6039   -2.7129 H   0  0  0  0  0  0  0  0  0  0  0  0
   -2.4057    3.4637   -2.9983 H   0  0  0  0  0  0  0  0  0  0  0  0
   -0.9853    5.8063   -4.3840 H   0  0  0  0  0  0  0  0  0  0  0  0
   -2.5397    4.4558   -5.8414 H   0  0  0  0  0  0  0  0  0  0  0  0
   -3.8542    4.7491   -4.6527 H   0  0  0  0  0  0  0  0  0  0  0  0
   -2.3517    6.7818   -6.0715 H   0  0  0  0  0  0  0  0  0  0  0  0
   -1.7529    6.2428   -2.2112 H   0  0  0  0  0  0  0  0  0  0  0  0
   -0.7225    2.2495   -4.0901 H   0  0  0  0  0  0  0  0  0  0  0  0
   -0.3372    5.0403   -0.5403 H   0  0  0  0  0  0  0  0  0  0  0  0
    0.6934    1.0470   -2.4193 H   0  0  0  0  0  0  0  0  0  0  0  0
    1.9733   -4.0865    1.0332 H   0  0  0  0  0  0  0  0  0  0  0  0
    2.1980   -3.9892   -0.7027 H   0  0  0  0  0  0  0  0  0  0  0  0
    0.5659   -3.4910   -0.0008 H   0  0  0  0  0  0  0  0  0  0  0  0
    2.8900    3.2855    1.0064 H   0  0  0  0  0  0  0  0  0  0  0  0
  1  9  1  0  0  0  0
  1  2  1  0  0  0  0
  1 22  2  0  0  0  0
  2  6  2  0  0  0  0
  2  3  1  0  0  0  0
  3  4  2  0  0  0  0
  4  5  1  0  0  0  0
  5  6  1  0  0  0  0
  5 21  1  0  0  0  0
  6  7  1  0  0  0  0
  7  8  2  0  0  0  0
  8  9  1  0  0  0  0
  9 10  1  0  0  0  0
 10 11  1  0  0  0  0
 11 12  1  0  0  0  0
 11 20  1  0  0  0  0
 12 13  1  0  0  0  0
 12 19  1  0  0  0  0
 13 14  1  0  0  0  0
 13 18  1  0  0  0  0
 14 15  1  0  0  0  0
 14 17  1  0  0  0  0
 15 16  1  0  0  0  0
  3 23  1  0  0  0  0
  8 24  1  0  0  0  0
 10 25  1  0  0  0  0
 10 26  1  0  0  0  0
 11 27  1  0  0  0  0
 12 28  1  0  0  0  0
 13 29  1  0  0  0  0
 14 30  1  0  0  0  0
 15 31  1  0  0  0  0
 15 32  1  0  0  0  0
 16 33  1  0  0  0  0
 17 34  1  0  0  0  0
 18 35  1  0  0  0  0
 19 36  1  0  0  0  0
 20 37  1  0  0  0  0
 21 38  1  0  0  0  0
 21 39  1  0  0  0  0
 21 40  1  0  0  0  0
 22 41  1  0  0  0  0
M  END
> <Name>
ZINC04777692

> <reference>
BDB4934

> <quality>
0.663

> <status>
decoy

$$$$
ZINC29823259
  SciTegic06141217593D

 42 43  0  0  0  0            999 V2000
   -2.1219    0.2810    2.1818 C   0  0  0  0  0  0  0  0  0  0  0  0
   -2.2558   -0.4082    0.8960 N   0  0  0  0  0  0  0  0  0  0  0  0
   -3.2971   -1.1931    0.5030 C   0  0  0  0  0  0  0  0  0  0  0  0
   -3.0566   -1.6344   -0.7002 N   0  0  0  0  0  0  0  0  0  0  0  0
   -1.8757   -1.1559   -1.1229 C   0  0  0  0  0  0  0  0  0  0  0  0
   -1.3585   -0.3824   -0.1390 C   0  0  0  0  0  0  0  0  0  0  0  0
   -0.1434    0.3035   -0.1709 N   0  0  0  0  0  0  0  0  0  0  0  0
   -0.3350    1.7285    0.1331 C   0  0  0  0  0  0  0  0  0  0  0  0
    1.0048    2.4582    0.0102 C   0  0  0  0  0  0  0  0  0  0  0  0
    1.9761    1.8520    0.9315 N   0  0  0  0  0  0  0  0  0  0  0  0
    2.1676    0.4271    0.6275 C   0  0  0  0  0  0  0  0  0  0  0  0
    0.8279   -0.3026    0.7504 C   0  0  0  0  0  0  0  0  0  0  0  0
    3.2550    2.5740    0.8979 C   0  0  0  0  0  0  0  0  0  0  0  0
    3.0591    3.9846    1.4572 C   0  0  0  0  0  0  0  0  0  0  0  0
    4.3711    4.7253    1.4228 C   0  0  0  0  0  0  0  0  0  0  0  0
    5.3645    4.1790    0.9934 O   0  0  0  0  0  0  0  0  0  0  0  0
    4.4400    5.9951    1.8693 N   0  0  0  0  0  0  0  0  0  0  0  0
    5.6134    6.6575    1.8386 C   0  0  0  0  0  0  0  0  0  0  0  0
    6.6093    6.1098    1.4081 O   0  0  0  0  0  0  0  0  0  0  0  0
    5.6823    7.9272    2.2851 N   0  0  0  0  0  0  0  0  0  0  0  0
   -1.2484   -1.4262   -2.4368 N   0  0  0  0  0  0  0  0  0  0  0  0
   -0.1395   -0.9871   -2.6840 O   0  0  0  0  0  0  0  0  0  0  0  0
   -1.8413   -2.0875   -3.2702 O   0  0  0  0  0  0  0  0  0  0  0  0
   -1.9575    1.3238    1.8728 H   0  0  0  0  0  0  0  0  0  0  0  0
   -1.1467   -0.0798    2.5408 H   0  0  0  0  0  0  0  0  0  0  0  0
   -2.9419    0.1507    2.9034 H   0  0  0  0  0  0  0  0  0  0  0  0
   -4.1925   -1.4175    1.1013 H   0  0  0  0  0  0  0  0  0  0  0  0
   -1.0547    2.1618   -0.5770 H   0  0  0  0  0  0  0  0  0  0  0  0
   -0.7188    1.8378    1.1582 H   0  0  0  0  0  0  0  0  0  0  0  0
    0.8706    3.5196    0.2659 H   0  0  0  0  0  0  0  0  0  0  0  0
    1.3759    2.3728   -1.0218 H   0  0  0  0  0  0  0  0  0  0  0  0
    2.8875   -0.0071    1.3369 H   0  0  0  0  0  0  0  0  0  0  0  0
    2.5511    0.3188   -0.3978 H   0  0  0  0  0  0  0  0  0  0  0  0
    0.9643   -1.3639    0.4955 H   0  0  0  0  0  0  0  0  0  0  0  0
    0.4575   -0.2172    1.7826 H   0  0  0  0  0  0  0  0  0  0  0  0
    3.9954    2.0373    1.5093 H   0  0  0  0  0  0  0  0  0  0  0  0
    3.6138    2.6384   -0.1399 H   0  0  0  0  0  0  0  0  0  0  0  0
    2.7013    3.9221    2.4955 H   0  0  0  0  0  0  0  0  0  0  0  0
    2.3191    4.5220    0.8460 H   0  0  0  0  0  0  0  0  0  0  0  0
    3.5959    6.4593    2.2340 H   0  0  0  0  0  0  0  0  0  0  0  0
    4.8383    8.3914    2.6498 H   0  0  0  0  0  0  0  0  0  0  0  0
    6.5790    8.4334    2.2616 H   0  0  0  0  0  0  0  0  0  0  0  0
  1  2  1  0  0  0  0
  2  6  1  0  0  0  0
  2  3  1  0  0  0  0
  3  4  2  0  0  0  0
  4  5  1  0  0  0  0
  5  6  2  0  0  0  0
  5 21  1  0  0  0  0
  6  7  1  0  0  0  0
  7 12  1  0  0  0  0
  7  8  1  0  0  0  0
  8  9  1  0  0  0  0
  9 10  1  0  0  0  0
 10 11  1  0  0  0  0
 10 13  1  0  0  0  0
 11 12  1  0  0  0  0
 13 14  1  0  0  0  0
 14 15  1  0  0  0  0
 15 16  2  0  0  0  0
 15 17  1  0  0  0  0
 17 18  1  0  0  0  0
 18 19  2  0  0  0  0
 18 20  1  0  0  0  0
 21 22  2  0  0  0  0
 21 23  2  0  0  0  0
  1 24  1  0  0  0  0
  1 25  1  0  0  0  0
  1 26  1  0  0  0  0
  3 27  1  0  0  0  0
  8 28  1  0  0  0  0
  8 29  1  0  0  0  0
  9 30  1  0  0  0  0
  9 31  1  0  0  0  0
 11 32  1  0  0  0  0
 11 33  1  0  0  0  0
 12 34  1  0  0  0  0
 12 35  1  0  0  0  0
 13 36  1  0  0  0  0
 13 37  1  0  0  0  0
 14 38  1  0  0  0  0
 14 39  1  0  0  0  0
 17 40  1  0  0  0  0
 20 41  1  0  0  0  0
 20 42  1  0  0  0  0
M  END
> <Name>
ZINC29823259

> <reference>
BDB4932

> <quality>
0.687

> <status>
decoy

$$$$
ZINC17430523
  SciTegic06141217593D

 49 51  0  0  1  0            999 V2000
   -3.5076    8.4513   11.4419 C   0  0  0  0  0  0  0  0  0  0  0  0
   -4.2289    7.9832   10.3596 C   0  0  0  0  0  0  0  0  0  0  0  0
   -3.5992    7.2403    9.3785 C   0  0  0  0  0  0  0  0  0  0  0  0
   -2.2482    6.9658    9.4796 C   0  0  0  0  0  0  0  0  0  0  0  0
   -1.5279    7.4294   10.5647 C   0  0  0  0  0  0  0  0  0  0  0  0
   -2.1567    8.1760   11.5435 C   0  0  0  0  0  0  0  0  0  0  0  0
   -1.5616    6.1559    8.4101 C   0  0  0  0  0  0  0  0  0  0  0  0
   -1.0643    7.0308    7.3957 O   0  0  0  0  0  0  0  0  0  0  0  0
   -0.3980    6.3661    6.3377 N   0  0  0  0  0  0  0  0  0  0  0  0
    0.1315    7.0928    5.2912 C   0  0  0  0  0  0  0  0  0  0  0  0
    0.8243    6.4014    4.1909 C   0  0  0  0  0  0  0  0  0  0  0  0
    1.4052    6.9965    3.0872 C   0  0  0  0  0  0  0  0  0  0  0  0
    1.9246    5.9848    2.3316 N   0  0  0  0  0  0  0  0  0  0  0  0
    1.6659    4.8142    2.9775 C   0  0  0  0  0  0  0  0  0  0  0  0
    1.0156    5.0619    4.0764 N   0  0  0  0  0  0  0  0  0  0  0  0
    2.6365    6.1322    1.0597 C   0  0  1  0  0  0  0  0  0  0  0  0
    4.1623    6.2659    1.2967 C   0  0  2  0  0  0  0  0  0  0  0  0
    4.7442    5.7758   -0.0516 C   0  0  1  0  0  0  0  0  0  0  0  0
    3.6076    4.9402   -0.6720 C   0  0  2  0  0  0  0  0  0  0  0  0
    2.5223    4.9286    0.2705 O   0  0  0  0  0  0  0  0  0  0  0  0
    4.0914    3.5111   -0.9259 C   0  0  0  0  0  0  0  0  0  0  0  0
    3.0654    2.7720   -1.5915 O   0  0  0  0  0  0  0  0  0  0  0  0
    5.0641    6.8866   -0.8916 O   0  0  0  0  0  0  0  0  0  0  0  0
    4.5871    5.4249    2.3712 O   0  0  0  0  0  0  0  0  0  0  0  0
    1.4492    8.3543    2.8017 N   0  0  0  0  0  0  0  0  0  0  0  0
    0.8545    8.8286    1.6892 C   0  0  0  0  0  0  0  0  0  0  0  0
    0.2031    8.0855    0.9860 O   0  0  0  0  0  0  0  0  0  0  0  0
    0.0499    8.4167    5.2172 N   0  0  0  0  0  0  0  0  0  0  0  0
   -4.0086    9.0429   12.2223 H   0  0  0  0  0  0  0  0  0  0  0  0
   -5.3039    8.2018   10.2790 H   0  0  0  0  0  0  0  0  0  0  0  0
   -4.1732    6.8676    8.5173 H   0  0  0  0  0  0  0  0  0  0  0  0
   -0.4545    7.2042   10.6492 H   0  0  0  0  0  0  0  0  0  0  0  0
   -1.5821    8.5511   12.4033 H   0  0  0  0  0  0  0  0  0  0  0  0
   -0.7247    5.5968    8.8539 H   0  0  0  0  0  0  0  0  0  0  0  0
   -2.2790    5.4505    7.9655 H   0  0  0  0  0  0  0  0  0  0  0  0
   -0.3086    5.3401    6.3494 H   0  0  0  0  0  0  0  0  0  0  0  0
    1.9609    3.8149    2.6249 H   0  0  0  0  0  0  0  0  0  0  0  0
    2.2006    7.0135    0.5666 H   0  0  0  0  0  0  0  0  0  0  0  0
    4.4812    7.2812    1.5752 H   0  0  0  0  0  0  0  0  0  0  0  0
    5.6730    5.1997    0.0732 H   0  0  0  0  0  0  0  0  0  0  0  0
    3.2862    5.3705   -1.6320 H   0  0  0  0  0  0  0  0  0  0  0  0
    4.9926    3.5355   -1.5561 H   0  0  0  0  0  0  0  0  0  0  0  0
    4.3276    3.0270    0.0332 H   0  0  0  0  0  0  0  0  0  0  0  0
    2.8524    3.2059   -2.4555 H   0  0  0  0  0  0  0  0  0  0  0  0
    5.7296    7.4580   -0.4326 H   0  0  0  0  0  0  0  0  0  0  0  0
    4.3677    4.4855    2.1486 H   0  0  0  0  0  0  0  0  0  0  0  0
    1.9364    8.9993    3.4401 H   0  0  0  0  0  0  0  0  0  0  0  0
    0.9599    9.8897    1.4189 H   0  0  0  0  0  0  0  0  0  0  0  0
   -0.4323    8.9125    5.9805 H   0  0  0  0  0  0  0  0  0  0  0  0
  1  6  2  0  0  0  0
  1  2  1  0  0  0  0
  2  3  2  0  0  0  0
  3  4  1  0  0  0  0
  4  5  2  0  0  0  0
  4  7  1  0  0  0  0
  5  6  1  0  0  0  0
  7  8  1  0  0  0  0
  8  9  1  0  0  0  0
  9 10  1  0  0  0  0
 10 11  1  0  0  0  0
 10 28  2  0  0  0  0
 11 15  1  0  0  0  0
 11 12  2  0  0  0  0
 12 13  1  0  0  0  0
 12 25  1  0  0  0  0
 13 14  1  0  0  0  0
 13 16  1  0  0  0  0
 14 15  2  0  0  0  0
 16 20  1  0  0  0  0
 16 17  1  0  0  0  0
 17 18  1  0  0  0  0
 17 24  1  0  0  0  0
 18 19  1  0  0  0  0
 18 23  1  0  0  0  0
 19 20  1  0  0  0  0
 19 21  1  0  0  0  0
 21 22  1  0  0  0  0
 25 26  1  0  0  0  0
 26 27  2  0  0  0  0
  1 29  1  0  0  0  0
  2 30  1  0  0  0  0
  3 31  1  0  0  0  0
  5 32  1  0  0  0  0
  6 33  1  0  0  0  0
  7 34  1  0  0  0  0
  7 35  1  0  0  0  0
  9 36  1  0  0  0  0
 14 37  1  0  0  0  0
 16 38  1  0  0  0  0
 17 39  1  0  0  0  0
 18 40  1  0  0  0  0
 19 41  1  0  0  0  0
 21 42  1  0  0  0  0
 21 43  1  0  0  0  0
 22 44  1  0  0  0  0
 23 45  1  0  0  0  0
 24 46  1  0  0  0  0
 25 47  1  0  0  0  0
 26 48  1  0  0  0  0
 28 49  1  0  0  0  0
M  END
> <Name>
ZINC17430523

> <reference>
BDB4945

> <quality>
0.724

> <status>
decoy

$$$$
ZINC07699012
  SciTegic06141217593D

 40 41  0  0  0  0            999 V2000
    5.2478  -10.8787   -1.4602 C   0  0  0  0  0  0  0  0  0  0  0  0
    5.6732   -9.5186   -1.3540 O   0  0  0  0  0  0  0  0  0  0  0  0
    6.3640   -9.2188   -0.1395 C   0  0  0  0  0  0  0  0  0  0  0  0
    6.7702   -7.7437   -0.1346 C   0  0  0  0  0  0  0  0  0  0  0  0
    5.5683   -6.9064   -0.1137 N   0  0  0  0  0  0  0  0  0  0  0  0
    5.6826   -5.5635   -0.1060 C   0  0  0  0  0  0  0  0  0  0  0  0
    6.7828   -5.0472   -0.1164 O   0  0  0  0  0  0  0  0  0  0  0  0
    4.5769   -4.7931   -0.0867 N   0  0  0  0  0  0  0  0  0  0  0  0
    4.6912   -3.4502   -0.0790 C   0  0  0  0  0  0  0  0  0  0  0  0
    5.7887   -2.9352   -0.0894 O   0  0  0  0  0  0  0  0  0  0  0  0
    3.4549   -2.5888   -0.0575 C   0  0  0  0  0  0  0  0  0  0  0  0
    3.9364   -0.8399   -0.0517 S   0  0  0  0  0  0  0  0  0  0  0  0
    2.4014    0.0248   -0.0263 C   0  0  0  0  0  0  0  0  0  0  0  0
    1.2054   -0.6820   -0.0160 C   0  0  0  0  0  0  0  0  0  0  0  0
    0.0021   -0.0041    0.0020 C   0  0  0  0  0  0  0  0  0  0  0  0
   -0.0167    1.3828    0.0096 C   0  0  0  0  0  0  0  0  0  0  0  0
    1.1780    2.0931    0.0021 C   0  0  0  0  0  0  0  0  0  0  0  0
    2.3861    1.4130   -0.0171 C   0  0  0  0  0  0  0  0  0  0  0  0
    1.1793    3.4541    0.0180 O   0  0  0  0  0  0  0  0  0  0  0  0
   -0.0453    4.1036   -0.3400 C   0  0  0  0  0  0  0  0  0  0  0  0
   -1.1929    3.4118    0.4080 C   0  0  0  0  0  0  0  0  0  0  0  0
   -1.2136    2.0336    0.0189 O   0  0  0  0  0  0  0  0  0  0  0  0
    4.5928  -11.0892   -0.6019 H   0  0  0  0  0  0  0  0  0  0  0  0
    6.1426  -11.5133   -1.3788 H   0  0  0  0  0  0  0  0  0  0  0  0
    4.7217  -11.0648   -2.4081 H   0  0  0  0  0  0  0  0  0  0  0  0
    7.2642   -9.8465   -0.0638 H   0  0  0  0  0  0  0  0  0  0  0  0
    5.7039   -9.4196    0.7172 H   0  0  0  0  0  0  0  0  0  0  0  0
    7.3783   -7.5337    0.7576 H   0  0  0  0  0  0  0  0  0  0  0  0
    7.3560   -7.5205   -1.0385 H   0  0  0  0  0  0  0  0  0  0  0  0
    4.6359   -7.3440   -0.1049 H   0  0  0  0  0  0  0  0  0  0  0  0
    3.6445   -5.2306   -0.0778 H   0  0  0  0  0  0  0  0  0  0  0  0
    2.8465   -2.7980   -0.9497 H   0  0  0  0  0  0  0  0  0  0  0  0
    2.8683   -2.8097    0.8464 H   0  0  0  0  0  0  0  0  0  0  0  0
    1.2167   -1.7819   -0.0222 H   0  0  0  0  0  0  0  0  0  0  0  0
   -0.9438   -0.5656    0.0103 H   0  0  0  0  0  0  0  0  0  0  0  0
    3.3326    1.9734   -0.0250 H   0  0  0  0  0  0  0  0  0  0  0  0
   -0.0012    5.1634   -0.0487 H   0  0  0  0  0  0  0  0  0  0  0  0
   -0.2077    4.0179   -1.4246 H   0  0  0  0  0  0  0  0  0  0  0  0
   -2.1487    3.8858    0.1402 H   0  0  0  0  0  0  0  0  0  0  0  0
   -1.0257    3.4874    1.4926 H   0  0  0  0  0  0  0  0  0  0  0  0
  1  2  1  0  0  0  0
  2  3  1  0  0  0  0
  3  4  1  0  0  0  0
  4  5  1  0  0  0  0
  5  6  1  0  0  0  0
  6  7  2  0  0  0  0
  6  8  1  0  0  0  0
  8  9  1  0  0  0  0
  9 10  2  0  0  0  0
  9 11  1  0  0  0  0
 11 12  1  0  0  0  0
 12 13  1  0  0  0  0
 13 18  2  0  0  0  0
 13 14  1  0  0  0  0
 14 15  2  0  0  0  0
 15 16  1  0  0  0  0
 16 22  1  0  0  0  0
 16 17  2  0  0  0  0
 17 18  1  0  0  0  0
 17 19  1  0  0  0  0
 19 20  1  0  0  0  0
 20 21  1  0  0  0  0
 21 22  1  0  0  0  0
  1 23  1  0  0  0  0
  1 24  1  0  0  0  0
  1 25  1  0  0  0  0
  3 26  1  0  0  0  0
  3 27  1  0  0  0  0
  4 28  1  0  0  0  0
  4 29  1  0  0  0  0
  5 30  1  0  0  0  0
  8 31  1  0  0  0  0
 11 32  1  0  0  0  0
 11 33  1  0  0  0  0
 14 34  1  0  0  0  0
 15 35  1  0  0  0  0
 18 36  1  0  0  0  0
 20 37  1  0  0  0  0
 20 38  1  0  0  0  0
 21 39  1  0  0  0  0
 21 40  1  0  0  0  0
M  END
> <Name>
ZINC07699012

> <reference>
BDB5198

> <quality>
0.726

> <status>
decoy

$$$$
ZINC31944609
  SciTegic06141217593D

 31 31  0  0  0  0            999 V2000
   -5.2565    3.1260    0.0675 C   0  0  0  0  0  0  0  0  0  0  0  0
   -3.8631    2.5521    0.0516 C   0  0  0  0  0  0  0  0  0  0  0  0
   -3.6448    1.2845   -0.4561 C   0  0  0  0  0  0  0  0  0  0  0  0
   -2.3690    0.7557   -0.4720 C   0  0  0  0  0  0  0  0  0  0  0  0
   -1.3048    1.4987    0.0221 C   0  0  0  0  0  0  0  0  0  0  0  0
   -1.5283    2.7693    0.5361 C   0  0  0  0  0  0  0  0  0  0  0  0
   -2.8056    3.2944    0.5444 C   0  0  0  0  0  0  0  0  0  0  0  0
   -0.0111    0.9658    0.0074 N   0  0  0  0  0  0  0  0  0  0  0  0
    1.0498    1.7770   -0.1744 C   0  0  0  0  0  0  0  0  0  0  0  0
    0.8793    2.9531   -0.4170 O   0  0  0  0  0  0  0  0  0  0  0  0
    2.4477    1.2228   -0.0762 C   0  0  0  0  0  0  0  0  0  0  0  0
    3.6471    2.5522   -0.3674 S   0  0  0  0  0  0  0  0  0  0  0  0
    3.5075    2.9974   -1.7096 O   0  0  0  0  0  0  0  0  0  0  0  0
    3.5368    3.4964    0.6888 O   0  0  0  0  0  0  0  0  0  0  0  0
    5.2392    1.6973   -0.2090 C   0  5  0  0  0  0  0  0  0  0  0  0
    6.3608    2.6799   -0.4271 C   0  0  0  0  0  0  0  0  0  0  0  0
    6.0311    4.2125   -0.7419 S   0  0  0  0  0  0  0  0  0  0  0  0
    7.6417    2.2668   -0.3568 N   0  0  0  0  0  0  0  0  0  0  0  0
   -5.1830    4.0718   -0.4893 H   0  0  0  0  0  0  0  0  0  0  0  0
   -5.4488    3.3820    1.1199 H   0  0  0  0  0  0  0  0  0  0  0  0
   -6.0199    2.4515   -0.3477 H   0  0  0  0  0  0  0  0  0  0  0  0
   -4.4881    0.6967   -0.8477 H   0  0  0  0  0  0  0  0  0  0  0  0
   -2.1960   -0.2529   -0.8756 H   0  0  0  0  0  0  0  0  0  0  0  0
   -0.6888    3.3569    0.9362 H   0  0  0  0  0  0  0  0  0  0  0  0
   -2.9819    4.3042    0.9434 H   0  0  0  0  0  0  0  0  0  0  0  0
    0.1305   -0.0463    0.1355 H   0  0  0  0  0  0  0  0  0  0  0  0
    2.6054    0.8009    0.9273 H   0  0  0  0  0  0  0  0  0  0  0  0
    2.5848    0.4346   -0.8311 H   0  0  0  0  0  0  0  0  0  0  0  0
    5.3029    0.8965   -0.9604 H   0  0  0  0  0  0  0  0  0  0  0  0
    7.8541    1.2795   -0.1540 H   0  0  0  0  0  0  0  0  0  0  0  0
    8.4083    2.9384   -0.5059 H   0  0  0  0  0  0  0  0  0  0  0  0
  1  2  1  0  0  0  0
  2  7  2  0  0  0  0
  2  3  1  0  0  0  0
  3  4  2  0  0  0  0
  4  5  1  0  0  0  0
  5  6  2  0  0  0  0
  5  8  1  0  0  0  0
  6  7  1  0  0  0  0
  8  9  1  0  0  0  0
  9 10  2  0  0  0  0
  9 11  1  0  0  0  0
 11 12  1  0  0  0  0
 12 13  2  0  0  0  0
 12 14  2  0  0  0  0
 12 15  1  0  0  0  0
 15 16  1  0  0  0  0
 16 17  2  0  0  0  0
 16 18  1  0  0  0  0
  1 19  1  0  0  0  0
  1 20  1  0  0  0  0
  1 21  1  0  0  0  0
  3 22  1  0  0  0  0
  4 23  1  0  0  0  0
  6 24  1  0  0  0  0
  7 25  1  0  0  0  0
  8 26  1  0  0  0  0
 11 27  1  0  0  0  0
 11 28  1  0  0  0  0
 15 29  1  0  0  0  0
 18 30  1  0  0  0  0
 18 31  1  0  0  0  0
M  CHG  1  15  -1
M  END
> <Name>
ZINC31944609

> <reference>
BDB5204

> <quality>
0.745

> <status>
decoy

$$$$
ZINC31599770
  SciTegic06141217593D

 38 38  0  0  0  0            999 V2000
    2.6601    2.9825   -0.1615 C   0  0  0  0  0  0  0  0  0  0  0  0
    2.6442    1.4526   -0.1532 C   0  0  0  0  0  0  0  0  0  0  0  0
    2.7898    0.9488    1.2841 C   0  0  0  0  0  0  0  0  0  0  0  0
    1.6283    1.4755    2.1293 C   0  0  2  0  0  0  0  0  0  0  0  0
    1.6442    3.0054    2.1210 C   0  0  0  0  0  0  0  0  0  0  0  0
    1.4986    3.5092    0.6837 C   0  0  0  0  0  0  0  0  0  0  0  0
    1.8010    0.8782    3.8334 S   0  0  0  0  0  0  0  0  0  0  0  0
    0.2896    1.4534    4.6553 C   0  0  0  0  0  0  0  0  0  0  0  0
    0.3059    1.0116    6.1201 C   0  0  0  0  0  0  0  0  0  0  0  0
   -0.9147    1.4761    6.7838 N   0  3  0  0  0  0  0  0  0  0  0  0
   -1.7668    0.6190    7.2439 C   0  0  0  0  0  0  0  0  0  0  0  0
   -2.9466    1.0901    8.0547 C   0  0  0  0  0  0  0  0  0  0  0  0
   -2.8916    2.8968    8.2086 S   0  0  0  0  0  0  0  0  0  0  0  0
   -3.3141    3.5687    6.3185 S   0  0  0  0  0  0  0  0  0  0  0  0
   -3.0821    4.9706    6.3246 O   0  0  0  0  0  0  0  0  0  0  0  0
   -2.6523    2.6909    5.4181 O   0  0  0  0  0  0  0  0  0  0  0  0
   -4.8072    3.3758    6.0956 O   0  5  0  0  0  0  0  0  0  0  0  0
   -1.5971   -0.7173    6.9942 N   0  0  0  0  0  0  0  0  0  0  0  0
    2.5552    3.3441   -1.1950 H   0  0  0  0  0  0  0  0  0  0  0  0
    3.6120    3.3408    0.2575 H   0  0  0  0  0  0  0  0  0  0  0  0
    3.4791    1.0728   -0.7604 H   0  0  0  0  0  0  0  0  0  0  0  0
    1.6928    1.0934   -0.5725 H   0  0  0  0  0  0  0  0  0  0  0  0
    2.7778   -0.1511    1.2902 H   0  0  0  0  0  0  0  0  0  0  0  0
    3.7407    1.3075    1.7050 H   0  0  0  0  0  0  0  0  0  0  0  0
    0.6770    1.1164    1.7096 H   0  0  0  0  0  0  0  0  0  0  0  0
    0.8088    3.3842    2.7281 H   0  0  0  0  0  0  0  0  0  0  0  0
    2.5952    3.3656    2.5404 H   0  0  0  0  0  0  0  0  0  0  0  0
    1.5103    4.6091    0.6783 H   0  0  0  0  0  0  0  0  0  0  0  0
    0.5468    3.1506    0.2649 H   0  0  0  0  0  0  0  0  0  0  0  0
    0.2395    2.5511    4.6045 H   0  0  0  0  0  0  0  0  0  0  0  0
   -0.5890    1.0225    4.1529 H   0  0  0  0  0  0  0  0  0  0  0  0
    1.1833    1.4425    6.6245 H   0  0  0  0  0  0  0  0  0  0  0  0
    0.3556   -0.0861    6.1716 H   0  0  0  0  0  0  0  0  0  0  0  0
   -1.0942    2.4854    6.8840 H   0  0  0  0  0  0  0  0  0  0  0  0
   -2.9095    0.6363    9.0561 H   0  0  0  0  0  0  0  0  0  0  0  0
   -3.8791    0.7938    7.5520 H   0  0  0  0  0  0  0  0  0  0  0  0
   -0.7908   -1.0393    6.4400 H   0  0  0  0  0  0  0  0  0  0  0  0
   -2.2758   -1.3999    7.3607 H   0  0  0  0  0  0  0  0  0  0  0  0
  1  6  1  0  0  0  0
  1  2  1  0  0  0  0
  2  3  1  0  0  0  0
  3  4  1  0  0  0  0
  4  5  1  0  0  0  0
  4  7  1  0  0  0  0
  5  6  1  0  0  0  0
  7  8  1  0  0  0  0
  8  9  1  0  0  0  0
  9 10  1  0  0  0  0
 10 11  2  0  0  0  0
 11 12  1  0  0  0  0
 11 18  1  0  0  0  0
 12 13  1  0  0  0  0
 13 14  1  0  0  0  0
 14 15  2  0  0  0  0
 14 16  2  0  0  0  0
 14 17  1  0  0  0  0
  1 19  1  0  0  0  0
  1 20  1  0  0  0  0
  2 21  1  0  0  0  0
  2 22  1  0  0  0  0
  3 23  1  0  0  0  0
  3 24  1  0  0  0  0
  4 25  1  0  0  0  0
  5 26  1  0  0  0  0
  5 27  1  0  0  0  0
  6 28  1  0  0  0  0
  6 29  1  0  0  0  0
  8 30  1  0  0  0  0
  8 31  1  0  0  0  0
  9 32  1  0  0  0  0
  9 33  1  0  0  0  0
 10 34  1  0  0  0  0
 12 35  1  0  0  0  0
 12 36  1  0  0  0  0
 18 37  1  0  0  0  0
 18 38  1  0  0  0  0
M  CHG  2  10   1  17  -1
M  END
> <Name>
ZINC31599770

> <reference>
BDB5023

> <quality>
0.664

> <status>
decoy

$$$$
ZINC31561356
  SciTegic06141217593D

 37 37  0  0  0  0            999 V2000
    0.8380    0.5076    5.0515 C   0  0  0  0  0  0  0  0  0  0  0  0
    1.7319    1.4019    4.1857 C   0  0  0  0  0  0  0  0  0  0  0  0
    0.9575    1.8503    2.9745 C   0  0  0  0  0  0  0  0  0  0  0  0
    1.2232    2.9153    2.4599 O   0  0  0  0  0  0  0  0  0  0  0  0
   -0.0203    1.0939    2.4537 N   0  0  0  0  0  0  0  0  0  0  0  0
   -0.3785   -0.0868    2.9800 C   0  0  0  0  0  0  0  0  0  0  0  0
   -1.2809   -0.7155    2.4703 O   0  0  0  0  0  0  0  0  0  0  0  0
    0.3226   -0.6490    4.1884 C   0  0  0  0  0  0  0  0  0  0  0  0
   -0.7288    1.5792    1.2668 C   0  0  0  0  0  0  0  0  0  0  0  0
   -0.0127    1.0858    0.0080 C   0  0  0  0  0  0  0  0  0  0  0  0
   -0.7527    1.5927   -1.2315 C   0  0  0  0  0  0  0  0  0  0  0  0
   -0.0651    1.1189   -2.4401 N   0  3  0  0  0  0  0  0  0  0  0  0
   -0.7492    1.5874   -3.6528 C   0  0  0  0  0  0  0  0  0  0  0  0
   -0.0056    1.0751   -4.8879 C   0  0  0  0  0  0  0  0  0  0  0  0
   -0.8503    1.6536   -6.3854 S   0  0  0  0  0  0  0  0  0  0  0  0
   -0.3263    3.7040   -6.5102 P   0  0  0  0  0  0  0  0  0  0  0  0
    1.1445    3.8318   -6.6151 O   0  0  0  0  0  0  0  0  0  0  0  0
   -1.0157    4.3559   -7.8109 O   0  5  0  0  0  0  0  0  0  0  0  0
   -0.8388    4.4703   -5.1903 O   0  5  0  0  0  0  0  0  0  0  0  0
    1.4220    0.1088    5.8941 H   0  0  0  0  0  0  0  0  0  0  0  0
   -0.0128    1.0932    5.4299 H   0  0  0  0  0  0  0  0  0  0  0  0
    2.6191    0.8361    3.8650 H   0  0  0  0  0  0  0  0  0  0  0  0
    2.0452    2.2815    4.7672 H   0  0  0  0  0  0  0  0  0  0  0  0
   -0.3834   -1.2583    4.7718 H   0  0  0  0  0  0  0  0  0  0  0  0
    1.1694   -1.2721    3.8648 H   0  0  0  0  0  0  0  0  0  0  0  0
   -1.7606    1.1981    1.2742 H   0  0  0  0  0  0  0  0  0  0  0  0
   -0.7441    2.6791    1.2717 H   0  0  0  0  0  0  0  0  0  0  0  0
    1.0191    1.4669   -0.0002 H   0  0  0  0  0  0  0  0  0  0  0  0
    0.0025   -0.0141    0.0008 H   0  0  0  0  0  0  0  0  0  0  0  0
   -1.7845    1.2116   -1.2241 H   0  0  0  0  0  0  0  0  0  0  0  0
   -0.7679    2.6926   -1.2266 H   0  0  0  0  0  0  0  0  0  0  0  0
    0.9032    1.4701   -2.4399 H   0  0  0  0  0  0  0  0  0  0  0  0
   -0.0448    0.0891   -2.4389 H   0  0  0  0  0  0  0  0  0  0  0  0
   -1.7810    1.2062   -3.6624 H   0  0  0  0  0  0  0  0  0  0  0  0
   -0.7644    2.6872   -3.6649 H   0  0  0  0  0  0  0  0  0  0  0  0
    0.0096   -0.0248   -4.8782 H   0  0  0  0  0  0  0  0  0  0  0  0
    1.0262    1.4563   -4.8792 H   0  0  0  0  0  0  0  0  0  0  0  0
  1  8  1  0  0  0  0
  1  2  1  0  0  0  0
  2  3  1  0  0  0  0
  3  4  2  0  0  0  0
  3  5  1  0  0  0  0
  5  6  1  0  0  0  0
  5  9  1  0  0  0  0
  6  7  2  0  0  0  0
  6  8  1  0  0  0  0
  9 10  1  0  0  0  0
 10 11  1  0  0  0  0
 11 12  1  0  0  0  0
 12 13  1  0  0  0  0
 13 14  1  0  0  0  0
 14 15  1  0  0  0  0
 15 16  1  0  0  0  0
 16 17  2  0  0  0  0
 16 18  1  0  0  0  0
 16 19  1  0  0  0  0
  1 20  1  0  0  0  0
  1 21  1  0  0  0  0
  2 22  1  0  0  0  0
  2 23  1  0  0  0  0
  8 24  1  0  0  0  0
  8 25  1  0  0  0  0
  9 26  1  0  0  0  0
  9 27  1  0  0  0  0
 10 28  1  0  0  0  0
 10 29  1  0  0  0  0
 11 30  1  0  0  0  0
 11 31  1  0  0  0  0
 12 32  1  0  0  0  0
 12 33  1  0  0  0  0
 13 34  1  0  0  0  0
 13 35  1  0  0  0  0
 14 36  1  0  0  0  0
 14 37  1  0  0  0  0
M  CHG  3  12   1  18  -1  19  -1
M  END
> <Name>
ZINC31561356

> <reference>
BDB5013

> <quality>
0.694

> <status>
decoy

$$$$
ZINC06425106
  SciTegic06141217593D

 32 31  0  0  1  0            999 V2000
   -5.5502    3.3668   -6.0356 C   0  0  0  0  0  0  0  0  0  0  0  0
   -6.5879    4.0812   -4.7361 S   0  0  0  0  0  0  0  0  0  0  0  0
   -5.7357    3.4975   -3.3086 C   0  0  0  0  0  0  0  0  0  0  0  0
   -4.6555    2.7553   -3.4438 N   0  0  0  0  0  0  0  0  0  0  0  0
   -3.9779    2.2912   -2.3088 N   0  0  0  0  0  0  0  0  0  0  0  0
   -2.9170    1.5623   -2.4415 C   0  0  0  0  0  0  0  0  0  0  0  0
   -2.1881    1.0631   -1.2207 C   0  0  1  0  0  0  0  0  0  0  0  0
   -0.7527    1.5927   -1.2315 C   0  0  1  0  0  0  0  0  0  0  0  0
   -0.0127    1.0858    0.0080 C   0  0  1  0  0  0  0  0  0  0  0  0
    1.4227    1.6154   -0.0028 C   0  0  1  0  0  0  0  0  0  0  0  0
    2.1627    1.1086    1.2367 C   0  0  0  0  0  0  0  0  0  0  0  0
    3.4644    1.6958    1.2876 O   0  0  0  0  0  0  0  0  0  0  0  0
    2.0915    1.1546   -1.1786 O   0  0  0  0  0  0  0  0  0  0  0  0
   -0.6816    1.5467    1.1837 O   0  0  0  0  0  0  0  0  0  0  0  0
   -0.0838    1.1318   -2.4072 O   0  0  0  0  0  0  0  0  0  0  0  0
   -2.8569    1.5239   -0.0449 O   0  0  0  0  0  0  0  0  0  0  0  0
   -6.3281    3.9063   -1.7003 S   0  5  0  0  0  0  0  0  0  0  0  0
   -5.5552    2.2670   -6.0571 H   0  0  0  0  0  0  0  0  0  0  0  0
   -4.5255    3.7661   -6.0589 H   0  0  0  0  0  0  0  0  0  0  0  0
   -6.0076    3.6799   -6.9858 H   0  0  0  0  0  0  0  0  0  0  0  0
   -2.5472    1.3070   -3.4455 H   0  0  0  0  0  0  0  0  0  0  0  0
   -2.1732   -0.0368   -1.2269 H   0  0  0  0  0  0  0  0  0  0  0  0
   -0.7676    2.6926   -1.2254 H   0  0  0  0  0  0  0  0  0  0  0  0
    0.0022   -0.0141    0.0019 H   0  0  0  0  0  0  0  0  0  0  0  0
    1.4078    2.7153    0.0033 H   0  0  0  0  0  0  0  0  0  0  0  0
    1.5997    1.3875    2.1396 H   0  0  0  0  0  0  0  0  0  0  0  0
    2.2568    0.0138    1.1868 H   0  0  0  0  0  0  0  0  0  0  0  0
    3.3814    2.6812    1.3336 H   0  0  0  0  0  0  0  0  0  0  0  0
    1.6135    1.4824   -1.9812 H   0  0  0  0  0  0  0  0  0  0  0  0
   -1.6105    1.2043    1.1917 H   0  0  0  0  0  0  0  0  0  0  0  0
   -0.5618    1.4595   -3.2099 H   0  0  0  0  0  0  0  0  0  0  0  0
   -3.7858    1.1815   -0.0368 H   0  0  0  0  0  0  0  0  0  0  0  0
  1  2  1  0  0  0  0
  2  3  1  0  0  0  0
  3  4  2  0  0  0  0
  3 17  1  0  0  0  0
  4  5  1  0  0  0  0
  5  6  2  0  0  0  0
  6  7  1  0  0  0  0
  7  8  1  0  0  0  0
  7 16  1  0  0  0  0
  8  9  1  0  0  0  0
  8 15  1  0  0  0  0
  9 10  1  0  0  0  0
  9 14  1  0  0  0  0
 10 11  1  0  0  0  0
 10 13  1  0  0  0  0
 11 12  1  0  0  0  0
  1 18  1  0  0  0  0
  1 19  1  0  0  0  0
  1 20  1  0  0  0  0
  6 21  1  0  0  0  0
  7 22  1  0  0  0  0
  8 23  1  0  0  0  0
  9 24  1  0  0  0  0
 10 25  1  0  0  0  0
 11 26  1  0  0  0  0
 11 27  1  0  0  0  0
 12 28  1  0  0  0  0
 13 29  1  0  0  0  0
 14 30  1  0  0  0  0
 15 31  1  0  0  0  0
 16 32  1  0  0  0  0
M  CHG  1  17  -1
M  END
> <Name>
ZINC06425106

> <reference>
BDB4986

> <quality>
0.721

> <status>
decoy

$$$$
ZINC15775177
  SciTegic06141217593D

 38 39  0  0  1  0            999 V2000
   -5.5952    1.6941   10.6846 C   0  0  0  0  0  0  0  0  0  0  0  0
   -5.4633    2.1644    9.2590 C   0  0  0  0  0  0  0  0  0  0  0  0
   -5.6671    3.4969    8.9505 C   0  0  0  0  0  0  0  0  0  0  0  0
   -5.5466    3.9314    7.6452 C   0  0  0  0  0  0  0  0  0  0  0  0
   -5.2207    3.0280    6.6414 C   0  0  0  0  0  0  0  0  0  0  0  0
   -5.0227    1.6889    6.9539 C   0  0  0  0  0  0  0  0  0  0  0  0
   -5.1392    1.2623    8.2621 C   0  0  0  0  0  0  0  0  0  0  0  0
   -5.0979    3.4642    5.3195 N   0  0  0  0  0  0  0  0  0  0  0  0
   -4.3074    2.7558    4.4256 C   0  0  0  0  0  0  0  0  0  0  0  0
   -3.5101    1.7155    4.6300 N   0  0  0  0  0  0  0  0  0  0  0  0
   -2.8578    1.1832    3.6909 N   0  0  0  0  0  0  0  0  0  0  0  0
   -2.9174    1.6306    2.4529 C   0  0  0  0  0  0  0  0  0  0  0  0
   -4.0700    2.9842    2.6656 S   0  0  0  0  0  0  0  0  0  0  0  0
   -2.2197    1.1389    1.2109 C   0  0  1  0  0  0  0  0  0  0  0  0
   -0.7524    1.5710    1.2454 C   0  0  1  0  0  0  0  0  0  0  0  0
   -0.0439    1.0719   -0.0155 C   0  0  2  0  0  0  0  0  0  0  0  0
    1.3886    1.6085   -0.0419 C   0  0  0  0  0  0  0  0  0  0  0  0
    2.0861    1.0496   -1.1569 O   0  0  0  0  0  0  0  0  0  0  0  0
   -0.7468    1.5333   -1.1710 O   0  0  0  0  0  0  0  0  0  0  0  0
   -0.6769    2.9969    1.3014 O   0  0  0  0  0  0  0  0  0  0  0  0
   -2.2952   -0.2870    1.1550 O   0  0  0  0  0  0  0  0  0  0  0  0
   -4.6310    1.2200   10.9201 H   0  0  0  0  0  0  0  0  0  0  0  0
   -6.3515    0.8959   10.6540 H   0  0  0  0  0  0  0  0  0  0  0  0
   -5.8555    2.4933   11.3942 H   0  0  0  0  0  0  0  0  0  0  0  0
   -5.9255    4.2116    9.7458 H   0  0  0  0  0  0  0  0  0  0  0  0
   -5.7085    4.9916    7.4006 H   0  0  0  0  0  0  0  0  0  0  0  0
   -4.7734    0.9693    6.1602 H   0  0  0  0  0  0  0  0  0  0  0  0
   -4.9740    0.2038    8.5115 H   0  0  0  0  0  0  0  0  0  0  0  0
   -5.5941    4.3115    5.0086 H   0  0  0  0  0  0  0  0  0  0  0  0
   -2.7072    1.5669    0.3226 H   0  0  0  0  0  0  0  0  0  0  0  0
   -0.2649    1.1428    2.1337 H   0  0  0  0  0  0  0  0  0  0  0  0
   -0.0234   -0.0279   -0.0136 H   0  0  0  0  0  0  0  0  0  0  0  0
    1.3681    2.7044   -0.1347 H   0  0  0  0  0  0  0  0  0  0  0  0
    1.9033    1.3289    0.8892 H   0  0  0  0  0  0  0  0  0  0  0  0
    1.6247    1.3012   -1.9959 H   0  0  0  0  0  0  0  0  0  0  0  0
   -0.7655    2.5231   -1.1737 H   0  0  0  0  0  0  0  0  0  0  0  0
   -1.1348    3.3208    2.1172 H   0  0  0  0  0  0  0  0  0  0  0  0
   -3.2444   -0.5675    1.1325 H   0  0  0  0  0  0  0  0  0  0  0  0
  1  2  1  0  0  0  0
  2  7  2  0  0  0  0
  2  3  1  0  0  0  0
  3  4  2  0  0  0  0
  4  5  1  0  0  0  0
  5  6  2  0  0  0  0
  5  8  1  0  0  0  0
  6  7  1  0  0  0  0
  8  9  1  0  0  0  0
  9 13  1  0  0  0  0
  9 10  2  0  0  0  0
 10 11  1  0  0  0  0
 11 12  2  0  0  0  0
 12 13  1  0  0  0  0
 12 14  1  0  0  0  0
 14 15  1  0  0  0  0
 14 21  1  0  0  0  0
 15 16  1  0  0  0  0
 15 20  1  0  0  0  0
 16 17  1  0  0  0  0
 16 19  1  0  0  0  0
 17 18  1  0  0  0  0
  1 22  1  0  0  0  0
  1 23  1  0  0  0  0
  1 24  1  0  0  0  0
  3 25  1  0  0  0  0
  4 26  1  0  0  0  0
  6 27  1  0  0  0  0
  7 28  1  0  0  0  0
  8 29  1  0  0  0  0
 14 30  1  0  0  0  0
 15 31  1  0  0  0  0
 16 32  1  0  0  0  0
 17 33  1  0  0  0  0
 17 34  1  0  0  0  0
 18 35  1  0  0  0  0
 19 36  1  0  0  0  0
 20 37  1  0  0  0  0
 21 38  1  0  0  0  0
M  END
> <Name>
ZINC15775177

> <reference>
BDB5219

> <quality>
0.676

> <status>
decoy

$$$$
ZINC19844186
  SciTegic06141217593D

 42 43  0  0  0  0            999 V2000
   -0.0127    1.0858    0.0080 C   0  0  0  0  0  0  0  0  0  0  0  0
   -0.6816    1.5467    1.1837 O   0  0  0  0  0  0  0  0  0  0  0  0
   -0.1488    1.1821    2.3796 C   0  0  0  0  0  0  0  0  0  0  0  0
    0.9917    0.3918    2.4197 C   0  0  0  0  0  0  0  0  0  0  0  0
    1.5380    0.0251    3.6348 C   0  0  0  0  0  0  0  0  0  0  0  0
    0.9447    0.4340    4.8135 C   0  0  0  0  0  0  0  0  0  0  0  0
   -0.2002    1.2203    4.7796 C   0  0  0  0  0  0  0  0  0  0  0  0
   -0.7470    1.5944    3.5596 C   0  0  0  0  0  0  0  0  0  0  0  0
   -0.8004    1.6335    5.9711 N   0  0  0  0  0  0  0  0  0  0  0  0
   -0.9293    3.0961    6.0161 C   0  0  0  0  0  0  0  0  0  0  0  0
   -1.7501    3.4956    7.2469 C   0  0  0  0  0  0  0  0  0  0  0  0
   -1.1339    2.8887    8.4365 N   0  0  0  0  0  0  0  0  0  0  0  0
   -0.8469    1.4464    8.4124 C   0  0  0  0  0  0  0  0  0  0  0  0
   -0.0616    1.1276    7.1357 C   0  0  0  0  0  0  0  0  0  0  0  0
   -0.7722    3.8052    9.7676 S   0  0  0  0  0  0  0  0  0  0  0  0
   -1.6823    4.8952    9.7154 O   0  0  0  0  0  0  0  0  0  0  0  0
   -0.7984    2.8910   10.8552 O   0  0  0  0  0  0  0  0  0  0  0  0
    0.9211    4.3908    9.4843 C   0  0  0  0  0  0  0  0  0  0  0  0
    1.3650    5.2577   10.6642 C   0  0  0  0  0  0  0  0  0  0  0  0
    2.7363    5.7319   10.4348 N   0  3  0  0  0  0  0  0  0  0  0  0
    0.0146   -0.0116    0.0778 H   0  0  0  0  0  0  0  0  0  0  0  0
    1.0216    1.4541    0.0761 H   0  0  0  0  0  0  0  0  0  0  0  0
   -0.5018    1.4207   -0.9186 H   0  0  0  0  0  0  0  0  0  0  0  0
    1.4612    0.0570    1.4830 H   0  0  0  0  0  0  0  0  0  0  0  0
    2.4471   -0.5936    3.6636 H   0  0  0  0  0  0  0  0  0  0  0  0
    1.3790    0.1368    5.7794 H   0  0  0  0  0  0  0  0  0  0  0  0
   -1.6534    2.2169    3.5297 H   0  0  0  0  0  0  0  0  0  0  0  0
   -1.4376    3.4490    5.1067 H   0  0  0  0  0  0  0  0  0  0  0  0
    0.0703    3.5510    6.0788 H   0  0  0  0  0  0  0  0  0  0  0  0
   -1.7510    4.5907    7.3502 H   0  0  0  0  0  0  0  0  0  0  0  0
   -2.7816    3.1290    7.1386 H   0  0  0  0  0  0  0  0  0  0  0  0
   -0.2453    1.1748    9.2923 H   0  0  0  0  0  0  0  0  0  0  0  0
   -1.7904    0.8810    8.4150 H   0  0  0  0  0  0  0  0  0  0  0  0
    0.0649    0.0386    7.0456 H   0  0  0  0  0  0  0  0  0  0  0  0
    0.9259    1.6099    7.1831 H   0  0  0  0  0  0  0  0  0  0  0  0
    1.5966    3.5278    9.3894 H   0  0  0  0  0  0  0  0  0  0  0  0
    0.9545    4.9861    8.5599 H   0  0  0  0  0  0  0  0  0  0  0  0
    1.3332    4.6637   11.5895 H   0  0  0  0  0  0  0  0  0  0  0  0
    0.6901    6.1211   10.7593 H   0  0  0  0  0  0  0  0  0  0  0  0
    2.7676    6.2893    9.5692 H   0  0  0  0  0  0  0  0  0  0  0  0
    3.3695    4.9244   10.3456 H   0  0  0  0  0  0  0  0  0  0  0  0
    3.0358    6.3156   11.2288 H   0  0  0  0  0  0  0  0  0  0  0  0
  1  2  1  0  0  0  0
  2  3  1  0  0  0  0
  3  8  2  0  0  0  0
  3  4  1  0  0  0  0
  4  5  2  0  0  0  0
  5  6  1  0  0  0  0
  6  7  2  0  0  0  0
  7  8  1  0  0  0  0
  7  9  1  0  0  0  0
  9 14  1  0  0  0  0
  9 10  1  0  0  0  0
 10 11  1  0  0  0  0
 11 12  1  0  0  0  0
 12 13  1  0  0  0  0
 12 15  1  0  0  0  0
 13 14  1  0  0  0  0
 15 16  2  0  0  0  0
 15 17  2  0  0  0  0
 15 18  1  0  0  0  0
 18 19  1  0  0  0  0
 19 20  1  0  0  0  0
  1 21  1  0  0  0  0
  1 22  1  0  0  0  0
  1 23  1  0  0  0  0
  4 24  1  0  0  0  0
  5 25  1  0  0  0  0
  6 26  1  0  0  0  0
  8 27  1  0  0  0  0
 10 28  1  0  0  0  0
 10 29  1  0  0  0  0
 11 30  1  0  0  0  0
 11 31  1  0  0  0  0
 13 32  1  0  0  0  0
 13 33  1  0  0  0  0
 14 34  1  0  0  0  0
 14 35  1  0  0  0  0
 18 36  1  0  0  0  0
 18 37  1  0  0  0  0
 19 38  1  0  0  0  0
 19 39  1  0  0  0  0
 20 40  1  0  0  0  0
 20 41  1  0  0  0  0
 20 42  1  0  0  0  0
M  CHG  1  20   1
M  END
> <Name>
ZINC19844186

> <reference>
BDB5233

> <quality>
0.730

> <status>
decoy

$$$$
ZINC03121134
  SciTegic06141217593D

 30 30  0  0  1  0            999 V2000
   10.5080    0.6491    2.5250 C   0  0  0  0  0  0  0  0  0  0  0  0
    9.4421    0.9284    1.5795 O   0  0  0  0  0  0  0  0  0  0  0  0
    8.3031    0.2237    1.7166 C   0  0  0  0  0  0  0  0  0  0  0  0
    8.2026   -0.6022    2.6022 O   0  0  0  0  0  0  0  0  0  0  0  0
    7.2745    0.4343    0.8716 N   0  5  0  0  0  0  0  0  0  0  0  0
    5.8871   -0.4242    1.0387 P   0  0  1  0  0  0  0  0  0  0  0  0
    5.3082   -0.1705    2.3769 O   0  0  0  0  0  0  0  0  0  0  0  0
    4.7891    0.0480   -0.1462 N   0  0  0  0  0  0  0  0  0  0  0  0
    3.6196   -0.6492   -0.0357 N   0  0  0  0  0  0  0  0  0  0  0  0
    2.4091    0.0345    0.0990 C   0  0  0  0  0  0  0  0  0  0  0  0
    2.4018    1.4168    0.2362 C   0  0  0  0  0  0  0  0  0  0  0  0
    1.2031    2.0897    0.3687 C   0  0  0  0  0  0  0  0  0  0  0  0
    0.0110    1.3889    0.3650 C   0  0  0  0  0  0  0  0  0  0  0  0
    0.0146    0.0128    0.2286 C   0  0  0  0  0  0  0  0  0  0  0  0
    1.2098   -0.6663    0.0957 C   0  0  0  0  0  0  0  0  0  0  0  0
    6.2053   -1.9944    0.8804 O   0  0  0  0  0  0  0  0  0  0  0  0
    7.3142   -2.6319    1.5175 C   0  0  0  0  0  0  0  0  0  0  0  0
   10.7291   -0.4246    2.4344 H   0  0  0  0  0  0  0  0  0  0  0  0
   10.0878    0.8244    3.5263 H   0  0  0  0  0  0  0  0  0  0  0  0
   11.4031    1.2634    2.3480 H   0  0  0  0  0  0  0  0  0  0  0  0
    4.9743    0.7672   -0.8599 H   0  0  0  0  0  0  0  0  0  0  0  0
    3.6304   -1.6790   -0.0517 H   0  0  0  0  0  0  0  0  0  0  0  0
    3.3497    1.9748    0.2393 H   0  0  0  0  0  0  0  0  0  0  0  0
    1.1966    3.1843    0.4773 H   0  0  0  0  0  0  0  0  0  0  0  0
   -0.9424    1.9273    0.4708 H   0  0  0  0  0  0  0  0  0  0  0  0
   -0.9355   -0.5415    0.2259 H   0  0  0  0  0  0  0  0  0  0  0  0
    1.2120   -1.7609   -0.0126 H   0  0  0  0  0  0  0  0  0  0  0  0
    7.1726   -2.3773    2.5782 H   0  0  0  0  0  0  0  0  0  0  0  0
    8.1734   -2.0336    1.1802 H   0  0  0  0  0  0  0  0  0  0  0  0
    7.4325   -3.7105    1.3369 H   0  0  0  0  0  0  0  0  0  0  0  0
  1  2  1  0  0  0  0
  2  3  1  0  0  0  0
  3  4  2  0  0  0  0
  3  5  1  0  0  0  0
  5  6  1  0  0  0  0
  6  7  2  0  0  0  0
  6  8  1  0  0  0  0
  6 16  1  0  0  0  0
  8  9  1  0  0  0  0
  9 10  1  0  0  0  0
 10 15  2  0  0  0  0
 10 11  1  0  0  0  0
 11 12  2  0  0  0  0
 12 13  1  0  0  0  0
 13 14  2  0  0  0  0
 14 15  1  0  0  0  0
 16 17  1  0  0  0  0
  1 18  1  0  0  0  0
  1 19  1  0  0  0  0
  1 20  1  0  0  0  0
  8 21  1  0  0  0  0
  9 22  1  0  0  0  0
 11 23  1  0  0  0  0
 12 24  1  0  0  0  0
 13 25  1  0  0  0  0
 14 26  1  0  0  0  0
 15 27  1  0  0  0  0
 17 28  1  0  0  0  0
 17 29  1  0  0  0  0
 17 30  1  0  0  0  0
M  CHG  1   5  -1
M  END
> <Name>
ZINC03121134

> <reference>
BDB5015

> <quality>
0.725

> <status>
decoy

$$$$
ZINC15771728
  SciTegic06141217593D

 52 52  0  0  1  0            999 V2000
    6.0686   16.2591   -1.4722 C   0  0  0  0  0  0  0  0  0  0  0  0
    5.9615   15.7003   -0.1614 O   0  0  0  0  0  0  0  0  0  0  0  0
    6.0407   14.3465   -0.0590 C   0  0  0  0  0  0  0  0  0  0  0  0
    6.2171   13.5733   -1.1952 C   0  0  0  0  0  0  0  0  0  0  0  0
    6.3026   12.1977   -1.0888 C   0  0  0  0  0  0  0  0  0  0  0  0
    6.2011   11.5894    0.1486 C   0  0  0  0  0  0  0  0  0  0  0  0
    6.0251   12.3549    1.2862 C   0  0  0  0  0  0  0  0  0  0  0  0
    5.9443   13.7346    1.1871 C   0  0  0  0  0  0  0  0  0  0  0  0
    5.7707   14.4891    2.3052 O   0  0  0  0  0  0  0  0  0  0  0  0
    5.6797   13.7930    3.5499 C   0  0  0  0  0  0  0  0  0  0  0  0
    6.2888   10.0889    0.2582 C   0  0  0  0  0  0  0  0  0  0  0  0
    4.8877    9.4861    0.1379 C   0  0  0  0  0  0  0  0  0  0  0  0
    3.6436    7.4089    0.1334 C   0  0  0  0  0  0  0  0  0  0  0  0
    3.7731    5.8888    0.2491 C   0  0  1  0  0  0  0  0  0  0  0  0
    2.3882    5.2487    0.1332 C   0  0  2  0  0  0  0  0  0  0  0  0
    2.5297    3.7253    0.1236 C   0  0  2  0  0  0  0  0  0  0  0  0
    1.1449    3.0852    0.0077 C   0  0  2  0  0  0  0  0  0  0  0  0
    1.2864    1.5618   -0.0018 C   0  0  0  0  0  0  0  0  0  0  0  0
   -0.0110    0.9628    0.0073 O   0  0  0  0  0  0  0  0  0  0  0  0
    0.5223    3.5133   -1.2052 O   0  0  0  0  0  0  0  0  0  0  0  0
    3.1523    3.2971    1.3365 O   0  0  0  0  0  0  0  0  0  0  0  0
    1.7656    5.6768   -1.0797 O   0  0  0  0  0  0  0  0  0  0  0  0
    4.6126    5.4010   -0.7994 O   0  0  0  0  0  0  0  0  0  0  0  0
    4.9823    8.0179    0.2461 N   0  3  0  0  0  0  0  0  0  0  0  0
    5.2689   15.7987   -2.0709 H   0  0  0  0  0  0  0  0  0  0  0  0
    7.0325   15.9166   -1.8766 H   0  0  0  0  0  0  0  0  0  0  0  0
    5.9955   17.3567   -1.4741 H   0  0  0  0  0  0  0  0  0  0  0  0
    6.2891   14.0541   -2.1819 H   0  0  0  0  0  0  0  0  0  0  0  0
    6.4517   11.5857   -1.9906 H   0  0  0  0  0  0  0  0  0  0  0  0
    5.9492   11.8687    2.2700 H   0  0  0  0  0  0  0  0  0  0  0  0
    6.6049   13.2055    3.6440 H   0  0  0  0  0  0  0  0  0  0  0  0
    4.8412   13.0881    3.4494 H   0  0  0  0  0  0  0  0  0  0  0  0
    5.5402   14.4691    4.4063 H   0  0  0  0  0  0  0  0  0  0  0  0
    6.9258    9.6987   -0.5493 H   0  0  0  0  0  0  0  0  0  0  0  0
    6.7222    9.8159    1.2317 H   0  0  0  0  0  0  0  0  0  0  0  0
    4.2502    9.8734    0.9464 H   0  0  0  0  0  0  0  0  0  0  0  0
    4.4532    9.7549   -0.8362 H   0  0  0  0  0  0  0  0  0  0  0  0
    3.2037    7.6672   -0.8411 H   0  0  0  0  0  0  0  0  0  0  0  0
    2.9996    7.7865    0.9413 H   0  0  0  0  0  0  0  0  0  0  0  0
    4.2156    5.6316    1.2227 H   0  0  0  0  0  0  0  0  0  0  0  0
    1.7702    5.5542    0.9903 H   0  0  0  0  0  0  0  0  0  0  0  0
    3.1478    3.4199   -0.7336 H   0  0  0  0  0  0  0  0  0  0  0  0
    0.5268    3.3907    0.8648 H   0  0  0  0  0  0  0  0  0  0  0  0
    1.8449    1.2388    0.8891 H   0  0  0  0  0  0  0  0  0  0  0  0
    1.8276    1.2493   -0.9070 H   0  0  0  0  0  0  0  0  0  0  0  0
   -0.5145    1.2518   -0.7946 H   0  0  0  0  0  0  0  0  0  0  0  0
    1.0778    3.2385   -1.9772 H   0  0  0  0  0  0  0  0  0  0  0  0
    2.5965    3.5714    2.1085 H   0  0  0  0  0  0  0  0  0  0  0  0
    2.3211    5.4020   -1.8517 H   0  0  0  0  0  0  0  0  0  0  0  0
    5.5090    5.8145   -0.7250 H   0  0  0  0  0  0  0  0  0  0  0  0
    5.5849    7.6581   -0.5077 H   0  0  0  0  0  0  0  0  0  0  0  0
    5.3949    7.7676    1.1561 H   0  0  0  0  0  0  0  0  0  0  0  0
  1  2  1  0  0  0  0
  2  3  1  0  0  0  0
  3  8  2  0  0  0  0
  3  4  1  0  0  0  0
  4  5  2  0  0  0  0
  5  6  1  0  0  0  0
  6  7  2  0  0  0  0
  6 11  1  0  0  0  0
  7  8  1  0  0  0  0
  8  9  1  0  0  0  0
  9 10  1  0  0  0  0
 11 12  1  0  0  0  0
 12 24  1  0  0  0  0
 13 14  1  0  0  0  0
 13 24  1  0  0  0  0
 14 15  1  0  0  0  0
 14 23  1  0  0  0  0
 15 16  1  0  0  0  0
 15 22  1  0  0  0  0
 16 17  1  0  0  0  0
 16 21  1  0  0  0  0
 17 18  1  0  0  0  0
 17 20  1  0  0  0  0
 18 19  1  0  0  0  0
  1 25  1  0  0  0  0
  1 26  1  0  0  0  0
  1 27  1  0  0  0  0
  4 28  1  0  0  0  0
  5 29  1  0  0  0  0
  7 30  1  0  0  0  0
 10 31  1  0  0  0  0
 10 32  1  0  0  0  0
 10 33  1  0  0  0  0
 11 34  1  0  0  0  0
 11 35  1  0  0  0  0
 12 36  1  0  0  0  0
 12 37  1  0  0  0  0
 13 38  1  0  0  0  0
 13 39  1  0  0  0  0
 14 40  1  0  0  0  0
 15 41  1  0  0  0  0
 16 42  1  0  0  0  0
 17 43  1  0  0  0  0
 18 44  1  0  0  0  0
 18 45  1  0  0  0  0
 19 46  1  0  0  0  0
 20 47  1  0  0  0  0
 21 48  1  0  0  0  0
 22 49  1  0  0  0  0
 23 50  1  0  0  0  0
 24 51  1  0  0  0  0
 24 52  1  0  0  0  0
M  CHG  1  24   1
M  END
> <Name>
ZINC15771728

> <reference>
BDB4997

> <quality>
0.657

> <status>
decoy

$$$$
ZINC02267985
  SciTegic06141217593D

 48 49  0  0  0  0            999 V2000
   -1.9018   -0.4215    4.1750 C   0  0  0  0  0  0  0  0  0  0  0  0
   -1.8396    1.1043    4.0800 C   0  0  2  0  0  0  0  0  0  0  0  0
   -2.5952    1.5756    2.8313 C   0  0  1  0  0  0  0  0  0  0  0  0
   -2.5019    3.1019    2.7433 C   0  0  0  0  0  0  0  0  0  0  0  0
   -0.3403    3.0821    3.8436 C   0  0  0  0  0  0  0  0  0  0  0  0
   -0.3787    1.5553    3.9591 C   0  0  2  0  0  0  0  0  0  0  0  0
    0.2255    0.9412    2.6927 C   0  0  0  0  0  0  0  0  0  0  0  0
   -1.9364    0.9605    1.5929 C   0  0  0  0  0  0  0  0  0  0  0  0
    0.0942    0.9277    0.2755 C   0  0  0  0  0  0  0  0  0  0  0  0
   -0.7789    1.3256   -0.9161 C   0  0  0  0  0  0  0  0  0  0  0  0
   -0.8729    2.7500   -0.9832 O   0  0  0  0  0  0  0  0  0  0  0  0
    0.3897    1.1284    5.1310 N   0  0  0  0  0  0  0  0  0  0  0  0
    1.5746    1.3982    5.2137 O   0  0  0  0  0  0  0  0  0  0  0  0
   -0.1562    0.5036    6.0227 O   0  0  0  0  0  0  0  0  0  0  0  0
   -0.9681    4.9494    2.4367 C   0  0  0  0  0  0  0  0  0  0  0  0
    0.4180    5.2634    1.8702 C   0  0  0  0  0  0  0  0  0  0  0  0
    0.5543    4.6593    0.5824 O   0  0  0  0  0  0  0  0  0  0  0  0
   -4.0010    1.1689    2.8973 N   0  0  0  0  0  0  0  0  0  0  0  0
   -4.8803    2.0115    2.8774 O   0  0  0  0  0  0  0  0  0  0  0  0
   -4.2906   -0.0118    2.9721 O   0  0  0  0  0  0  0  0  0  0  0  0
   -2.4691    1.7253    5.3286 C   0  0  0  0  0  0  0  0  0  0  0  0
   -1.0792    3.4890    2.6286 N   0  3  0  0  0  0  0  0  0  0  0  0
   -0.5332    1.4223    1.5180 N   0  0  0  0  0  0  0  0  0  0  0  0
   -1.3408   -0.7562    5.0600 H   0  0  0  0  0  0  0  0  0  0  0  0
   -1.4559   -0.8629    3.2715 H   0  0  0  0  0  0  0  0  0  0  0  0
   -2.9500   -0.7435    4.2617 H   0  0  0  0  0  0  0  0  0  0  0  0
   -3.0512    3.4538    1.8577 H   0  0  0  0  0  0  0  0  0  0  0  0
   -2.9329    3.5509    3.6503 H   0  0  0  0  0  0  0  0  0  0  0  0
    0.7037    3.4205    3.7694 H   0  0  0  0  0  0  0  0  0  0  0  0
   -0.8140    3.5303    4.7294 H   0  0  0  0  0  0  0  0  0  0  0  0
    1.2780    1.2474    2.6012 H   0  0  0  0  0  0  0  0  0  0  0  0
    0.1613   -0.1556    2.7475 H   0  0  0  0  0  0  0  0  0  0  0  0
   -2.4772    1.2801    0.6899 H   0  0  0  0  0  0  0  0  0  0  0  0
   -1.9588   -0.1365    1.6705 H   0  0  0  0  0  0  0  0  0  0  0  0
    1.0935    1.3741    0.1659 H   0  0  0  0  0  0  0  0  0  0  0  0
    0.1807   -0.1681    0.3186 H   0  0  0  0  0  0  0  0  0  0  0  0
   -1.7849    0.8978   -0.7940 H   0  0  0  0  0  0  0  0  0  0  0  0
   -0.3285    0.9442   -1.8444 H   0  0  0  0  0  0  0  0  0  0  0  0
    0.0318    3.1365   -1.0942 H   0  0  0  0  0  0  0  0  0  0  0  0
   -1.0955    5.4587    3.4033 H   0  0  0  0  0  0  0  0  0  0  0  0
   -1.7412    5.2879    1.7313 H   0  0  0  0  0  0  0  0  0  0  0  0
    0.5384    6.3529    1.7781 H   0  0  0  0  0  0  0  0  0  0  0  0
    1.1900    4.8649    2.5449 H   0  0  0  0  0  0  0  0  0  0  0  0
   -0.1392    5.0178   -0.0264 H   0  0  0  0  0  0  0  0  0  0  0  0
   -1.9187    1.3912    6.2204 H   0  0  0  0  0  0  0  0  0  0  0  0
   -3.5188    1.4057    5.4065 H   0  0  0  0  0  0  0  0  0  0  0  0
   -2.4235    2.8221    5.2586 H   0  0  0  0  0  0  0  0  0  0  0  0
   -0.6690    3.0104    1.8140 H   0  0  0  0  0  0  0  0  0  0  0  0
  1  2  1  0  0  0  0
  2  6  1  0  0  0  0
  2  3  1  0  0  0  0
  2 21  1  0  0  0  0
  3  8  1  0  0  0  0
  3  4  1  0  0  0  0
  3 18  1  0  0  0  0
  4 22  1  0  0  0  0
  5  6  1  0  0  0  0
  5 22  1  0  0  0  0
  6  7  1  0  0  0  0
  6 12  1  0  0  0  0
  7 23  1  0  0  0  0
  8 23  1  0  0  0  0
  9 10  1  0  0  0  0
  9 23  1  0  0  0  0
 10 11  1  0  0  0  0
 12 13  2  0  0  0  0
 12 14  2  0  0  0  0
 15 16  1  0  0  0  0
 15 22  1  0  0  0  0
 16 17  1  0  0  0  0
 18 19  2  0  0  0  0
 18 20  2  0  0  0  0
  1 24  1  0  0  0  0
  1 25  1  0  0  0  0
  1 26  1  0  0  0  0
  4 27  1  0  0  0  0
  4 28  1  0  0  0  0
  5 29  1  0  0  0  0
  5 30  1  0  0  0  0
  7 31  1  0  0  0  0
  7 32  1  0  0  0  0
  8 33  1  0  0  0  0
  8 34  1  0  0  0  0
  9 35  1  0  0  0  0
  9 36  1  0  0  0  0
 10 37  1  0  0  0  0
 10 38  1  0  0  0  0
 11 39  1  0  0  0  0
 15 40  1  0  0  0  0
 15 41  1  0  0  0  0
 16 42  1  0  0  0  0
 16 43  1  0  0  0  0
 17 44  1  0  0  0  0
 21 45  1  0  0  0  0
 21 46  1  0  0  0  0
 21 47  1  0  0  0  0
 22 48  1  0  0  0  0
M  CHG  1  22   1
M  END
> <Name>
ZINC02267985

> <reference>
BDB4934

> <quality>
0.724

> <status>
decoy

$$$$
ZINC26997465
  SciTegic06141217593D

 47 48  0  0  1  0            999 V2000
   -0.0048   -0.5063   -1.4432 C   0  0  0  0  0  0  0  0  0  0  0  0
    0.0021   -0.0041    0.0020 C   0  0  2  0  0  0  0  0  0  0  0  0
   -1.2146   -0.5269    0.7213 C   0  0  0  0  0  0  0  0  0  0  0  0
   -2.0641    0.2435    1.1144 O   0  0  0  0  0  0  0  0  0  0  0  0
   -1.3584   -1.8510    0.9275 N   0  0  0  0  0  0  0  0  0  0  0  0
   -2.4465   -2.3186    1.5708 C   0  0  0  0  0  0  0  0  0  0  0  0
   -3.2981   -1.5462    1.9649 O   0  0  0  0  0  0  0  0  0  0  0  0
   -2.5902   -3.6427    1.7770 N   0  0  0  0  0  0  0  0  0  0  0  0
   -3.7730   -4.1510    2.4762 C   0  0  0  0  0  0  0  0  0  0  0  0
   -3.6913   -5.6525    2.5756 C   0  0  0  0  0  0  0  0  0  0  0  0
   -3.7793   -6.2374    3.7444 C   0  0  0  0  0  0  0  0  0  0  0  0
   -0.0176    1.4478    0.0100 O   0  0  0  0  0  0  0  0  0  0  0  0
    1.1742    2.0756    0.0020 C   0  0  0  0  0  0  0  0  0  0  0  0
    2.2018    1.4280   -0.0113 O   0  0  0  0  0  0  0  0  0  0  0  0
    1.2315    3.5518    0.0094 C   0  0  0  0  0  0  0  0  0  0  0  0
    0.0521    4.2994    0.0188 C   0  0  0  0  0  0  0  0  0  0  0  0
    0.1129    5.6773    0.0314 C   0  0  0  0  0  0  0  0  0  0  0  0
    1.3389    6.3190    0.0227 C   0  0  0  0  0  0  0  0  0  0  0  0
    2.5112    5.5845    0.0076 C   0  0  0  0  0  0  0  0  0  0  0  0
    2.4650    4.2056    0.0011 C   0  0  0  0  0  0  0  0  0  0  0  0
    3.8417    6.2922   -0.0013 C   0  0  0  0  0  0  0  0  0  0  0  0
    4.2599    6.5284   -1.3853 N   0  0  0  0  0  0  0  0  0  0  0  0
    5.0040    5.6685   -2.1086 C   0  0  0  0  0  0  0  0  0  0  0  0
    5.4370    4.5943   -1.7504 O   0  0  0  0  0  0  0  0  0  0  0  0
    5.1851    6.3229   -3.4639 C   0  0  0  0  0  0  0  0  0  0  0  0
    4.4601    7.5985   -3.3321 N   0  5  0  0  0  0  0  0  0  0  0  0
    3.9552    7.6270   -2.0855 C   0  0  0  0  0  0  0  0  0  0  0  0
    3.2959    8.5479   -1.6445 O   0  0  0  0  0  0  0  0  0  0  0  0
   -0.9123   -0.1494   -1.9522 H   0  0  0  0  0  0  0  0  0  0  0  0
    0.0103   -1.6062   -1.4503 H   0  0  0  0  0  0  0  0  0  0  0  0
    0.8831   -0.1250   -1.9688 H   0  0  0  0  0  0  0  0  0  0  0  0
    0.9101   -0.3613    0.5099 H   0  0  0  0  0  0  0  0  0  0  0  0
   -0.6367   -2.5056    0.5934 H   0  0  0  0  0  0  0  0  0  0  0  0
   -1.8685   -4.2972    1.4430 H   0  0  0  0  0  0  0  0  0  0  0  0
   -4.6788   -3.8699    1.9189 H   0  0  0  0  0  0  0  0  0  0  0  0
   -3.8155   -3.7190    3.4869 H   0  0  0  0  0  0  0  0  0  0  0  0
   -3.5578   -6.2574    1.6666 H   0  0  0  0  0  0  0  0  0  0  0  0
   -3.9128   -5.6325    4.6534 H   0  0  0  0  0  0  0  0  0  0  0  0
   -3.7197   -7.3334    3.8169 H   0  0  0  0  0  0  0  0  0  0  0  0
   -0.9232    3.7906    0.0162 H   0  0  0  0  0  0  0  0  0  0  0  0
   -0.8153    6.2674    0.0484 H   0  0  0  0  0  0  0  0  0  0  0  0
    1.3816    7.4182    0.0278 H   0  0  0  0  0  0  0  0  0  0  0  0
    3.3978    3.6228   -0.0106 H   0  0  0  0  0  0  0  0  0  0  0  0
    4.5929    5.6696    0.5067 H   0  0  0  0  0  0  0  0  0  0  0  0
    3.7485    7.2550    0.5224 H   0  0  0  0  0  0  0  0  0  0  0  0
    6.2521    6.5098   -3.6554 H   0  0  0  0  0  0  0  0  0  0  0  0
    4.7264    5.7043   -4.2493 H   0  0  0  0  0  0  0  0  0  0  0  0
  1  2  1  0  0  0  0
  2  3  1  0  0  0  0
  2 12  1  0  0  0  0
  3  4  2  0  0  0  0
  3  5  1  0  0  0  0
  5  6  1  0  0  0  0
  6  7  2  0  0  0  0
  6  8  1  0  0  0  0
  8  9  1  0  0  0  0
  9 10  1  0  0  0  0
 10 11  2  0  0  0  0
 12 13  1  0  0  0  0
 13 14  2  0  0  0  0
 13 15  1  0  0  0  0
 15 20  2  0  0  0  0
 15 16  1  0  0  0  0
 16 17  2  0  0  0  0
 17 18  1  0  0  0  0
 18 19  2  0  0  0  0
 19 20  1  0  0  0  0
 19 21  1  0  0  0  0
 21 22  1  0  0  0  0
 22 27  1  0  0  0  0
 22 23  1  0  0  0  0
 23 24  2  0  0  0  0
 23 25  1  0  0  0  0
 25 26  1  0  0  0  0
 26 27  1  0  0  0  0
 27 28  2  0  0  0  0
  1 29  1  0  0  0  0
  1 30  1  0  0  0  0
  1 31  1  0  0  0  0
  2 32  1  0  0  0  0
  5 33  1  0  0  0  0
  8 34  1  0  0  0  0
  9 35  1  0  0  0  0
  9 36  1  0  0  0  0
 10 37  1  0  0  0  0
 11 38  1  0  0  0  0
 11 39  1  0  0  0  0
 16 40  1  0  0  0  0
 17 41  1  0  0  0  0
 18 42  1  0  0  0  0
 20 43  1  0  0  0  0
 21 44  1  0  0  0  0
 21 45  1  0  0  0  0
 25 46  1  0  0  0  0
 25 47  1  0  0  0  0
M  CHG  1  26  -1
M  END
> <Name>
ZINC26997465

> <reference>
BDB4945

> <quality>
0.707

> <status>
decoy

$$$$
ZINC16952887
  SciTegic06141217593D

 36 38  0  0  1  0            999 V2000
    0.9066   -1.5642    5.0099 C   0  0  0  0  0  0  0  0  0  0  0  0
    2.1160   -0.9914    4.2681 C   0  0  2  0  0  0  0  0  0  0  0  0
    2.7616    0.0347    5.0765 O   0  0  0  0  0  0  0  0  0  0  0  0
    2.1408    1.2053    4.6123 C   0  0  1  0  0  0  0  0  0  0  0  0
    2.7022    2.6004    4.6392 C   0  0  0  0  0  0  0  0  0  0  0  0
    2.2939    3.2080    3.3836 O   0  0  0  0  0  0  0  0  0  0  0  0
    1.6523    2.1961    2.5524 C   0  0  2  0  0  0  0  0  0  0  0  0
    2.2549    0.9094    3.0623 C   0  0  2  0  0  0  0  0  0  0  0  0
    1.6819   -0.3646    3.0263 O   0  0  0  0  0  0  0  0  0  0  0  0
    1.9926    2.4054    1.0993 C   0  0  0  0  0  0  0  0  0  0  0  0
    1.2544    1.9713    0.0007 C   0  0  0  0  0  0  0  0  0  0  0  0
    1.9902    2.4226   -1.1319 C   0  0  0  0  0  0  0  0  0  0  0  0
    3.0523    3.0499   -0.6731 N   0  0  0  0  0  0  0  0  0  0  0  0
    3.0705    3.0459    0.6097 N   0  5  0  0  0  0  0  0  0  0  0  0
    1.6300    2.2250   -2.5503 C   0  0  0  0  0  0  0  0  0  0  0  0
    0.6141    1.6239   -2.8414 O   0  0  0  0  0  0  0  0  0  0  0  0
    2.4273    2.7111   -3.5221 N   0  0  0  0  0  0  0  0  0  0  0  0
   -0.0145    1.2155    0.0087 C   0  0  0  0  0  0  0  0  0  0  0  0
    0.0021   -0.0041    0.0020 O   0  0  0  0  0  0  0  0  0  0  0  0
   -1.1752    1.8649    0.0178 N   0  0  0  0  0  0  0  0  0  0  0  0
   -2.1409    1.2897    0.0192 N   0  3  0  0  0  0  0  0  0  0  0  0
   -3.1066    0.7145    0.0207 N   0  5  0  0  0  0  0  0  0  0  0  0
    3.1151   -2.1092    3.9627 C   0  0  0  0  0  0  0  0  0  0  0  0
    0.4104   -2.3134    4.3755 H   0  0  0  0  0  0  0  0  0  0  0  0
    0.1996   -0.7527    5.2370 H   0  0  0  0  0  0  0  0  0  0  0  0
    1.2371   -2.0366    5.9467 H   0  0  0  0  0  0  0  0  0  0  0  0
    1.2476    1.2991    5.2475 H   0  0  0  0  0  0  0  0  0  0  0  0
    2.2759    3.1606    5.4844 H   0  0  0  0  0  0  0  0  0  0  0  0
    3.7999    2.5635    4.6997 H   0  0  0  0  0  0  0  0  0  0  0  0
    0.5540    2.2163    2.6106 H   0  0  0  0  0  0  0  0  0  0  0  0
    3.1501    0.7797    2.4364 H   0  0  0  0  0  0  0  0  0  0  0  0
    3.2879    3.2204   -3.2755 H   0  0  0  0  0  0  0  0  0  0  0  0
    2.1760    2.5733   -4.5114 H   0  0  0  0  0  0  0  0  0  0  0  0
    2.6289   -2.8719    3.3367 H   0  0  0  0  0  0  0  0  0  0  0  0
    3.4474   -2.5689    4.9052 H   0  0  0  0  0  0  0  0  0  0  0  0
    3.9833   -1.6945    3.4295 H   0  0  0  0  0  0  0  0  0  0  0  0
  1  2  1  0  0  0  0
  2  9  1  0  0  0  0
  2  3  1  0  0  0  0
  2 23  1  0  0  0  0
  3  4  1  0  0  0  0
  4  8  1  0  0  0  0
  4  5  1  0  0  0  0
  5  6  1  0  0  0  0
  6  7  1  0  0  0  0
  7  8  1  0  0  0  0
  7 10  1  0  0  0  0
  8  9  1  0  0  0  0
 10 14  1  0  0  0  0
 10 11  2  0  0  0  0
 11 12  1  0  0  0  0
 11 18  1  0  0  0  0
 12 13  2  0  0  0  0
 12 15  1  0  0  0  0
 13 14  1  0  0  0  0
 15 16  2  0  0  0  0
 15 17  1  0  0  0  0
 18 19  2  0  0  0  0
 18 20  1  0  0  0  0
 20 21  2  0  0  0  0
 21 22  2  0  0  0  0
  1 24  1  0  0  0  0
  1 25  1  0  0  0  0
  1 26  1  0  0  0  0
  4 27  1  0  0  0  0
  5 28  1  0  0  0  0
  5 29  1  0  0  0  0
  7 30  1  0  0  0  0
  8 31  1  0  0  0  0
 17 32  1  0  0  0  0
 17 33  1  0  0  0  0
 23 34  1  0  0  0  0
 23 35  1  0  0  0  0
 23 36  1  0  0  0  0
M  CHG  3  14  -1  21   1  22  -1
M  END
> <Name>
ZINC16952887

> <reference>
BDB4977

> <quality>
0.733

> <status>
decoy

$$$$
ZINC10315608
  SciTegic06141217593D

 40 41  0  0  0  0            999 V2000
   -0.3570    2.7804    1.8166 C   0  0  0  0  0  0  0  0  0  0  0  0
   -1.0018    3.2336    2.9487 C   0  0  0  0  0  0  0  0  0  0  0  0
   -2.0137    2.4645    3.5269 C   0  0  0  0  0  0  0  0  0  0  0  0
   -2.3694    1.2433    2.9508 C   0  0  0  0  0  0  0  0  0  0  0  0
   -1.7199    0.8047    1.8157 C   0  0  0  0  0  0  0  0  0  0  0  0
   -0.7181    1.5718    1.2479 C   0  0  0  0  0  0  0  0  0  0  0  0
   -0.0127    1.0858    0.0080 C   0  0  0  0  0  0  0  0  0  0  0  0
   -0.0624    1.1171   -2.4126 C   0  0  0  0  0  0  0  0  0  0  0  0
   -0.8294    1.6425   -3.6277 C   0  0  0  0  0  0  0  0  0  0  0  0
   -0.1705    1.1884   -4.8548 N   0  0  0  0  0  0  0  0  0  0  0  0
   -0.6919    1.5451   -6.1005 C   0  0  0  0  0  0  0  0  0  0  0  0
   -1.8384    2.3256   -6.1777 C   0  0  0  0  0  0  0  0  0  0  0  0
   -2.3479    2.6812   -7.4111 C   0  0  0  0  0  0  0  0  0  0  0  0
   -1.7247    2.2517   -8.5684 C   0  0  0  0  0  0  0  0  0  0  0  0
   -0.5864    1.4699   -8.4952 C   0  0  0  0  0  0  0  0  0  0  0  0
   -0.0683    1.1153   -7.2651 C   0  0  0  0  0  0  0  0  0  0  0  0
   -2.2769    2.6301   -9.8884 N   0  0  0  0  0  0  0  0  0  0  0  0
   -1.7288    2.2529  -10.9086 O   0  0  0  0  0  0  0  0  0  0  0  0
   -3.2794    3.3187   -9.9545 O   0  0  0  0  0  0  0  0  0  0  0  0
   -2.7052    2.9409    4.7423 C   0  0  0  0  0  0  0  0  0  0  0  0
   -3.5853    2.2699    5.2428 O   0  0  0  0  0  0  0  0  0  0  0  0
   -0.7320    1.5785   -1.1818 N   0  3  0  0  0  0  0  0  0  0  0  0
   -2.3596    4.1195    5.2956 O   0  5  0  0  0  0  0  0  0  0  0  0
    0.4461    3.3812    1.3649 H   0  0  0  0  0  0  0  0  0  0  0  0
   -0.7195    4.1986    3.3949 H   0  0  0  0  0  0  0  0  0  0  0  0
   -3.1657    0.6325    3.4011 H   0  0  0  0  0  0  0  0  0  0  0  0
   -1.9990   -0.1572    1.3608 H   0  0  0  0  0  0  0  0  0  0  0  0
    1.0186    1.4683   -0.0020 H   0  0  0  0  0  0  0  0  0  0  0  0
    0.0011   -0.0141   -0.0010 H   0  0  0  0  0  0  0  0  0  0  0  0
   -0.0496    0.0174   -2.4333 H   0  0  0  0  0  0  0  0  0  0  0  0
    0.9689    1.4990   -2.4344 H   0  0  0  0  0  0  0  0  0  0  0  0
   -1.8609    1.2612   -3.6033 H   0  0  0  0  0  0  0  0  0  0  0  0
   -0.8444    2.7422   -3.6058 H   0  0  0  0  0  0  0  0  0  0  0  0
    0.6773    0.6061   -4.7989 H   0  0  0  0  0  0  0  0  0  0  0  0
   -2.3399    2.6600   -5.2575 H   0  0  0  0  0  0  0  0  0  0  0  0
   -3.2505    3.3068   -7.4730 H   0  0  0  0  0  0  0  0  0  0  0  0
   -0.0930    1.1301   -9.4178 H   0  0  0  0  0  0  0  0  0  0  0  0
    0.8371    0.4933   -7.2076 H   0  0  0  0  0  0  0  0  0  0  0  0
   -1.6992    1.2247   -1.1669 H   0  0  0  0  0  0  0  0  0  0  0  0
   -0.7495    2.6083   -1.1692 H   0  0  0  0  0  0  0  0  0  0  0  0
  1  6  2  0  0  0  0
  1  2  1  0  0  0  0
  2  3  2  0  0  0  0
  3  4  1  0  0  0  0
  3 20  1  0  0  0  0
  4  5  2  0  0  0  0
  5  6  1  0  0  0  0
  6  7  1  0  0  0  0
  7 22  1  0  0  0  0
  8  9  1  0  0  0  0
  8 22  1  0  0  0  0
  9 10  1  0  0  0  0
 10 11  1  0  0  0  0
 11 16  2  0  0  0  0
 11 12  1  0  0  0  0
 12 13  2  0  0  0  0
 13 14  1  0  0  0  0
 14 15  2  0  0  0  0
 14 17  1  0  0  0  0
 15 16  1  0  0  0  0
 17 18  2  0  0  0  0
 17 19  2  0  0  0  0
 20 21  2  0  0  0  0
 20 23  1  0  0  0  0
  1 24  1  0  0  0  0
  2 25  1  0  0  0  0
  4 26  1  0  0  0  0
  5 27  1  0  0  0  0
  7 28  1  0  0  0  0
  7 29  1  0  0  0  0
  8 30  1  0  0  0  0
  8 31  1  0  0  0  0
  9 32  1  0  0  0  0
  9 33  1  0  0  0  0
 10 34  1  0  0  0  0
 12 35  1  0  0  0  0
 13 36  1  0  0  0  0
 15 37  1  0  0  0  0
 16 38  1  0  0  0  0
 22 39  1  0  0  0  0
 22 40  1  0  0  0  0
M  CHG  2  22   1  23  -1
M  END
> <Name>
ZINC10315608

> <reference>
BDB5013

> <quality>
0.756

> <status>
decoy

$$$$
ZINC00547494
  SciTegic06141217593D

 40 41  0  0  0  0            999 V2000
   -3.5706   -0.8423    0.0321 C   0  0  0  0  0  0  0  0  0  0  0  0
   -2.3817   -0.0496    0.0250 O   0  0  0  0  0  0  0  0  0  0  0  0
   -1.1959   -0.7153    0.0096 C   0  0  0  0  0  0  0  0  0  0  0  0
   -1.1793   -2.0974    0.0021 C   0  0  0  0  0  0  0  0  0  0  0  0
    0.0408   -2.7781   -0.0132 C   0  0  0  0  0  0  0  0  0  0  0  0
    1.2383   -2.0582   -0.0208 C   0  0  0  0  0  0  0  0  0  0  0  0
    1.2137   -0.6795   -0.0189 C   0  0  0  0  0  0  0  0  0  0  0  0
    0.0021   -0.0041    0.0020 C   0  0  0  0  0  0  0  0  0  0  0  0
   -0.0164    1.3551    0.0095 O   0  0  0  0  0  0  0  0  0  0  0  0
    1.2479    2.0211    0.0010 C   0  0  0  0  0  0  0  0  0  0  0  0
    1.0302    3.5123    0.0111 C   0  0  0  0  0  0  0  0  0  0  0  0
   -0.0966    3.9606    0.0243 O   0  0  0  0  0  0  0  0  0  0  0  0
    2.0878    4.3478    0.0055 N   0  0  0  0  0  0  0  0  0  0  0  0
    0.0647   -4.2521   -0.0219 C   0  0  0  0  0  0  0  0  0  0  0  0
    1.1989   -4.8827   -0.0361 N   0  0  0  0  0  0  0  0  0  0  0  0
    1.2216   -6.2835   -0.0443 N   0  0  0  0  0  0  0  0  0  0  0  0
    2.3995   -6.9384   -0.0591 C   0  0  0  0  0  0  0  0  0  0  0  0
    3.4401   -6.3149   -0.0652 O   0  0  0  0  0  0  0  0  0  0  0  0
    2.4238   -8.4452   -0.0679 C   0  0  0  0  0  0  0  0  0  0  0  0
    3.8127   -8.9110   -0.0835 N   0  0  0  0  0  0  0  0  0  0  0  0
    4.3885   -9.7574    0.7878 C   0  0  0  0  0  0  0  0  0  0  0  0
    5.6363   -9.9214    0.4303 N   0  0  0  0  0  0  0  0  0  0  0  0
    5.8928   -9.1992   -0.6596 C   0  0  0  0  0  0  0  0  0  0  0  0
    4.8055   -8.5669   -1.0154 N   0  0  0  0  0  0  0  0  0  0  0  0
   -3.5036   -1.4924    0.9169 H   0  0  0  0  0  0  0  0  0  0  0  0
   -3.5210   -1.4822   -0.8612 H   0  0  0  0  0  0  0  0  0  0  0  0
   -4.4873   -0.2344    0.0445 H   0  0  0  0  0  0  0  0  0  0  0  0
   -2.1245   -2.6601    0.0082 H   0  0  0  0  0  0  0  0  0  0  0  0
    2.2005   -2.5912   -0.0283 H   0  0  0  0  0  0  0  0  0  0  0  0
    2.1570   -0.1139   -0.0340 H   0  0  0  0  0  0  0  0  0  0  0  0
    1.8062    1.7389   -0.9038 H   0  0  0  0  0  0  0  0  0  0  0  0
    1.8224    1.7289    0.8924 H   0  0  0  0  0  0  0  0  0  0  0  0
    3.0448    3.9671   -0.0057 H   0  0  0  0  0  0  0  0  0  0  0  0
    1.9390    5.3670    0.0124 H   0  0  0  0  0  0  0  0  0  0  0  0
   -0.8789   -4.8175   -0.0164 H   0  0  0  0  0  0  0  0  0  0  0  0
    0.3381   -6.8129   -0.0390 H   0  0  0  0  0  0  0  0  0  0  0  0
    1.9202   -8.8255    0.8331 H   0  0  0  0  0  0  0  0  0  0  0  0
    1.9033   -8.8162   -0.9631 H   0  0  0  0  0  0  0  0  0  0  0  0
    3.8964  -10.2297    1.6508 H   0  0  0  0  0  0  0  0  0  0  0  0
    6.8624   -9.1440   -1.1762 H   0  0  0  0  0  0  0  0  0  0  0  0
  1  2  1  0  0  0  0
  2  3  1  0  0  0  0
  3  8  2  0  0  0  0
  3  4  1  0  0  0  0
  4  5  2  0  0  0  0
  5  6  1  0  0  0  0
  5 14  1  0  0  0  0
  6  7  2  0  0  0  0
  7  8  1  0  0  0  0
  8  9  1  0  0  0  0
  9 10  1  0  0  0  0
 10 11  1  0  0  0  0
 11 12  2  0  0  0  0
 11 13  1  0  0  0  0
 14 15  2  0  0  0  0
 15 16  1  0  0  0  0
 16 17  1  0  0  0  0
 17 18  2  0  0  0  0
 17 19  1  0  0  0  0
 19 20  1  0  0  0  0
 20 24  1  0  0  0  0
 20 21  1  0  0  0  0
 21 22  2  0  0  0  0
 22 23  1  0  0  0  0
 23 24  2  0  0  0  0
  1 25  1  0  0  0  0
  1 26  1  0  0  0  0
  1 27  1  0  0  0  0
  4 28  1  0  0  0  0
  6 29  1  0  0  0  0
  7 30  1  0  0  0  0
 10 31  1  0  0  0  0
 10 32  1  0  0  0  0
 13 33  1  0  0  0  0
 13 34  1  0  0  0  0
 14 35  1  0  0  0  0
 16 36  1  0  0  0  0
 19 37  1  0  0  0  0
 19 38  1  0  0  0  0
 21 39  1  0  0  0  0
 23 40  1  0  0  0  0
M  END
> <Name>
ZINC00547494

> <reference>
BDB5024

> <quality>
0.677

> <status>
decoy

$$$$
ZINC22205845
  SciTegic06141217593D

 44 44  0  0  1  0            999 V2000
   -2.1608    0.7413    3.6916 C   0  0  0  0  0  0  0  0  0  0  0  0
   -0.8231    1.3483    3.7030 N   0  3  0  0  0  0  0  0  0  0  0  0
   -0.0914    0.9869    4.9244 C   0  0  0  0  0  0  0  0  0  0  0  0
   -0.7844    1.6105    6.1375 C   0  0  1  0  0  0  0  0  0  0  0  0
   -0.0223    1.2341    7.4097 C   0  0  0  0  0  0  0  0  0  0  0  0
   -0.7506    1.7300    8.5801 N   0  0  0  0  0  0  0  0  0  0  0  0
   -0.3750    1.1636   10.0902 S   0  0  0  0  0  0  0  0  0  0  0  0
   -1.2245    1.8455   11.0026 O   0  0  0  0  0  0  0  0  0  0  0  0
   -0.3404   -0.2538    9.9953 O   0  0  0  0  0  0  0  0  0  0  0  0
    1.0457    1.6137   10.3991 O   0  5  0  0  0  0  0  0  0  0  0  0
   -0.8031    3.0324    5.9966 O   0  0  0  0  0  0  0  0  0  0  0  0
   -0.0638    0.9713    2.5033 C   0  0  0  0  0  0  0  0  0  0  0  0
   -0.7288    1.5792    1.2668 C   0  0  2  0  0  0  0  0  0  0  0  0
   -0.0127    1.0858    0.0080 C   0  0  0  0  0  0  0  0  0  0  0  0
   -0.7038    1.5592   -1.1497 O   0  0  0  0  0  0  0  0  0  0  0  0
   -0.1940    1.2075   -2.3595 C   0  0  0  0  0  0  0  0  0  0  0  0
    0.9512    0.4278   -2.4306 C   0  0  0  0  0  0  0  0  0  0  0  0
    1.4642    0.0663   -3.6612 C   0  0  0  0  0  0  0  0  0  0  0  0
    0.8436    0.4912   -4.8223 C   0  0  0  0  0  0  0  0  0  0  0  0
   -0.2950    1.2740   -4.7537 C   0  0  0  0  0  0  0  0  0  0  0  0
   -0.8148    1.6326   -3.5250 C   0  0  0  0  0  0  0  0  0  0  0  0
    1.5522    0.0008   -6.5055 Br  0  0  0  0  0  0  0  0  0  0  0  0
   -0.6468    3.0043    1.3339 O   0  0  0  0  0  0  0  0  0  0  0  0
   -2.7186    1.0938    4.5717 H   0  0  0  0  0  0  0  0  0  0  0  0
   -2.0554   -0.3523    3.7465 H   0  0  0  0  0  0  0  0  0  0  0  0
   -2.6965    1.0202    2.7723 H   0  0  0  0  0  0  0  0  0  0  0  0
   -0.9397    2.3716    3.6951 H   0  0  0  0  0  0  0  0  0  0  0  0
   -0.0774   -0.1076    5.0333 H   0  0  0  0  0  0  0  0  0  0  0  0
    0.9406    1.3622    4.8596 H   0  0  0  0  0  0  0  0  0  0  0  0
   -1.8162    1.2349    6.2035 H   0  0  0  0  0  0  0  0  0  0  0  0
    0.9806    1.6852    7.3847 H   0  0  0  0  0  0  0  0  0  0  0  0
    0.0693    0.1397    7.4721 H   0  0  0  0  0  0  0  0  0  0  0  0
   -1.4963    2.4310    8.4637 H   0  0  0  0  0  0  0  0  0  0  0  0
   -1.2963    3.2770    5.1738 H   0  0  0  0  0  0  0  0  0  0  0  0
    0.9662    1.3481    2.5876 H   0  0  0  0  0  0  0  0  0  0  0  0
   -0.0467   -0.1244    2.4081 H   0  0  0  0  0  0  0  0  0  0  0  0
   -1.7850    1.2740    1.2312 H   0  0  0  0  0  0  0  0  0  0  0  0
    1.0191    1.4669   -0.0002 H   0  0  0  0  0  0  0  0  0  0  0  0
    0.0026   -0.0141    0.0008 H   0  0  0  0  0  0  0  0  0  0  0  0
    1.4504    0.0976   -1.5077 H   0  0  0  0  0  0  0  0  0  0  0  0
    2.3668   -0.5599   -3.7179 H   0  0  0  0  0  0  0  0  0  0  0  0
   -0.7868    1.6111   -5.6781 H   0  0  0  0  0  0  0  0  0  0  0  0
   -1.7203    2.2548   -3.4708 H   0  0  0  0  0  0  0  0  0  0  0  0
    0.3035    3.2800    1.3658 H   0  0  0  0  0  0  0  0  0  0  0  0
  1  2  1  0  0  0  0
  2  3  1  0  0  0  0
  2 12  1  0  0  0  0
  3  4  1  0  0  0  0
  4  5  1  0  0  0  0
  4 11  1  0  0  0  0
  5  6  1  0  0  0  0
  6  7  1  0  0  0  0
  7  8  2  0  0  0  0
  7  9  2  0  0  0  0
  7 10  1  0  0  0  0
 12 13  1  0  0  0  0
 13 14  1  0  0  0  0
 13 23  1  0  0  0  0
 14 15  1  0  0  0  0
 15 16  1  0  0  0  0
 16 21  2  0  0  0  0
 16 17  1  0  0  0  0
 17 18  2  0  0  0  0
 18 19  1  0  0  0  0
 19 20  2  0  0  0  0
 19 22  1  0  0  0  0
 20 21  1  0  0  0  0
  1 24  1  0  0  0  0
  1 25  1  0  0  0  0
  1 26  1  0  0  0  0
  2 27  1  0  0  0  0
  3 28  1  0  0  0  0
  3 29  1  0  0  0  0
  4 30  1  0  0  0  0
  5 31  1  0  0  0  0
  5 32  1  0  0  0  0
  6 33  1  0  0  0  0
 11 34  1  0  0  0  0
 12 35  1  0  0  0  0
 12 36  1  0  0  0  0
 13 37  1  0  0  0  0
 14 38  1  0  0  0  0
 14 39  1  0  0  0  0
 17 40  1  0  0  0  0
 18 41  1  0  0  0  0
 20 42  1  0  0  0  0
 21 43  1  0  0  0  0
 23 44  1  0  0  0  0
M  CHG  2   2   1  10  -1
M  END
> <Name>
ZINC22205845

> <reference>
BDB4948

> <quality>
0.793

> <status>
decoy

$$$$
